# generated using pymatgen
data_ZnH24C33(N3O4)2
_symmetry_space_group_name_H-M   'P 1'
_cell_length_a   9.58344527
_cell_length_b   12.89849841
_cell_length_c   13.30004420
_cell_angle_alpha   72.21064073
_cell_angle_beta   74.80744965
_cell_angle_gamma   74.08712837
_symmetry_Int_Tables_number   1
_chemical_formula_structural   ZnH24C33(N3O4)2
_chemical_formula_sum   'Zn2 H48 C66 N12 O16'
_cell_volume   1476.63579917
_cell_formula_units_Z   2
loop_
 _symmetry_equiv_pos_site_id
 _symmetry_equiv_pos_as_xyz
  1  'x, y, z'
loop_
 _atom_site_type_symbol
 _atom_site_label
 _atom_site_symmetry_multiplicity
 _atom_site_fract_x
 _atom_site_fract_y
 _atom_site_fract_z
 _atom_site_occupancy
 _atom_site_hle17_bader_spin_density
 _atom_site_hle17_ddec_charge
 _atom_site_hle17_ddec_spin_density
 _atom_site_hle17_ddec_sum_bond_order
 _atom_site_hle17_magmom
 _atom_site_hse06_10hf_bader_spin_density
 _atom_site_hse06_10hf_ddec_charge
 _atom_site_hse06_10hf_ddec_spin_density
 _atom_site_hse06_10hf_ddec_sum_bond_order
 _atom_site_hse06_10hf_magmom
 _atom_site_hse06_bader_spin_density
 _atom_site_hse06_ddec_charge
 _atom_site_hse06_ddec_spin_density
 _atom_site_hse06_ddec_sum_bond_order
 _atom_site_hse06_magmom
 _atom_site_pbe_bader_spin_density
 _atom_site_pbe_cm5_charge
 _atom_site_pbe_ddec_charge
 _atom_site_pbe_ddec_spin_density
 _atom_site_pbe_ddec_sum_bond_order
 _atom_site_pbe_magmom
Zn  Zn0  1  0.09835125  0.92269956  0.31377206  1  0  1.00004  0  1.901165  0  0  0.804279  0  2.392474  0  0  0.850522  0  2.336274  0  0  0.716105  0.772257  0  2.430832  0
Zn  Zn1  1  0.90165403  0.07730164  0.68622980  1  0  0.999941  0  1.901264  0  0  0.804175  0  2.392592  0  0  0.850414  0  2.336391  0  0  0.716058  0.77215  0  2.430946  0
H  H2  1  0.37633469  0.66153618  0.38138542  1  0  0.099648  0  0.925595  0  0  0.114842  0  0.987405  0  0  0.116133  0  0.986998  0  0  0.099681  0.114036  0  0.98747  0
H  H3  1  0.62366395  0.33846170  0.61861641  1  0  0.09967  0  0.925571  0  0  0.114855  0  0.987402  0  0  0.116148  0  0.986994  0  0  0.09969  0.11405  0  0.987461  0
H  H4  1  0.51515576  0.65233141  0.45094977  1  0  0.084159  0  0.959537  0  0  0.098209  0  1.027358  0  0  0.098728  0  1.028316  0  0  0.09333  0.09792  0  1.0266  0
H  H5  1  0.48484034  0.34766397  0.54905177  1  0  0.084154  0  0.959566  0  0  0.098229  0  1.027368  0  0  0.098748  0  1.028326  0  0  0.093336  0.097941  0  1.026614  0
H  H6  1  0.37147614  0.50213030  0.32880315  1  0  0.090626  0  0.969456  0  0  0.102418  0  1.031164  0  0  0.103988  0  1.031542  0  0  0.100254  0.101036  0  1.031515  0
H  H7  1  0.62852038  0.49786756  0.67119456  1  0  0.090654  0  0.969503  0  0  0.102448  0  1.031202  0  0  0.104018  0  1.03158  0  0  0.100269  0.10106  0  1.031557  0
H  H8  1  0.48266494  0.31150942  0.30977545  1  0  0.097041  0  0.988602  0  0  0.104668  0  1.057529  0  0  0.10698  0  1.057019  0  0  0.102232  0.102848  0  1.058129  0
H  H9  1  0.51733462  0.68848926  0.69021845  1  0  0.097049  0  0.988639  0  0  0.104722  0  1.057491  0  0  0.107014  0  1.057004  0  0  0.10228  0.102907  0  1.058084  0
H  H10  1  0.88958791  0.33462292  0.37570483  1  0  0.105819  0  0.983855  0  0  0.115135  0  1.046647  0  0  0.117523  0  1.046191  0  0  0.107368  0.113469  0  1.047025  0
H  H11  1  0.11040682  0.66537745  0.62429322  1  0  0.105769  0  0.983883  0  0  0.115137  0  1.046634  0  0  0.117527  0  1.046174  0  0  0.107364  0.113472  0  1.047011  0
H  H12  1  0.77471884  0.52375266  0.39863054  1  0  0.091186  0  0.966891  0  0  0.101373  0  1.030954  0  0  0.102602  0  1.032737  0  0  0.099712  0.100054  0  1.030473  0
H  H13  1  0.22527695  0.47624773  0.60137107  1  0  0.091288  0  0.966854  0  0  0.101448  0  1.030923  0  0  0.102678  0  1.032706  0  0  0.099743  0.10013  0  1.030445  0
H  H14  1  0.41096405  0.73815849  0.18268710  1  0  0.097122  0  0.942131  0  0  0.110181  0  0.999932  0  0  0.112566  0  0.999251  0  0  0.103471  0.108545  0  1.000368  0
H  H15  1  0.58904024  0.26183853  0.81731243  1  0  0.097084  0  0.942173  0  0  0.110146  0  0.999973  0  0  0.112531  0  0.999293  0  0  0.103456  0.108508  0  1.000406  0
H  H16  1  0.52169935  0.87168775  0.02497184  1  0  0.111123  0  0.976397  0  0  0.119139  0  1.042624  0  0  0.122106  0  1.04113  0  0  0.103136  0.117075  0  1.043725  0
H  H17  1  0.47830731  0.12830845  0.97503051  1  0  0.111066  0  0.976431  0  0  0.119098  0  1.042644  0  0  0.122063  0  1.041155  0  0  0.103099  0.11703  0  1.043748  0
H  H18  1  0.83737262  0.87475367  0.20346775  1  0  0.109942  0  0.969725  0  0  0.112765  0  1.045305  0  0  0.116456  0  1.042186  0  0  0.106999  0.110274  0  1.04732  0
H  H19  1  0.16262729  0.12524339  0.79653860  1  0  0.109905  0  0.969709  0  0  0.112758  0  1.045295  0  0  0.116449  0  1.042175  0  0  0.106987  0.110268  0  1.04731  0
H  H20  1  0.72887009  0.73896282  0.35881316  1  0  0.095256  0  0.942916  0  0  0.109043  0  0.998162  0  0  0.110777  0  0.998609  0  0  0.102674  0.10778  0  0.997909  0
H  H21  1  0.27112435  0.26103841  0.64119220  1  0  0.095258  0  0.943035  0  0  0.109008  0  0.998319  0  0  0.110737  0  0.998762  0  0  0.102684  0.107748  0  0.998061  0
H  H22  1  0.95449641  0.15541205  0.40065162  1  0  0.134115  0  0.960693  0  0  0.14027  0  1.025438  0  0  0.143866  0  1.020893  0  0  0.146083  0.137536  0  1.02898  0
H  H23  1  0.04550216  0.84458999  0.59934898  1  0  0.134092  0  0.960713  0  0  0.140249  0  1.02546  0  0  0.143844  0  1.020917  0  0  0.146075  0.137516  0  1.029002  0
H  H24  1  0.61979970  0.17361288  0.23593533  1  0  0.105455  0  0.966012  0  0  0.114253  0  1.028465  0  0  0.116178  0  1.026555  0  0  0.139297  0.112809  0  1.029876  0
H  H25  1  0.38020245  0.82638415  0.76406234  1  0  0.105462  0  0.966114  0  0  0.114255  0  1.028556  0  0  0.116179  0  1.026649  0  0  0.139287  0.112812  0  1.029966  0
H  H26  1  0.72921887  0.90514744  0.87919800  1  0  0.127846  0  0.928595  0  0  0.133972  0  0.992794  0  0  0.137335  0  0.988519  0  0  0.151058  0.131376  0  0.996057  0
H  H27  1  0.27078194  0.09485043  0.12080268  1  0  0.127745  0  0.9288  0  0  0.1339  0  0.992923  0  0  0.137365  0  0.98852  0  0  0.151016  0.1313  0  0.996191  0
H  H28  1  0.81380354  0.06451822  0.08670528  1  0  0.12116  0  0.956256  0  0  0.121908  0  1.032288  0  0  0.125479  0  1.028008  0  0  0.144237  0.11928  0  1.035385  0
H  H29  1  0.18621053  0.93547463  0.91329669  1  0  0.121203  0  0.956176  0  0  0.12197  0  1.032166  0  0  0.125524  0  1.027906  0  0  0.14426  0.119341  0  1.035265  0
H  H30  1  0.87204773  0.62138977  0.62543877  1  0  0.104599  0  0.95268  0  0  0.113893  0  1.014746  0  0  0.118086  0  1.011424  0  0  0.103765  0.110779  0  1.017438  0
H  H31  1  0.12795067  0.37861308  0.37455485  1  0  0.104598  0  0.952679  0  0  0.113871  0  1.014769  0  0  0.118073  0  1.011437  0  0  0.103715  0.110755  0  1.017467  0
H  H32  1  0.12485824  0.58467878  0.31546816  1  0  0.104717  0  0.956169  0  0  0.112743  0  1.021328  0  0  0.117078  0  1.017472  0  0  0.103638  0.109611  0  1.024281  0
H  H33  1  0.87513752  0.41532575  0.68452695  1  0  0.10476  0  0.956131  0  0  0.112742  0  1.021326  0  0  0.117075  0  1.017475  0  0  0.103651  0.109614  0  1.024264  0
H  H34  1  0.33230871  0.18163660  0.43773205  1  0  0.098872  0  0.958836  0  0  0.108228  0  1.0229  0  0  0.11137  0  1.021156  0  0  0.102305  0.10601  0  1.024156  0
H  H35  1  0.66768792  0.81837629  0.56227019  1  0  0.098887  0  0.958862  0  0  0.108182  0  1.022996  0  0  0.111327  0  1.021244  0  0  0.102241  0.105963  0  1.024248  0
H  H36  1  0.48070664  0.83264139  0.45460028  1  0  0.091299  0  0.982322  0  0  0.099622  0  1.050466  0  0  0.102569  0  1.049176  0  0  0.099583  0.097587  0  1.051324  0
H  H37  1  0.51929371  0.16736981  0.54539951  1  0  0.091166  0  0.982247  0  0  0.09949  0  1.05045  0  0  0.102439  0  1.049159  0  0  0.099497  0.097462  0  1.051306  0
H  H38  1  0.29089063  0.21566115  0.25097762  1  0  0.408371  0  0.881437  0  0  0.375135  0  0.964906  0  0  0.388717  0  0.947011  0  0  0.298532  0.365564  0  0.975432  0
H  H39  1  0.70910728  0.78434338  0.74901860  1  0  0.408458  0  0.881236  0  0  0.375145  0  0.964848  0  0  0.388729  0  0.946992  0  0  0.298541  0.365574  0  0.975375  0
H  H40  1  0.64088285  0.32018550  0.95962063  1  0  0.100845  0  0.965049  0  0  0.106316  0  1.033003  0  0  0.110081  0  1.030656  0  0  0.104172  0.10363  0  1.034699  0
H  H41  1  0.35912162  0.67981485  0.04037638  1  0  0.100828  0  0.965048  0  0  0.106287  0  1.033009  0  0  0.110052  0  1.030662  0  0  0.104157  0.103602  0  1.034707  0
H  H42  1  0.28252740  0.50300909  0.15112611  1  0  0.102161  0  0.953103  0  0  0.110287  0  1.018763  0  0  0.113183  0  1.017218  0  0  0.105699  0.107975  0  1.02058  0
H  H43  1  0.71747492  0.49699126  0.84886979  1  0  0.102097  0  0.953104  0  0  0.110229  0  1.018757  0  0  0.113124  0  1.017213  0  0  0.105674  0.107913  0  1.020576  0
H  H44  1  0.08926752  0.77696524  0.11158149  1  0  0.370024  0  0.907392  0  0  0.328028  0  1.010793  0  0  0.340727  0  0.997211  0  0  0.300022  0.319118  0  1.020223  0
H  H45  1  0.91073204  0.22302930  0.88842116  1  0  0.36999  0  0.907316  0  0  0.327989  0  1.010762  0  0  0.340688  0  0.997182  0  0  0.300025  0.319076  0  1.020189  0
H  H46  1  0.04391431  0.65671051  0.84013555  1  0  0.099432  0  0.960684  0  0  0.104764  0  1.027947  0  0  0.108456  0  1.025591  0  0  0.101196  0.102148  0  1.029717  0
H  H47  1  0.95608281  0.34328902  0.15986305  1  0  0.099462  0  0.960684  0  0  0.104797  0  1.027944  0  0  0.108488  0  1.025588  0  0  0.101198  0.10218  0  1.029717  0
H  H48  1  0.99095845  0.51950001  0.18239657  1  0  0.102944  0  0.944623  0  0  0.112661  0  1.006836  0  0  0.115359  0  1.005871  0  0  0.10577  0.110901  0  1.007349  0
H  H49  1  0.00903781  0.48049870  0.81760320  1  0  0.102872  0  0.944582  0  0  0.112609  0  1.006788  0  0  0.115305  0  1.005827  0  0  0.105768  0.110849  0  1.0073  0
C  C50  1  0.49647815  0.64467479  0.37568927  1  0  -0.20542  0  3.731376  0  0  -0.255127  0  3.974123  0  0  -0.255377  0  3.984982  0  0  -0.155741  -0.25484  0  3.966421  0
C  C51  1  0.50351965  0.35532225  0.62431146  1  0  -0.205444  0  3.731448  0  0  -0.255197  0  3.974179  0  0  -0.255436  0  3.985006  0  0  -0.155785  -0.254907  0  3.966479  0
C  C52  1  0.56461522  0.52735894  0.36444688  1  0  0.106921  0  3.737534  0  0  0.127867  0  3.970016  0  0  0.127456  0  3.994178  0  0  -0.003578  0.128114  0  3.953371  0
C  C53  1  0.43538105  0.47263976  0.63555213  1  0  0.106874  0  3.737588  0  0  0.12782  0  3.970097  0  0  0.127409  0  3.994263  0  0  -0.003568  0.128064  0  3.953451  0
C  C54  1  0.48549744  0.46595825  0.33854361  1  0  -0.107858  0  3.747491  0  0  -0.125021  0  3.988884  0  0  -0.127286  0  4.011466  0  0  -0.089721  -0.12308  0  3.973648  0
C  C55  1  0.51449886  0.53404045  0.66145239  1  0  -0.107856  0  3.74753  0  0  -0.125027  0  3.98895  0  0  -0.127293  0  4.011529  0  0  -0.089749  -0.123084  0  3.973709  0
C  C56  1  0.54856018  0.35808278  0.32716955  1  0  -0.149339  0  3.760924  0  0  -0.16944  0  4.012712  0  0  -0.17349  0  4.034393  0  0  -0.093153  -0.166727  0  3.998201  0
C  C57  1  0.45143851  0.64191508  0.67282701  1  0  -0.149426  0  3.760818  0  0  -0.169549  0  4.012599  0  0  -0.173584  0  4.034289  0  0  -0.093202  -0.166837  0  3.99808  0
C  C58  1  0.69453776  0.31112048  0.33977763  1  0  0.178092  0  3.780664  0  0  0.16994  0  4.027383  0  0  0.175556  0  4.049431  0  0  0.094106  0.166192  0  4.012403  0
C  C59  1  0.30545830  0.68887906  0.66021967  1  0  0.178159  0  3.780597  0  0  0.170036  0  4.027286  0  0  0.175653  0  4.049331  0  0  0.094103  0.166275  0  4.012323  0
C  C60  1  0.77596151  0.37123973  0.36522546  1  0  -0.142766  0  3.737482  0  0  -0.162518  0  3.987154  0  0  -0.166797  0  4.009028  0  0  -0.08689  -0.159727  0  3.972372  0
C  C61  1  0.22403493  0.62876231  0.63477253  1  0  -0.142849  0  3.737549  0  0  -0.162653  0  3.987194  0  0  -0.166934  0  4.00907  0  0  -0.086961  -0.159861  0  3.972418  0
C  C62  1  0.71041287  0.47803649  0.37799984  1  0  -0.097975  0  3.72495  0  0  -0.115531  0  3.968389  0  0  -0.117724  0  3.991406  0  0  -0.084967  -0.113555  0  3.952851  0
C  C63  1  0.28958186  0.52196388  0.62199896  1  0  -0.097951  0  3.724859  0  0  -0.115478  0  3.968316  0  0  -0.117673  0  3.991336  0  0  -0.084915  -0.113504  0  3.952783  0
C  C64  1  0.56217082  0.72896621  0.28158096  1  0  0.106686  0  3.738778  0  0  0.128191  0  3.972127  0  0  0.128148  0  3.996379  0  0  -0.001894  0.128271  0  3.955488  0
C  C65  1  0.43782579  0.27103501  0.71842325  1  0  0.106601  0  3.738647  0  0  0.128248  0  3.971824  0  0  0.128205  0  3.996084  0  0  -0.001819  0.128326  0  3.955186  0
C  C66  1  0.50547720  0.76716236  0.18681998  1  0  -0.098194  0  3.732186  0  0  -0.118293  0  3.979719  0  0  -0.121206  0  4.00232  0  0  -0.089517  -0.116193  0  3.964315  0
C  C67  1  0.49452576  0.23283551  0.81318256  1  0  -0.097998  0  3.732069  0  0  -0.118139  0  3.979583  0  0  -0.121055  0  4.002188  0  0  -0.089466  -0.116036  0  3.964174  0
C  C68  1  0.56625059  0.84325670  0.09846585  1  0  -0.149012  0  3.756023  0  0  -0.172807  0  4.010849  0  0  -0.176274  0  4.033059  0  0  -0.097236  -0.17055  0  3.99599  0
C  C69  1  0.43375522  0.15673866  0.90153615  1  0  -0.149058  0  3.756177  0  0  -0.172898  0  4.011  0  0  -0.17637  0  4.033225  0  0  -0.097251  -0.170638  0  3.996139  0
C  C70  1  0.68577774  0.88120477  0.10534014  1  0  0.168075  0  3.782487  0  0  0.163118  0  4.024755  0  0  0.166555  0  4.048904  0  0  0.088539  0.160832  0  4.008423  0
C  C71  1  0.31423092  0.11878809  0.89466283  1  0  0.16802  0  3.78241  0  0  0.163167  0  4.024579  0  0  0.166599  0  4.048731  0  0  0.088618  0.160879  0  4.008246  0
C  C72  1  0.74504306  0.84417035  0.19843835  1  0  -0.123659  0  3.744701  0  0  -0.148031  0  3.999692  0  0  -0.150088  0  4.019578  0  0  -0.087299  -0.14646  0  3.985888  0
C  C73  1  0.25495710  0.15582587  0.80156595  1  0  -0.123511  0  3.744525  0  0  -0.14797  0  3.999482  0  0  -0.150023  0  4.019362  0  0  -0.087288  -0.146398  0  3.985678  0
C  C74  1  0.68261176  0.76800454  0.28589457  1  0  -0.100602  0  3.725932  0  0  -0.116818  0  3.967408  0  0  -0.120015  0  3.989888  0  0  -0.085724  -0.114559  0  3.951872  0
C  C75  1  0.31738600  0.23199252  0.71411068  1  0  -0.100656  0  3.726082  0  0  -0.116894  0  3.967585  0  0  -0.120073  0  3.990036  0  0  -0.085824  -0.114636  0  3.95205  0
C  C76  1  0.88928000  0.13580165  0.35571184  1  0  0.193169  0  3.563032  0  0  0.126136  0  3.828879  0  0  0.141582  0  3.837846  0  0  0.174322  0.115769  0  3.823378  0
C  C77  1  0.11071991  0.86419955  0.64428575  1  0  0.193206  0  3.562931  0  0  0.126167  0  3.82882  0  0  0.141601  0  3.8378  0  0  0.174343  0.115798  0  3.82332  0
C  C78  1  0.71603575  0.14393369  0.27311814  1  0  0.166146  0  3.630307  0  0  0.109016  0  3.904995  0  0  0.120312  0  3.917198  0  0  0.162373  0.101553  0  3.896847  0
C  C79  1  0.28396699  0.85606500  0.72688193  1  0  0.16604  0  3.630391  0  0  0.108924  0  3.905065  0  0  0.12022  0  3.917267  0  0  0.162344  0.101461  0  3.896919  0
C  C80  1  0.76258427  0.96226785  0.90907718  1  0  0.193762  0  3.599288  0  0  0.126571  0  3.870706  0  0  0.14141  0  3.88034  0  0  0.17603  0.116949  0  3.864263  0
C  C81  1  0.23742000  0.03772919  0.09092536  1  0  0.193796  0  3.599453  0  0  0.126599  0  3.87082  0  0  0.141363  0  3.880413  0  0  0.176036  0.116978  0  3.864377  0
C  C82  1  0.80697668  0.04472179  0.01466107  1  0  0.183595  0  3.587539  0  0  0.118442  0  3.864713  0  0  0.13179  0  3.8741  0  0  0.170128  0.109823  0  3.858481  0
C  C83  1  0.19303610  0.95527188  0.98533864  1  0  0.18358  0  3.587305  0  0  0.118441  0  3.864448  0  0  0.131803  0  3.873839  0  0  0.170144  0.109824  0  3.858217  0
C  C84  1  0.99991178  0.61379847  0.46743214  1  0  -0.061209  0  3.767826  0  0  -0.038859  0  3.998505  0  0  -0.045082  0  4.020845  0  0  -0.017173  -0.034388  0  3.98356  0
C  C85  1  0.00008099  0.38620522  0.53256076  1  0  -0.061296  0  3.768129  0  0  -0.038868  0  3.998648  0  0  -0.045089  0  4.020989  0  0  -0.01726  -0.034396  0  3.983703  0
C  C86  1  0.92745972  0.56739661  0.57119808  1  0  -0.087567  0  3.747103  0  0  -0.108703  0  3.99489  0  0  -0.109834  0  4.014292  0  0  -0.08764  -0.108025  0  3.982955  0
C  C87  1  0.07253588  0.43260458  0.42879806  1  0  -0.087676  0  3.747309  0  0  -0.108807  0  3.995078  0  0  -0.109948  0  4.01448  0  0  -0.087613  -0.108127  0  3.983148  0
C  C88  1  0.07158022  0.54602232  0.39624755  1  0  -0.07888  0  3.737895  0  0  -0.101993  0  3.989822  0  0  -0.102179  0  4.008049  0  0  -0.084737  -0.102352  0  3.978597  0
C  C89  1  0.92841239  0.45397804  0.60374638  1  0  -0.078977  0  3.737972  0  0  -0.102065  0  3.989848  0  0  -0.10225  0  4.00807  0  0  -0.084727  -0.102421  0  3.978618  0
C  C90  1  0.00829152  0.73414367  0.43558214  1  0  0.621834  0  3.939901  0  0  0.575896  0  4.226802  0  0  0.609342  0  4.220015  0  0  0.199258  0.553251  0  4.230549  0
C  C91  1  0.99170446  0.26586003  0.56441394  1  0  0.621984  0  3.939972  0  0  0.576068  0  4.226784  0  0  0.609512  0  4.219989  0  0  0.199418  0.553422  0  4.230536  0
C  C92  1  0.39822682  0.00804604  0.43782096  1  0  -0.050046  0  3.742032  0  0  -0.026008  0  3.9711  0  0  -0.032501  0  3.992914  0  0  -0.012089  -0.021737  0  3.956627  0
C  C93  1  0.60176640  0.99196353  0.56218289  1  0  -0.049898  0  3.742067  0  0  -0.025871  0  3.971164  0  0  -0.032392  0  3.993023  0  0  -0.012057  -0.02162  0  3.956728  0
C  C94  1  0.40792917  0.10293252  0.46353234  1  0  -0.082902  0  3.740103  0  0  -0.107529  0  3.993966  0  0  -0.108748  0  4.014266  0  0  -0.088557  -0.106393  0  3.980061  0
C  C95  1  0.59206708  0.89707786  0.53646921  1  0  -0.082908  0  3.740224  0  0  -0.10748  0  3.994051  0  0  -0.10869  0  4.014359  0  0  -0.088525  -0.106339  0  3.980137  0
C  C96  1  0.49034854  0.90539046  0.47511415  1  0  -0.072995  0  3.741667  0  0  -0.099116  0  3.995505  0  0  -0.099846  0  4.016349  0  0  -0.087245  -0.09855  0  3.981297  0
C  C97  1  0.50964685  0.09461909  0.52488931  1  0  -0.072786  0  3.741417  0  0  -0.09894  0  3.995321  0  0  -0.099664  0  4.016177  0  0  -0.087123  -0.098375  0  3.981118  0
C  C98  1  0.29016224  0.01386819  0.37220303  1  0  0.6715  0  3.8609  0  0  0.619453  0  4.150261  0  0  0.654771  0  4.141148  0  0  0.219523  0.595394  0  4.155892  0
C  C99  1  0.70983400  0.98614219  0.62779927  1  0  0.671537  0  3.860864  0  0  0.619455  0  4.150275  0  0  0.654778  0  4.141167  0  0  0.219483  0.595398  0  4.155899  0
C  C100  1  0.45753195  0.39995307  0.06217825  1  0  -0.060424  0  3.746765  0  0  -0.037636  0  3.974832  0  0  -0.044835  0  3.998303  0  0  -0.011911  -0.032937  0  3.958945  0
C  C101  1  0.54247251  0.60004729  0.93781951  1  0  -0.060584  0  3.746893  0  0  -0.037791  0  3.974938  0  0  -0.044984  0  3.998417  0  0  -0.01191  -0.03309  0  3.959049  0
C  C102  1  0.57954664  0.39955336  0.97639658  1  0  -0.06665  0  3.716251  0  0  -0.089956  0  3.964213  0  0  -0.090977  0  3.98458  0  0  -0.080082  -0.088829  0  3.950489  0
C  C103  1  0.42046150  0.60044533  0.02360400  1  0  -0.066497  0  3.716228  0  0  -0.089785  0  3.964153  0  0  -0.090805  0  3.984519  0  0  -0.080044  -0.088661  0  3.950435  0
C  C104  1  0.37794277  0.50154963  0.08534013  1  0  -0.063218  0  3.719855  0  0  -0.088679  0  3.972294  0  0  -0.089394  0  3.993563  0  0  -0.080348  -0.08857  0  3.958831  0
C  C105  1  0.62206322  0.49844905  0.91465859  1  0  -0.063029  0  3.719826  0  0  -0.088492  0  3.972266  0  0  -0.089197  0  3.993519  0  0  -0.080318  -0.088379  0  3.958799  0
C  C106  1  0.42032169  0.29037455  0.12689589  1  0  0.635306  0  3.826175  0  0  0.589167  0  4.123245  0  0  0.622167  0  4.113718  0  0  0.227614  0.566797  0  4.129069  0
C  C107  1  0.57968384  0.70962580  0.87310242  1  0  0.635207  0  3.826363  0  0  0.589106  0  4.123372  0  0  0.622085  0  4.113878  0  0  0.227571  0.566737  0  4.129196  0
C  C108  1  0.02095607  0.59865363  0.01181804  1  0  -0.063523  0  3.757462  0  0  -0.041037  0  3.98551  0  0  -0.048229  0  4.008948  0  0  -0.012202  -0.035906  0  3.969766  0
C  C109  1  0.97903804  0.40134508  0.98818137  1  0  -0.063439  0  3.757389  0  0  -0.040953  0  3.985443  0  0  -0.048147  0  4.008881  0  0  -0.012223  -0.035822  0  3.969698  0
C  C110  1  0.02459456  0.58728610  0.90952106  1  0  -0.061531  0  3.719471  0  0  -0.084215  0  3.967446  0  0  -0.084987  0  3.987305  0  0  -0.080288  -0.083843  0  3.95378  0
C  C111  1  0.97540148  0.41271344  0.09047774  1  0  -0.061634  0  3.719563  0  0  -0.084326  0  3.967548  0  0  -0.085098  0  3.987407  0  0  -0.080309  -0.083956  0  3.953885  0
C  C112  1  0.99566015  0.51056118  0.10268626  1  0  -0.06172  0  3.716386  0  0  -0.086904  0  3.967527  0  0  -0.08737  0  3.987867  0  0  -0.080162  -0.086217  0  3.953516  0
C  C113  1  0.00433263  0.48943838  0.89731465  1  0  -0.061694  0  3.716255  0  0  -0.086907  0  3.967432  0  0  -0.087369  0  3.987767  0  0  -0.080182  -0.086218  0  3.953416  0
C  C114  1  0.04649724  0.70508710  0.01880496  1  0  0.632738  0  3.826663  0  0  0.588774  0  4.119696  0  0  0.621241  0  4.111507  0  0  0.225952  0.566486  0  4.125248  0
C  C115  1  0.95350379  0.29490994  0.98119667  1  0  0.632702  0  3.826626  0  0  0.588757  0  4.11963  0  0  0.621225  0  4.111441  0  0  0.225891  0.566466  0  4.125184  0
N  N116  1  0.91727258  0.04369470  0.32343538  1  0  -0.270428  0  3.26641  0  0  -0.197855  0  3.583646  0  0  -0.215108  0  3.593937  0  0  -0.246331  -0.186353  0  3.576986  0
N  N117  1  0.08273016  0.95630400  0.67656544  1  0  -0.270348  0  3.266442  0  0  -0.197807  0  3.583711  0  0  -0.215041  0  3.593986  0  0  -0.246297  -0.186304  0  3.577048  0
N  N118  1  0.80827548  0.04806663  0.27125381  1  0  -0.209894  0  2.930796  0  0  -0.190052  0  3.213059  0  0  -0.197688  0  3.227512  0  0  -0.217254  -0.184936  0  3.203379  0
N  N119  1  0.19172750  0.95193123  0.72874647  1  0  -0.209887  0  2.930904  0  0  -0.190036  0  3.213188  0  0  -0.197675  0  3.227637  0  0  -0.217233  -0.184921  0  3.203509  0
N  N120  1  0.76196494  0.20237653  0.32495562  1  0  -0.117869  0  3.557425  0  0  -0.028772  0  3.774844  0  0  -0.045292  0  3.797304  0  0  -0.211133  -0.017846  0  3.759551  0
N  N121  1  0.23803542  0.79762300  0.67504314  1  0  -0.117794  0  3.557187  0  0  -0.028714  0  3.774605  0  0  -0.045235  0  3.797066  0  0  -0.211133  -0.017785  0  3.759316  0
N  N122  1  0.82515572  0.04574757  0.84859163  1  0  -0.256686  0  3.224359  0  0  -0.190234  0  3.533029  0  0  -0.206377  0  3.544625  0  0  -0.239184  -0.179553  0  3.525209  0
N  N123  1  0.17484901  0.95424780  0.15141057  1  0  -0.256748  0  3.224348  0  0  -0.190296  0  3.533011  0  0  -0.206445  0  3.544642  0  0  -0.23918  -0.179604  0  3.52518  0
N  N124  1  0.85359376  0.09832440  0.91472664  1  0  -0.234809  0  3.013924  0  0  -0.19387  0  3.286456  0  0  -0.204797  0  3.300748  0  0  -0.208625  -0.18665  0  3.276983  0
N  N125  1  0.14641467  0.90166929  0.08527613  1  0  -0.234772  0  3.013824  0  0  -0.193856  0  3.286333  0  0  -0.204782  0  3.300616  0  0  -0.208621  -0.18664  0  3.27686  0
N  N126  1  0.74843692  0.95905024  0.01455266  1  0  -0.110602  0  3.567991  0  0  -0.020483  0  3.784077  0  0  -0.036962  0  3.807153  0  0  -0.207986  -0.009733  0  3.768371  0
N  N127  1  0.25156996  0.04094512  0.98545064  1  0  -0.110539  0  3.567989  0  0  -0.020478  0  3.784057  0  0  -0.03696  0  3.807153  0  0  -0.208017  -0.009726  0  3.768348  0
O  O128  1  0.07508861  0.77033736  0.33749302  1  0  -0.630636  0  2.026765  0  0  -0.55362  0  2.291131  0  0  -0.581296  0  2.275293  0  0  -0.33559  -0.534201  0  2.300984  0
O  O129  1  0.92491321  0.22966467  0.66250623  1  0  -0.630709  0  2.026766  0  0  -0.553684  0  2.291088  0  0  -0.581376  0  2.275287  0  0  -0.33567  -0.534267  0  2.300943  0
O  O130  1  0.95672402  0.79187375  0.50284816  1  0  -0.611622  0  1.945738  0  0  -0.568418  0  2.176681  0  0  -0.590896  0  2.167227  0  0  -0.318503  -0.552786  0  2.182636  0
O  O131  1  0.04327479  0.20812745  0.49715189  1  0  -0.61163  0  1.945866  0  0  -0.568446  0  2.176791  0  0  -0.590925  0  2.167343  0  0  -0.318519  -0.552814  0  2.182747  0
O  O132  1  0.24575300  0.92268344  0.39124378  1  0  -0.627737  0  2.051628  0  0  -0.552422  0  2.32707  0  0  -0.580952  0  2.311822  0  0  -0.322616  -0.532714  0  2.336926  0
O  O133  1  0.75425807  0.07732024  0.60875627  1  0  -0.627723  0  2.051639  0  0  -0.552399  0  2.327145  0  0  -0.580929  0  2.311895  0  0  -0.322567  -0.532688  0  2.336996  0
O  O134  1  0.24679905  0.10174942  0.30353073  1  0  -0.631824  0  1.997022  0  0  -0.577017  0  2.225879  0  0  -0.602065  0  2.213687  0  0  -0.309625  -0.559348  0  2.23362  0
O  O135  1  0.75320557  0.89825426  0.69646600  1  0  -0.631926  0  1.996839  0  0  -0.577062  0  2.225723  0  0  -0.602095  0  2.213517  0  0  -0.309639  -0.559397  0  2.233474  0
O  O136  1  0.49222489  0.20125636  0.10615287  1  0  -0.564273  0  1.928395  0  0  -0.527489  0  2.148503  0  0  -0.546394  0  2.139809  0  0  -0.301074  -0.514528  0  2.154144  0
O  O137  1  0.50777501  0.79874484  0.89384623  1  0  -0.56424  0  1.928351  0  0  -0.527459  0  2.148442  0  0  -0.546356  0  2.139752  0  0  -0.301057  -0.514498  0  2.154084  0
O  O138  1  0.30759271  0.29553287  0.21063028  1  0  -0.558791  0  2.072104  0  0  -0.506425  0  2.291095  0  0  -0.529135  0  2.273706  0  0  -0.33096  -0.490404  0  2.300974  0
O  O139  1  0.69240389  0.70447249  0.78936593  1  0  -0.558753  0  2.072108  0  0  -0.506397  0  2.291182  0  0  -0.529098  0  2.273832  0  0  -0.330934  -0.490376  0  2.30106  0
O  O140  1  0.04918915  0.78765887  0.94161957  1  0  -0.55492  0  1.931132  0  0  -0.520573  0  2.151322  0  0  -0.540204  0  2.145771  0  0  -0.298674  -0.507029  0  2.154945  0
O  O141  1  0.95081428  0.21233733  0.05838112  1  0  -0.5549  0  1.931162  0  0  -0.52056  0  2.151355  0  0  -0.540185  0  2.145794  0  0  -0.298599  -0.507015  0  2.154979  0
O  O142  1  0.06834403  0.70234327  0.11529389  1  0  -0.546053  0  2.123805  0  0  -0.495258  0  2.357238  0  0  -0.517812  0  2.343922  0  0  -0.33244  -0.479528  0  2.366127  0
O  O143  1  0.93165377  0.29765377  0.88470684  1  0  -0.546022  0  2.12364  0  0  -0.495237  0  2.357045  0  0  -0.517792  0  2.343732  0  0  -0.33245  -0.47951  0  2.365943  0
