# generated using pymatgen
data_H6PbC8O5
_symmetry_space_group_name_H-M   'P 1'
_cell_length_a   7.52766011
_cell_length_b   10.74901176
_cell_length_c   11.05631617
_cell_angle_alpha   109.18709036
_cell_angle_beta   89.99962739
_cell_angle_gamma   90.00197596
_symmetry_Int_Tables_number   1
_chemical_formula_structural   H6PbC8O5
_chemical_formula_sum   'H24 Pb4 C32 O20'
_cell_volume   844.92500829
_cell_formula_units_Z   4
loop_
 _symmetry_equiv_pos_site_id
 _symmetry_equiv_pos_as_xyz
  1  'x, y, z'
loop_
 _atom_site_type_symbol
 _atom_site_label
 _atom_site_symmetry_multiplicity
 _atom_site_fract_x
 _atom_site_fract_y
 _atom_site_fract_z
 _atom_site_occupancy
 _atom_site_hle17_bader_spin_density
 _atom_site_hle17_ddec_charge
 _atom_site_hle17_ddec_spin_density
 _atom_site_hle17_ddec_sum_bond_order
 _atom_site_hle17_magmom
 _atom_site_hse06_10hf_bader_spin_density
 _atom_site_hse06_10hf_ddec_charge
 _atom_site_hse06_10hf_ddec_spin_density
 _atom_site_hse06_10hf_ddec_sum_bond_order
 _atom_site_hse06_10hf_magmom
 _atom_site_hse06_bader_spin_density
 _atom_site_hse06_ddec_charge
 _atom_site_hse06_ddec_spin_density
 _atom_site_hse06_ddec_sum_bond_order
 _atom_site_hse06_magmom
 _atom_site_pbe_bader_spin_density
 _atom_site_pbe_cm5_charge
 _atom_site_pbe_ddec_charge
 _atom_site_pbe_ddec_spin_density
 _atom_site_pbe_ddec_sum_bond_order
 _atom_site_pbe_magmom
H  H0  1  0.62961773  0.92302589  0.01946116  1  0  0.424303  0  0.882839  0  0  0.389237  0  0.952911  0  0  0.401294  0  0.935471  0  0  0.292959  0.380708  0  0.965242  0
H  H1  1  0.12961224  0.07697563  0.48054724  1  0  0.424323  0  0.882774  0  0  0.389244  0  0.952864  0  0  0.401302  0  0.935423  0  0  0.292972  0.380719  0  0.96519  0
H  H2  1  0.37038720  0.07697218  0.98053363  1  0  0.424255  0  0.88285  0  0  0.389165  0  0.952973  0  0  0.401222  0  0.935535  0  0  0.292945  0.380637  0  0.965303  0
H  H3  1  0.87037409  0.92303037  0.51946635  1  0  0.424319  0  0.882736  0  0  0.389213  0  0.952883  0  0  0.401272  0  0.935441  0  0  0.292961  0.380682  0  0.965219  0
H  H4  1  0.59060598  0.07819578  0.09055186  1  0  0.416173  0  0.893462  0  0  0.383858  0  0.959446  0  0  0.394646  0  0.943988  0  0  0.295139  0.376203  0  0.970413  0
H  H5  1  0.09059310  0.92179786  0.40946416  1  0  0.41621  0  0.893442  0  0  0.383839  0  0.959494  0  0  0.394633  0  0.944025  0  0  0.29518  0.376183  0  0.97046  0
H  H6  1  0.40939496  0.92180521  0.90943029  1  0  0.416131  0  0.893521  0  0  0.383818  0  0.95949  0  0  0.394603  0  0.944037  0  0  0.295159  0.376161  0  0.970456  0
H  H7  1  0.90939854  0.07820418  0.59054274  1  0  0.416064  0  0.893619  0  0  0.383662  0  0.959729  0  0  0.394455  0  0.944262  0  0  0.295056  0.376007  0  0.970693  0
H  H8  1  0.99850680  0.55951089  0.35050316  1  0  0.094948  0  0.979896  0  0  0.103234  0  1.045446  0  0  0.105744  0  1.045303  0  0  0.101202  0.101396  0  1.045662  0
H  H9  1  0.49850355  0.44049910  0.14949546  1  0  0.094941  0  0.979818  0  0  0.103248  0  1.045351  0  0  0.105759  0  1.045205  0  0  0.101222  0.101411  0  1.045559  0
H  H10  1  0.00152203  0.44050391  0.64948880  1  0  0.094937  0  0.979865  0  0  0.103266  0  1.045383  0  0  0.105775  0  1.045243  0  0  0.101209  0.101434  0  1.045585  0
H  H11  1  0.50150403  0.55949010  0.85049471  1  0  0.094982  0  0.979854  0  0  0.103265  0  1.045395  0  0  0.105777  0  1.045247  0  0  0.101237  0.101428  0  1.045603  0
H  H12  1  0.00057677  0.32414643  0.21261715  1  0  0.074091  0  0.993629  0  0  0.080608  0  1.067865  0  0  0.082975  0  1.066812  0  0  0.098193  0.079859  0  1.066717  0
H  H13  1  0.50059558  0.67585964  0.28739145  1  0  0.074036  0  0.993762  0  0  0.080571  0  1.067946  0  0  0.082933  0  1.066894  0  0  0.09821  0.079823  0  1.066789  0
H  H14  1  0.99942417  0.67586054  0.78739222  1  0  0.073997  0  0.993722  0  0  0.08054  0  1.067916  0  0  0.082907  0  1.066863  0  0  0.098203  0.079794  0  1.066764  0
H  H15  1  0.49940934  0.32413645  0.71260090  1  0  0.073968  0  0.993842  0  0  0.080515  0  1.068034  0  0  0.082878  0  1.066986  0  0  0.0982  0.079771  0  1.066876  0
H  H16  1  0.72194609  0.42479804  0.91871270  1  0  0.096466  0  0.969933  0  0  0.104078  0  1.037377  0  0  0.106871  0  1.036608  0  0  0.10105  0.102004  0  1.038092  0
H  H17  1  0.22196465  0.57519873  0.58128790  1  0  0.096478  0  0.969958  0  0  0.104051  0  1.037444  0  0  0.106842  0  1.036678  0  0  0.100993  0.101979  0  1.038159  0
H  H18  1  0.27804289  0.57519611  0.08129080  1  0  0.096488  0  0.969881  0  0  0.104052  0  1.037384  0  0  0.106843  0  1.036619  0  0  0.101003  0.101977  0  1.038093  0
H  H19  1  0.77805754  0.42480132  0.41870932  1  0  0.096451  0  0.969933  0  0  0.104046  0  1.037401  0  0  0.106838  0  1.036634  0  0  0.101044  0.101975  0  1.038111  0
H  H20  1  0.72006959  0.66182477  0.05688647  1  0  0.108264  0  0.941706  0  0  0.114877  0  1.006913  0  0  0.118798  0  1.004478  0  0  0.105392  0.112072  0  1.008826  0
H  H21  1  0.22007715  0.33816920  0.44311462  1  0  0.108235  0  0.9417  0  0  0.114875  0  1.006883  0  0  0.118798  0  1.004445  0  0  0.105381  0.112075  0  1.008798  0
H  H22  1  0.27993799  0.33817428  0.94310682  1  0  0.108246  0  0.941704  0  0  0.114883  0  1.00689  0  0  0.118808  0  1.004447  0  0  0.105393  0.112081  0  1.008806  0
H  H23  1  0.77994903  0.66182495  0.55688888  1  0  0.108163  0  0.941673  0  0  0.114816  0  1.006859  0  0  0.118739  0  1.004418  0  0  0.105374  0.112014  0  1.008774  0
Pb  Pb24  1  0.96585256  0.03826681  0.20139236  1  0  1.439722  0  1.373282  0  0  1.266861  0  1.765895  0  0  1.327047  0  1.71799  0  0  0.670209  1.224685  0  1.797514  0
Pb  Pb25  1  0.46584268  0.96171973  0.29861343  1  0  1.439743  0  1.373249  0  0  1.266863  0  1.765868  0  0  1.327054  0  1.717959  0  0  0.670238  1.224688  0  1.797478  0
Pb  Pb26  1  0.03411650  0.96175101  0.79862588  1  0  1.439707  0  1.373253  0  0  1.266814  0  1.765865  0  0  1.327002  0  1.717965  0  0  0.670235  1.224642  0  1.797488  0
Pb  Pb27  1  0.53412505  0.03827242  0.70137315  1  0  1.439692  0  1.373341  0  0  1.266786  0  1.765968  0  0  1.326979  0  1.718065  0  0  0.670228  1.224616  0  1.797586  0
C  C28  1  0.86763876  0.76629644  0.29550105  1  0  0.677721  0  3.865978  0  0  0.617392  0  4.168747  0  0  0.652896  0  4.159291  0  0  0.221346  0.59308  0  4.17489  0
C  C29  1  0.36765813  0.23369839  0.20450690  1  0  0.677823  0  3.865756  0  0  0.617436  0  4.168606  0  0  0.65294  0  4.159147  0  0  0.221379  0.593125  0  4.174755  0
C  C30  1  0.13237547  0.23371146  0.70449143  1  0  0.67777  0  3.865917  0  0  0.617429  0  4.168729  0  0  0.652933  0  4.159272  0  0  0.221419  0.593118  0  4.174874  0
C  C31  1  0.63235344  0.76629674  0.79549238  1  0  0.677731  0  3.865858  0  0  0.617345  0  4.168749  0  0  0.652844  0  4.159292  0  0  0.221349  0.593033  0  4.174891  0
C  C32  1  0.85857048  0.62481515  0.21287313  1  0  -0.063526  0  3.731903  0  0  -0.040976  0  3.966447  0  0  -0.048216  0  3.988887  0  0  -0.01495  -0.036123  0  3.951301  0
C  C33  1  0.35858266  0.37518632  0.28712521  1  0  -0.06372  0  3.732078  0  0  -0.041103  0  3.966575  0  0  -0.048343  0  3.989018  0  0  -0.014945  -0.036247  0  3.951434  0
C  C34  1  0.14143843  0.37519079  0.78712055  1  0  -0.06366  0  3.732176  0  0  -0.041127  0  3.966807  0  0  -0.048367  0  3.989248  0  0  -0.015038  -0.036277  0  3.951671  0
C  C35  1  0.64143821  0.62480980  0.71287438  1  0  -0.063629  0  3.73182  0  0  -0.041081  0  3.966445  0  0  -0.048322  0  3.988885  0  0  -0.014992  -0.036229  0  3.951305  0
C  C36  1  0.93562110  0.52900231  0.25670110  1  0  -0.061769  0  3.724117  0  0  -0.08393  0  3.968731  0  0  -0.085028  0  3.990543  0  0  -0.07951  -0.082715  0  3.95363  0
C  C37  1  0.43562906  0.47100312  0.24330087  1  0  -0.061624  0  3.723994  0  0  -0.083812  0  3.968573  0  0  -0.084912  0  3.990388  0  0  -0.079525  -0.082591  0  3.953463  0
C  C38  1  0.06439578  0.47100659  0.74329623  1  0  -0.06174  0  3.724037  0  0  -0.083949  0  3.968709  0  0  -0.085048  0  3.99052  0  0  -0.079498  -0.082729  0  3.953612  0
C  C39  1  0.56437985  0.52899005  0.75669869  1  0  -0.061754  0  3.723832  0  0  -0.083889  0  3.968492  0  0  -0.084983  0  3.990291  0  0  -0.079541  -0.082663  0  3.953384  0
C  C40  1  0.93596367  0.39775108  0.17975080  1  0  -0.067348  0  3.736882  0  0  -0.090142  0  3.98629  0  0  -0.091339  0  4.007454  0  0  -0.080903  -0.089295  0  3.970997  0
C  C41  1  0.43597861  0.60225536  0.32025511  1  0  -0.067579  0  3.736962  0  0  -0.090356  0  3.986346  0  0  -0.091553  0  4.00751  0  0  -0.080978  -0.089503  0  3.971041  0
C  C42  1  0.06403329  0.60225688  0.82026070  1  0  -0.067249  0  3.736953  0  0  -0.090059  0  3.986364  0  0  -0.091259  0  4.007535  0  0  -0.080916  -0.089209  0  3.971062  0
C  C43  1  0.56402765  0.39773778  0.67973540  1  0  -0.067382  0  3.73698  0  0  -0.090243  0  3.986431  0  0  -0.091442  0  4.007599  0  0  -0.080979  -0.089391  0  3.971128  0
C  C44  1  0.85948670  0.35971755  0.05755384  1  0  -0.049804  0  3.731435  0  0  -0.028011  0  3.963179  0  0  -0.034203  0  3.983673  0  0  -0.0103  -0.024263  0  3.950158  0
C  C45  1  0.35951428  0.64028396  0.44245265  1  0  -0.049582  0  3.731284  0  0  -0.027785  0  3.963052  0  0  -0.033958  0  3.983514  0  0  -0.010253  -0.024039  0  3.950031  0
C  C46  1  0.14049298  0.64028451  0.94246121  1  0  -0.049797  0  3.731484  0  0  -0.027997  0  3.963194  0  0  -0.03419  0  3.983691  0  0  -0.010278  -0.024245  0  3.950166  0
C  C47  1  0.64050127  0.35971114  0.55753848  1  0  -0.049699  0  3.73139  0  0  -0.027885  0  3.963104  0  0  -0.034071  0  3.983584  0  0  -0.010282  -0.024139  0  3.950086  0
C  C48  1  0.77881210  0.45507079  0.01452247  1  0  -0.062812  0  3.708804  0  0  -0.083838  0  3.955073  0  0  -0.084682  0  3.975266  0  0  -0.078041  -0.083135  0  3.941776  0
C  C49  1  0.27883463  0.54492767  0.48548430  1  0  -0.062883  0  3.708629  0  0  -0.083887  0  3.954914  0  0  -0.084737  0  3.975114  0  0  -0.077997  -0.083182  0  3.941624  0
C  C50  1  0.22117821  0.54492928  0.98548200  1  0  -0.062745  0  3.708478  0  0  -0.08374  0  3.954763  0  0  -0.084586  0  3.974959  0  0  -0.077991  -0.083033  0  3.941461  0
C  C51  1  0.72118623  0.45507141  0.51451985  1  0  -0.062866  0  3.708669  0  0  -0.083873  0  3.954946  0  0  -0.084719  0  3.975144  0  0  -0.078039  -0.083165  0  3.941652  0
C  C52  1  0.77875250  0.58694270  0.09132514  1  0  -0.068669  0  3.7  0  0  -0.089701  0  3.949091  0  0  -0.090939  0  3.968956  0  0  -0.079142  -0.089332  0  3.936301  0
C  C53  1  0.27876006  0.41305377  0.40867558  1  0  -0.068684  0  3.699887  0  0  -0.089744  0  3.948977  0  0  -0.090983  0  3.968846  0  0  -0.079221  -0.08938  0  3.936201  0
C  C54  1  0.22124976  0.41305439  0.90866843  1  0  -0.068683  0  3.70002  0  0  -0.089737  0  3.949133  0  0  -0.090974  0  3.968998  0  0  -0.079102  -0.089372  0  3.936354  0
C  C55  1  0.72125550  0.58694531  0.59132857  1  0  -0.068551  0  3.699956  0  0  -0.089613  0  3.949059  0  0  -0.090851  0  3.968925  0  0  -0.07912  -0.089249  0  3.936281  0
C  C56  1  0.87713520  0.22082503  0.97000991  1  0  0.665764  0  3.88639  0  0  0.612036  0  4.179018  0  0  0.648462  0  4.170627  0  0  0.216039  0.58698  0  4.184338  0
C  C57  1  0.37714822  0.77917871  0.53000217  1  0  0.665946  0  3.886353  0  0  0.612138  0  4.17909  0  0  0.64856  0  4.170702  0  0  0.216021  0.587083  0  4.184411  0
C  C58  1  0.12283253  0.77917016  0.03001291  1  0  0.665826  0  3.886356  0  0  0.61214  0  4.178925  0  0  0.648565  0  4.170533  0  0  0.215934  0.587077  0  4.184235  0
C  C59  1  0.62284740  0.22082032  0.46998117  1  0  0.665797  0  3.886503  0  0  0.612081  0  4.179088  0  0  0.648506  0  4.170698  0  0  0.215911  0.587021  0  4.184409  0
O  O60  1  0.79530250  0.85221419  0.25330667  1  0  -0.735211  0  2.057013  0  0  -0.6565  0  2.311958  0  0  -0.688507  0  2.302949  0  0  -0.30749  -0.63461  0  2.317324  0
O  O61  1  0.29531198  0.14778570  0.24670682  1  0  -0.735131  0  2.056821  0  0  -0.656392  0  2.311781  0  0  -0.688405  0  2.302785  0  0  -0.307438  -0.634504  0  2.317151  0
O  O62  1  0.20469312  0.14778585  0.74668784  1  0  -0.735158  0  2.057067  0  0  -0.656342  0  2.311844  0  0  -0.688349  0  2.30283  0  0  -0.307414  -0.634455  0  2.317213  0
O  O63  1  0.70467966  0.85221239  0.75329250  1  0  -0.735105  0  2.056841  0  0  -0.656345  0  2.311801  0  0  -0.688359  0  2.302814  0  0  -0.307426  -0.634462  0  2.317171  0
O  O64  1  0.94791488  0.79452980  0.40270333  1  0  -0.625854  0  1.97485  0  0  -0.561247  0  2.193558  0  0  -0.585813  0  2.181954  0  0  -0.3068  -0.544553  0  2.201521  0
O  O65  1  0.44793390  0.20546612  0.09730461  1  0  -0.625892  0  1.974883  0  0  -0.561328  0  2.193685  0  0  -0.585892  0  2.182081  0  0  -0.306812  -0.544638  0  2.201652  0
O  O66  1  0.05209669  0.20548205  0.59728950  1  0  -0.625959  0  1.974868  0  0  -0.561353  0  2.193599  0  0  -0.585922  0  2.181997  0  0  -0.306907  -0.544656  0  2.201553  0
O  O67  1  0.55208564  0.79452507  0.90269252  1  0  -0.625858  0  1.974887  0  0  -0.561325  0  2.193698  0  0  -0.585887  0  2.182098  0  0  -0.306856  -0.544624  0  2.201647  0
O  O68  1  0.80446287  0.18530382  0.86061334  1  0  -0.677897  0  1.970539  0  0  -0.610888  0  2.206513  0  0  -0.641527  0  2.199468  0  0  -0.299959  -0.590257  0  2.210525  0
O  O69  1  0.30445134  0.81469016  0.63938872  1  0  -0.677999  0  1.970495  0  0  -0.610971  0  2.206506  0  0  -0.641609  0  2.19946  0  0  -0.299968  -0.590341  0  2.21052  0
O  O70  1  0.19549822  0.81468154  0.13941360  1  0  -0.67797  0  1.970606  0  0  -0.61097  0  2.206543  0  0  -0.641612  0  2.199501  0  0  -0.300015  -0.590331  0  2.21055  0
O  O71  1  0.69552038  0.18531377  0.36058622  1  0  -0.677829  0  1.970658  0  0  -0.610828  0  2.206599  0  0  -0.641466  0  2.199556  0  0  -0.299926  -0.590192  0  2.210613  0
O  O72  1  0.97702150  0.14226150  0.00704413  1  0  -0.703516  0  2.00883  0  0  -0.623247  0  2.251431  0  0  -0.657001  0  2.243603  0  0  -0.296621  -0.598527  0  2.25527  0
O  O73  1  0.47702862  0.85774899  0.49298278  1  0  -0.703584  0  2.008928  0  0  -0.623263  0  2.25155  0  0  -0.657016  0  2.243722  0  0  -0.29659  -0.598546  0  2.25539  0
O  O74  1  0.02295553  0.85774258  0.99299146  1  0  -0.703523  0  2.008626  0  0  -0.623239  0  2.251113  0  0  -0.656983  0  2.243276  0  0  -0.296451  -0.598571  0  2.25507  0
O  O75  1  0.52296700  0.14224709  0.50700595  1  0  -0.703578  0  2.008852  0  0  -0.623297  0  2.251419  0  0  -0.657047  0  2.243587  0  0  -0.296482  -0.598613  0  2.255341  0
O  O76  1  0.65348719  0.99985688  0.09922325  1  0  -0.881046  0  1.94011  0  0  -0.803673  0  2.135764  0  0  -0.831455  0  2.104341  0  0  -0.547841  -0.784142  0  2.157523  0
O  O77  1  0.15347739  0.00013344  0.40078783  1  0  -0.881085  0  1.94  0  0  -0.803665  0  2.135767  0  0  -0.831446  0  2.104328  0  0  -0.547904  -0.784141  0  2.157521  0
O  O78  1  0.34650843  0.00014217  0.90076733  1  0  -0.880892  0  1.940136  0  0  -0.803513  0  2.135829  0  0  -0.831289  0  2.104393  0  0  -0.547822  -0.783982  0  2.157588  0
O  O79  1  0.84651292  0.99987058  0.59922423  1  0  -0.88087  0  1.940116  0  0  -0.803419  0  2.135882  0  0  -0.831207  0  2.104455  0  0  -0.547719  -0.783889  0  2.15764  0
