# generated using pymatgen
data_LuH15C11O6
_symmetry_space_group_name_H-M   'P 1'
_cell_length_a   8.01491380
_cell_length_b   10.67876739
_cell_length_c   14.71337460
_cell_angle_alpha   89.99956845
_cell_angle_beta   90.00004396
_cell_angle_gamma   90.00011824
_symmetry_Int_Tables_number   1
_chemical_formula_structural   LuH15C11O6
_chemical_formula_sum   'Lu4 H60 C44 O24'
_cell_volume   1259.30890678
_cell_formula_units_Z   4
loop_
 _symmetry_equiv_pos_site_id
 _symmetry_equiv_pos_as_xyz
  1  'x, y, z'
loop_
 _atom_site_type_symbol
 _atom_site_label
 _atom_site_symmetry_multiplicity
 _atom_site_fract_x
 _atom_site_fract_y
 _atom_site_fract_z
 _atom_site_occupancy
 _atom_site_hle17_bader_spin_density
 _atom_site_hle17_ddec_charge
 _atom_site_hle17_ddec_spin_density
 _atom_site_hle17_ddec_sum_bond_order
 _atom_site_hle17_magmom
 _atom_site_hse06_10hf_bader_spin_density
 _atom_site_hse06_10hf_ddec_charge
 _atom_site_hse06_10hf_ddec_spin_density
 _atom_site_hse06_10hf_ddec_sum_bond_order
 _atom_site_hse06_10hf_magmom
 _atom_site_hse06_bader_spin_density
 _atom_site_hse06_ddec_charge
 _atom_site_hse06_ddec_spin_density
 _atom_site_hse06_ddec_sum_bond_order
 _atom_site_hse06_magmom
 _atom_site_pbe_bader_spin_density
 _atom_site_pbe_cm5_charge
 _atom_site_pbe_ddec_charge
 _atom_site_pbe_ddec_spin_density
 _atom_site_pbe_ddec_sum_bond_order
 _atom_site_pbe_magmom
Lu  Lu0  1  0.92291558  0.79832692  0.00188473  1  0  1.851845  0  2.344134  0  0  1.67685  0  2.846266  0  0  1.74226  0  2.784123  0  0  1.382666  1.630046  0  2.88956  0
Lu  Lu1  1  0.57708732  0.20167561  0.50188511  1  0  1.851905  0  2.34404  0  0  1.676881  0  2.846217  0  0  1.742318  0  2.784054  0  0  1.382622  1.630091  0  2.889508  0
Lu  Lu2  1  0.07708956  0.29831842  0.49811335  1  0  1.851968  0  2.343838  0  0  1.676977  0  2.845961  0  0  1.742415  0  2.783801  0  0  1.382639  1.630196  0  2.889235  0
Lu  Lu3  1  0.42292077  0.70167162  0.99811658  1  0  1.851769  0  2.344234  0  0  1.676957  0  2.846097  0  0  1.742394  0  2.783909  0  0  1.382608  1.630163  0  2.889395  0
H  H4  1  0.23335641  0.67491713  0.69915732  1  0  0.087583  0  0.925789  0  0  0.098315  0  0.984054  0  0  0.100322  0  0.983387  0  0  0.10442  0.096881  0  0.984653  0
H  H5  1  0.26663852  0.32508351  0.19915402  1  0  0.087601  0  0.92583  0  0  0.098381  0  0.984025  0  0  0.100348  0  0.983401  0  0  0.104425  0.096952  0  0.984622  0
H  H6  1  0.76663913  0.17492111  0.80084247  1  0  0.087594  0  0.92577  0  0  0.098337  0  0.984016  0  0  0.100301  0  0.9834  0  0  0.104408  0.096907  0  0.984615  0
H  H7  1  0.73335796  0.82508112  0.30084323  1  0  0.087584  0  0.925794  0  0  0.09832  0  0.984041  0  0  0.100286  0  0.983422  0  0  0.104402  0.096891  0  0.984638  0
H  H8  1  0.56075663  0.98733257  0.89672712  1  0  0.031188  0  0.910462  0  0  0.040308  0  0.977795  0  0  0.040906  0  0.973224  0  0  0.128783  0.039499  0  0.981388  0
H  H9  1  0.93924933  0.01267896  0.39672288  1  0  0.031208  0  0.910431  0  0  0.040263  0  0.977826  0  0  0.040862  0  0.973255  0  0  0.128784  0.03946  0  0.981418  0
H  H10  1  0.43924476  0.48731749  0.60327505  1  0  0.031234  0  0.910449  0  0  0.040348  0  0.977792  0  0  0.040951  0  0.973216  0  0  0.128809  0.039542  0  0.981386  0
H  H11  1  0.06075502  0.51267385  0.10328219  1  0  0.031236  0  0.910505  0  0  0.040285  0  0.977906  0  0  0.040883  0  0.973337  0  0  0.128776  0.03948  0  0.9815  0
H  H12  1  0.97011790  0.69506546  0.64056923  1  0  0.069845  0  0.949932  0  0  0.087426  0  1.013147  0  0  0.088273  0  1.01343  0  0  0.089999  0.086777  0  1.01301  0
H  H13  1  0.52988021  0.30494217  0.14056798  1  0  0.070116  0  0.949844  0  0  0.08763  0  1.013088  0  0  0.088476  0  1.01337  0  0  0.090092  0.086981  0  1.012951  0
H  H14  1  0.02987769  0.19506114  0.85943386  1  0  0.06993  0  0.949876  0  0  0.087478  0  1.013121  0  0  0.088329  0  1.0134  0  0  0.090015  0.086828  0  1.012986  0
H  H15  1  0.47011871  0.80493315  0.35943278  1  0  0.069873  0  0.94989  0  0  0.087409  0  1.013151  0  0  0.088258  0  1.013432  0  0  0.09001  0.086762  0  1.013015  0
H  H16  1  0.90423592  0.79303412  0.73039403  1  0  0.080529  0  0.942275  0  0  0.098184  0  0.999906  0  0  0.100281  0  0.998893  0  0  0.093141  0.096628  0  1.000682  0
H  H17  1  0.59575857  0.20697165  0.23039538  1  0  0.080539  0  0.942348  0  0  0.098213  0  0.999916  0  0  0.100312  0  0.998898  0  0  0.093127  0.096655  0  1.000691  0
H  H18  1  0.09576119  0.29303270  0.76960785  1  0  0.080541  0  0.942329  0  0  0.098214  0  0.999915  0  0  0.100315  0  0.998897  0  0  0.093144  0.096655  0  1.000693  0
H  H19  1  0.40424008  0.70696440  0.26960796  1  0  0.080548  0  0.942297  0  0  0.098206  0  0.999899  0  0  0.100306  0  0.998883  0  0  0.09315  0.096648  0  1.000678  0
H  H20  1  0.97398235  0.97905606  0.65005370  1  0  0.073353  0  0.940517  0  0  0.090259  0  1.000138  0  0  0.091528  0  0.999712  0  0  0.091041  0.0892  0  1.000646  0
H  H21  1  0.52602576  0.02095054  0.15005672  1  0  0.073321  0  0.940574  0  0  0.090224  0  1.000199  0  0  0.091494  0  0.999772  0  0  0.091048  0.089161  0  1.000712  0
H  H22  1  0.02602151  0.47905183  0.84994715  1  0  0.073334  0  0.940537  0  0  0.090279  0  1.000131  0  0  0.091551  0  0.999703  0  0  0.091056  0.089216  0  1.000644  0
H  H23  1  0.47398486  0.52094350  0.34994695  1  0  0.073363  0  0.940495  0  0  0.090277  0  1.00009  0  0  0.091551  0  0.999657  0  0  0.091029  0.089203  0  1.000616  0
H  H24  1  0.94587455  0.88390511  0.55387684  1  0  0.070639  0  0.96027  0  0  0.088026  0  1.025802  0  0  0.088365  0  1.026725  0  0  0.090033  0.087733  0  1.02519  0
H  H25  1  0.55412968  0.11610156  0.05387799  1  0  0.070613  0  0.960269  0  0  0.088013  0  1.025824  0  0  0.088342  0  1.026758  0  0  0.090038  0.087719  0  1.025212  0
H  H26  1  0.05412531  0.38389898  0.94612522  1  0  0.070616  0  0.96029  0  0  0.088015  0  1.02585  0  0  0.08835  0  1.02678  0  0  0.09002  0.087722  0  1.025239  0
H  H27  1  0.44587870  0.61609254  0.44612516  1  0  0.070651  0  0.960303  0  0  0.088046  0  1.025805  0  0  0.088379  0  1.026737  0  0  0.090041  0.087753  0  1.025191  0
H  H28  1  0.49193068  0.75299592  0.64502274  1  0  0.091585  0  0.970267  0  0  0.112571  0  1.036325  0  0  0.113477  0  1.036829  0  0  0.083073  0.111881  0  1.036011  0
H  H29  1  0.00806541  0.24700061  0.14501840  1  0  0.091636  0  0.970183  0  0  0.112602  0  1.03627  0  0  0.11351  0  1.03677  0  0  0.083078  0.111911  0  1.035957  0
H  H30  1  0.50806631  0.25300174  0.85498003  1  0  0.091551  0  0.970239  0  0  0.112514  0  1.036345  0  0  0.11342  0  1.036848  0  0  0.083042  0.111823  0  1.036032  0
H  H31  1  0.99193086  0.74700648  0.35497859  1  0  0.091623  0  0.970185  0  0  0.112594  0  1.036275  0  0  0.1135  0  1.036779  0  0  0.083108  0.111904  0  1.035962  0
H  H32  1  0.51497413  0.80902897  0.75741965  1  0  0.101457  0  0.970156  0  0  0.118965  0  1.039018  0  0  0.120722  0  1.03874  0  0  0.086166  0.117696  0  1.039221  0
H  H33  1  0.98502664  0.19096528  0.25741446  1  0  0.101452  0  0.970195  0  0  0.118953  0  1.039052  0  0  0.120707  0  1.03878  0  0  0.08614  0.117687  0  1.039253  0
H  H34  1  0.48502427  0.30903405  0.74258281  1  0  0.101428  0  0.970114  0  0  0.118961  0  1.038952  0  0  0.120718  0  1.038676  0  0  0.086159  0.117695  0  1.039154  0
H  H35  1  0.01497322  0.69097176  0.24258081  1  0  0.10151  0  0.97013  0  0  0.119028  0  1.038979  0  0  0.120783  0  1.038701  0  0  0.086205  0.117757  0  1.039185  0
H  H36  1  0.55008500  0.91180446  0.66340424  1  0  0.118727  0  0.947305  0  0  0.1385  0  1.006491  0  0  0.140975  0  1.0054  0  0  0.092619  0.136708  0  1.00732  0
H  H37  1  0.94991688  0.08818984  0.16340095  1  0  0.118769  0  0.947252  0  0  0.138542  0  1.006432  0  0  0.141018  0  1.005341  0  0  0.09263  0.136749  0  1.007263  0
H  H38  1  0.44991493  0.41181132  0.83659699  1  0  0.118708  0  0.947286  0  0  0.138494  0  1.006462  0  0  0.140972  0  1.005366  0  0  0.092622  0.136703  0  1.007291  0
H  H39  1  0.05008893  0.58819632  0.33659692  1  0  0.118732  0  0.947332  0  0  0.13851  0  1.006512  0  0  0.14099  0  1.005415  0  0  0.092621  0.136717  0  1.007341  0
H  H40  1  0.14176878  0.01990762  0.76216911  1  0  0.110926  0  0.95216  0  0  0.133685  0  1.009483  0  0  0.135186  0  1.009737  0  0  0.091864  0.132574  0  1.009349  0
H  H41  1  0.35823496  0.98009236  0.26216907  1  0  0.110893  0  0.952185  0  0  0.133655  0  1.009506  0  0  0.135155  0  1.009758  0  0  0.091852  0.132543  0  1.009377  0
H  H42  1  0.85823006  0.51991170  0.73783085  1  0  0.110892  0  0.952229  0  0  0.133653  0  1.009543  0  0  0.135157  0  1.009795  0  0  0.09186  0.132543  0  1.009405  0
H  H43  1  0.64177068  0.48009118  0.23783005  1  0  0.110923  0  0.952183  0  0  0.133689  0  1.009494  0  0  0.135194  0  1.009746  0  0  0.091867  0.132576  0  1.009362  0
H  H44  1  0.34792825  0.06550403  0.73095593  1  0  0.111708  0  0.951418  0  0  0.133212  0  1.012033  0  0  0.135017  0  1.011866  0  0  0.093141  0.131872  0  1.01221  0
H  H45  1  0.15207171  0.93449628  0.23095538  1  0  0.111713  0  0.951436  0  0  0.133221  0  1.012049  0  0  0.135023  0  1.011885  0  0  0.093135  0.131882  0  1.012229  0
H  H46  1  0.65207197  0.56550653  0.76904175  1  0  0.111745  0  0.951385  0  0  0.133257  0  1.011983  0  0  0.135065  0  1.011816  0  0  0.093155  0.131914  0  1.012164  0
H  H47  1  0.84793380  0.43449603  0.26904196  1  0  0.111738  0  0.951409  0  0  0.133239  0  1.01202  0  0  0.135051  0  1.01185  0  0  0.093146  0.131899  0  1.012198  0
H  H48  1  0.31447068  0.96413251  0.82462607  1  0  0.094786  0  0.970142  0  0  0.114363  0  1.038177  0  0  0.115822  0  1.038131  0  0  0.08678  0.11328  0  1.038266  0
H  H49  1  0.18553191  0.03586589  0.32462567  1  0  0.094803  0  0.970163  0  0  0.11436  0  1.038208  0  0  0.115817  0  1.038166  0  0  0.086782  0.113289  0  1.038285  0
H  H50  1  0.68553189  0.46413579  0.67537351  1  0  0.094793  0  0.970182  0  0  0.114349  0  1.038226  0  0  0.115811  0  1.03818  0  0  0.086779  0.113273  0  1.038307  0
H  H51  1  0.81447126  0.53586961  0.17537316  1  0  0.094801  0  0.970144  0  0  0.114354  0  1.038195  0  0  0.115816  0  1.038149  0  0  0.086789  0.113283  0  1.038272  0
H  H52  1  0.39252599  0.81521908  0.50958796  1  0  0.109565  0  0.961485  0  0  0.130089  0  1.023913  0  0  0.131428  0  1.024433  0  0  0.093974  0.129064  0  1.023674  0
H  H53  1  0.10747366  0.18477604  0.00958739  1  0  0.109578  0  0.961584  0  0  0.130129  0  1.023957  0  0  0.131468  0  1.024481  0  0  0.09399  0.129106  0  1.023711  0
H  H54  1  0.60746744  0.31522646  0.99041176  1  0  0.109556  0  0.961642  0  0  0.130129  0  1.023959  0  0  0.131471  0  1.024478  0  0  0.093987  0.129106  0  1.023718  0
H  H55  1  0.89253242  0.68477473  0.49041266  1  0  0.109535  0  0.961611  0  0  0.13011  0  1.023947  0  0  0.131449  0  1.024472  0  0  0.093969  0.129083  0  1.023705  0
H  H56  1  0.19210710  0.82911311  0.45965440  1  0  0.097885  0  0.950052  0  0  0.120873  0  1.011005  0  0  0.121931  0  1.011386  0  0  0.088371  0.120078  0  1.010776  0
H  H57  1  0.30789194  0.17088576  0.95965368  1  0  0.097884  0  0.950094  0  0  0.120862  0  1.011046  0  0  0.121922  0  1.011425  0  0  0.088352  0.120069  0  1.010813  0
H  H58  1  0.80788316  0.32911611  0.04034623  1  0  0.097904  0  0.950078  0  0  0.120871  0  1.011038  0  0  0.121931  0  1.011418  0  0  0.088353  0.120075  0  1.010809  0
H  H59  1  0.69211606  0.67088040  0.54034478  1  0  0.097904  0  0.950065  0  0  0.120875  0  1.011029  0  0  0.121937  0  1.011408  0  0  0.088382  0.120081  0  1.010798  0
H  H60  1  0.22740993  0.71264046  0.54325689  1  0  0.11577  0  0.96774  0  0  0.134435  0  1.033978  0  0  0.136558  0  1.033281  0  0  0.09269  0.132899  0  1.034512  0
H  H61  1  0.27258602  0.28735712  0.04325380  1  0  0.115836  0  0.96774  0  0  0.134491  0  1.033972  0  0  0.136618  0  1.033282  0  0  0.092667  0.132955  0  1.034509  0
H  H62  1  0.77257822  0.21264469  0.95674746  1  0  0.115848  0  0.967852  0  0  0.134464  0  1.034111  0  0  0.136589  0  1.03342  0  0  0.092642  0.132928  0  1.034649  0
H  H63  1  0.72741909  0.78735216  0.45674570  1  0  0.115835  0  0.967795  0  0  0.134467  0  1.034038  0  0  0.136599  0  1.033342  0  0  0.092638  0.132932  0  1.034576  0
C  C64  1  0.17245389  0.75074353  0.82649907  1  0  0.751748  0  3.765772  0  0  0.695229  0  4.072493  0  0  0.731509  0  4.061224  0  0  0.250593  0.67039  0  4.079561  0
C  C65  1  0.32754247  0.24925391  0.32649960  1  0  0.751807  0  3.765726  0  0  0.695303  0  4.072409  0  0  0.731586  0  4.061128  0  0  0.25065  0.670465  0  4.079481  0
C  C66  1  0.82754186  0.25074705  0.67349964  1  0  0.751825  0  3.765641  0  0  0.69522  0  4.072493  0  0  0.731475  0  4.061233  0  0  0.250599  0.67038  0  4.079555  0
C  C67  1  0.67245880  0.74925650  0.17349806  1  0  0.751693  0  3.765765  0  0  0.695088  0  4.072641  0  0  0.731326  0  4.061405  0  0  0.250526  0.670255  0  4.07971  0
C  C68  1  0.17450625  0.76124527  0.72425329  1  0  -0.190467  0  3.562008  0  0  -0.19448  0  3.795147  0  0  -0.201774  0  3.808082  0  0  -0.083953  -0.189598  0  3.786409  0
C  C69  1  0.32549120  0.23875791  0.22425185  1  0  -0.190482  0  3.562094  0  0  -0.194535  0  3.795164  0  0  -0.201802  0  3.808083  0  0  -0.083972  -0.189659  0  3.786433  0
C  C70  1  0.82549077  0.26124960  0.77574875  1  0  -0.190574  0  3.561887  0  0  -0.194553  0  3.795011  0  0  -0.201816  0  3.807938  0  0  -0.083985  -0.189674  0  3.786272  0
C  C71  1  0.67450754  0.73875289  0.27574860  1  0  -0.19062  0  3.562003  0  0  -0.194564  0  3.795076  0  0  -0.20183  0  3.808019  0  0  -0.083985  -0.189684  0  3.786341  0
C  C72  1  0.66560986  0.93327008  0.92545829  1  0  0.59575  0  3.833484  0  0  0.521159  0  4.139489  0  0  0.55535  0  4.130365  0  0  0.16546  0.497899  0  4.1453  0
C  C73  1  0.83439739  0.06673460  0.42545711  1  0  0.595896  0  3.832885  0  0  0.521349  0  4.138877  0  0  0.555545  0  4.129742  0  0  0.165507  0.498083  0  4.144691  0
C  C74  1  0.33439512  0.43326731  0.57453873  1  0  0.595724  0  3.833267  0  0  0.521149  0  4.139265  0  0  0.555345  0  4.130145  0  0  0.165468  0.497883  0  4.145084  0
C  C75  1  0.16560461  0.56672526  0.07454223  1  0  0.595779  0  3.833202  0  0  0.521243  0  4.139202  0  0  0.55543  0  4.130081  0  0  0.165524  0.49797  0  4.145025  0
C  C76  1  0.00214881  0.77952183  0.67932266  1  0  -0.111491  0  3.640488  0  0  -0.16012  0  3.901897  0  0  -0.160219  0  3.913929  0  0  -0.167902  -0.15984  0  3.893533  0
C  C77  1  0.49784983  0.22048651  0.17932342  1  0  -0.111938  0  3.640706  0  0  -0.160487  0  3.902024  0  0  -0.160571  0  3.914025  0  0  -0.168065  -0.160194  0  3.893656  0
C  C78  1  0.99785076  0.27951940  0.82067929  1  0  -0.111606  0  3.6405  0  0  -0.160202  0  3.90187  0  0  -0.160298  0  3.913881  0  0  -0.167931  -0.159914  0  3.893501  0
C  C79  1  0.50215011  0.72047700  0.32067916  1  0  -0.111508  0  3.640511  0  0  -0.160124  0  3.901879  0  0  -0.160218  0  3.913888  0  0  -0.167954  -0.159838  0  3.893514  0
C  C80  1  0.28860368  0.87363865  0.69217335  1  0  0.181093  0  3.455854  0  0  0.21085  0  3.681638  0  0  0.211733  0  3.702228  0  0  0.00126  0.210273  0  3.667597  0
C  C81  1  0.21139997  0.12636206  0.19217179  1  0  0.181028  0  3.455876  0  0  0.210812  0  3.681606  0  0  0.211704  0  3.702183  0  0  0.001258  0.210229  0  3.66759  0
C  C82  1  0.71139864  0.37364247  0.80782604  1  0  0.181251  0  3.455781  0  0  0.211003  0  3.681526  0  0  0.211891  0  3.70211  0  0  0.001328  0.210425  0  3.66748  0
C  C83  1  0.78860221  0.62636156  0.30782654  1  0  0.181295  0  3.455801  0  0  0.211077  0  3.681501  0  0  0.211968  0  3.702083  0  0  0.001302  0.210498  0  3.667462  0
C  C84  1  0.01884031  0.89362616  0.61645778  1  0  -0.141791  0  3.653982  0  0  -0.189847  0  3.911957  0  0  -0.189852  0  3.924871  0  0  -0.166844  -0.189577  0  3.902955  0
C  C85  1  0.48116199  0.10637815  0.11645780  1  0  -0.14161  0  3.653885  0  0  -0.189722  0  3.911883  0  0  -0.189721  0  3.924799  0  0  -0.166801  -0.189449  0  3.902884  0
C  C86  1  0.98115833  0.39362399  0.88354423  1  0  -0.14171  0  3.653912  0  0  -0.189856  0  3.911954  0  0  -0.189863  0  3.924869  0  0  -0.166853  -0.189589  0  3.902951  0
C  C87  1  0.51884512  0.60637270  0.38354405  1  0  -0.141881  0  3.654037  0  0  -0.189897  0  3.911908  0  0  -0.189906  0  3.924824  0  0  -0.16684  -0.18962  0  3.902907  0
C  C88  1  0.47239849  0.83483751  0.68895534  1  0  -0.344791  0  3.678297  0  0  -0.428835  0  3.91901  0  0  -0.43199  0  3.92929  0  0  -0.248274  -0.426399  0  3.911833  0
C  C89  1  0.02760141  0.16515855  0.18895145  1  0  -0.344861  0  3.678186  0  0  -0.428878  0  3.918865  0  0  -0.432029  0  3.929141  0  0  -0.248261  -0.426444  0  3.911696  0
C  C90  1  0.52760123  0.33484195  0.81104631  1  0  -0.344717  0  3.678035  0  0  -0.428775  0  3.918761  0  0  -0.431927  0  3.929034  0  0  -0.248251  -0.426342  0  3.911592  0
C  C91  1  0.97239962  0.66516392  0.31104600  1  0  -0.344911  0  3.67819  0  0  -0.428965  0  3.918905  0  0  -0.432117  0  3.929176  0  0  -0.248349  -0.426526  0  3.911731  0
C  C92  1  0.20689348  0.90405364  0.59714339  1  0  -0.02802  0  3.536813  0  0  -0.002422  0  3.76385  0  0  -0.008384  0  3.7813  0  0  -0.011498  0.00158  0  3.751911  0
C  C93  1  0.29311003  0.09594431  0.09714203  1  0  -0.02799  0  3.536814  0  0  -0.00239  0  3.76389  0  0  -0.00835  0  3.78134  0  0  -0.011536  0.001613  0  3.75195  0
C  C94  1  0.79310518  0.40405753  0.90285652  1  0  -0.028153  0  3.536957  0  0  -0.002519  0  3.764021  0  0  -0.008482  0  3.781471  0  0  -0.011584  0.00148  0  3.752079  0
C  C95  1  0.70689705  0.59594738  0.40285783  1  0  -0.02809  0  3.53694  0  0  -0.002515  0  3.763986  0  0  -0.008476  0  3.781436  0  0  -0.011539  0.001487  0  3.752041  0
C  C96  1  0.27113021  0.98745294  0.75575872  1  0  -0.351288  0  3.656787  0  0  -0.435117  0  3.896644  0  0  -0.438618  0  3.907166  0  0  -0.246211  -0.432452  0  3.889347  0
C  C97  1  0.22887228  0.01254524  0.25575779  1  0  -0.351242  0  3.656871  0  0  -0.435063  0  3.896717  0  0  -0.438557  0  3.907237  0  0  -0.246167  -0.432407  0  3.889422  0
C  C98  1  0.72887118  0.48745651  0.74424141  1  0  -0.351334  0  3.656926  0  0  -0.435144  0  3.896774  0  0  -0.438659  0  3.907298  0  0  -0.246226  -0.432485  0  3.889473  0
C  C99  1  0.77113207  0.51254631  0.24424117  1  0  -0.35138  0  3.656818  0  0  -0.435194  0  3.896656  0  0  -0.438709  0  3.907178  0  0  -0.246217  -0.432538  0  3.889351  0
C  C100  1  0.25845343  0.80894477  0.52341142  1  0  -0.32113  0  3.647221  0  0  -0.404395  0  3.885928  0  0  -0.407029  0  3.896647  0  0  -0.240041  -0.402294  0  3.878523  0
C  C101  1  0.24154623  0.19105114  0.02340952  1  0  -0.321229  0  3.647425  0  0  -0.404504  0  3.88611  0  0  -0.407149  0  3.896837  0  0  -0.24001  -0.402401  0  3.878699  0
C  C102  1  0.74153998  0.30894875  0.97658900  1  0  -0.321199  0  3.647588  0  0  -0.404432  0  3.886212  0  0  -0.407078  0  3.896942  0  0  -0.239967  -0.402332  0  3.878808  0
C  C103  1  0.75846111  0.69105071  0.47658982  1  0  -0.321157  0  3.647479  0  0  -0.404433  0  3.886165  0  0  -0.407088  0  3.896895  0  0  -0.239999  -0.402331  0  3.878758  0
C  C104  1  0.25726210  0.03081171  0.55864679  1  0  0.722362  0  3.746428  0  0  0.670088  0  4.041223  0  0  0.705619  0  4.03124  0  0  0.252572  0.645754  0  4.047414  0
C  C105  1  0.24273886  0.96918196  0.05865084  1  0  0.722258  0  3.746501  0  0  0.669905  0  4.041441  0  0  0.705434  0  4.03146  0  0  0.252582  0.645574  0  4.047625  0
C  C106  1  0.74274052  0.53081911  0.94134971  1  0  0.722316  0  3.74656  0  0  0.669981  0  4.041484  0  0  0.705512  0  4.031501  0  0  0.252601  0.64565  0  4.047667  0
C  C107  1  0.75725926  0.46918446  0.44135446  1  0  0.722309  0  3.746499  0  0  0.670009  0  4.041348  0  0  0.70554  0  4.031368  0  0  0.252608  0.645679  0  4.047529  0
O  O108  1  0.14395263  0.68445895  0.05806438  1  0  -0.683069  0  2.162019  0  0  -0.609243  0  2.421154  0  0  -0.639734  0  2.410113  0  0  -0.404693  -0.587734  0  2.427929  0
O  O109  1  0.35604833  0.31553473  0.55806561  1  0  -0.683083  0  2.16212  0  0  -0.609278  0  2.421314  0  0  -0.639787  0  2.410283  0  0  -0.404709  -0.587786  0  2.428109  0
O  O110  1  0.85604471  0.18446253  0.44193568  1  0  -0.683094  0  2.162091  0  0  -0.609253  0  2.421216  0  0  -0.639733  0  2.410156  0  0  -0.40471  -0.587759  0  2.428026  0
O  O111  1  0.64395009  0.81553916  0.94193410  1  0  -0.683054  0  2.162133  0  0  -0.609244  0  2.421297  0  0  -0.63973  0  2.410252  0  0  -0.404683  -0.587737  0  2.428065  0
O  O112  1  0.04730977  0.79142861  0.87064380  1  0  -0.683235  0  2.077628  0  0  -0.618511  0  2.335017  0  0  -0.647727  0  2.322749  0  0  -0.390545  -0.598126  0  2.342954  0
O  O113  1  0.45267666  0.20855339  0.37064733  1  0  -0.683259  0  2.077695  0  0  -0.618551  0  2.335086  0  0  -0.647774  0  2.322819  0  0  -0.390557  -0.598164  0  2.34302  0
O  O114  1  0.95268733  0.29144308  0.62935808  1  0  -0.683316  0  2.07761  0  0  -0.618592  0  2.335069  0  0  -0.647814  0  2.322812  0  0  -0.390548  -0.5982  0  2.342995  0
O  O115  1  0.54730577  0.70855718  0.12935532  1  0  -0.683149  0  2.077508  0  0  -0.618468  0  2.334973  0  0  -0.647658  0  2.322699  0  0  -0.390439  -0.598083  0  2.342915  0
O  O116  1  0.30363721  0.51557348  0.05872074  1  0  -0.554969  0  1.98438  0  0  -0.500608  0  2.218959  0  0  -0.525545  0  2.210123  0  0  -0.327498  -0.483423  0  2.224653  0
O  O117  1  0.19635876  0.48442394  0.55872031  1  0  -0.55493  0  1.984379  0  0  -0.500551  0  2.218985  0  0  -0.525493  0  2.210153  0  0  -0.327479  -0.48337  0  2.224673  0
O  O118  1  0.69635343  0.01558525  0.44127344  1  0  -0.555095  0  1.984166  0  0  -0.500665  0  2.218689  0  0  -0.525636  0  2.209874  0  0  -0.327516  -0.483493  0  2.224381  0
O  O119  1  0.80363513  0.98442114  0.94128052  1  0  -0.554945  0  1.984689  0  0  -0.500558  0  2.219288  0  0  -0.525506  0  2.210465  0  0  -0.327502  -0.483381  0  2.224977  0
O  O120  1  0.35635444  0.89851863  0.02635595  1  0  -0.696625  0  2.094496  0  0  -0.63821  0  2.359771  0  0  -0.667397  0  2.348953  0  0  -0.387901  -0.61776  0  2.366606  0
O  O121  1  0.14364648  0.10147538  0.52635011  1  0  -0.696716  0  2.094438  0  0  -0.638323  0  2.359744  0  0  -0.66751  0  2.348932  0  0  -0.387921  -0.617862  0  2.36658  0
O  O122  1  0.64364724  0.39852062  0.47365177  1  0  -0.696666  0  2.094439  0  0  -0.63828  0  2.359798  0  0  -0.667462  0  2.348984  0  0  -0.387964  -0.617822  0  2.366629  0
O  O123  1  0.85634885  0.60148636  0.97364397  1  0  -0.696644  0  2.094641  0  0  -0.63819  0  2.359913  0  0  -0.667379  0  2.349095  0  0  -0.387881  -0.617728  0  2.366744  0
O  O124  1  0.58817121  0.55712632  0.94444067  1  0  -0.667425  0  2.084729  0  0  -0.600046  0  2.332219  0  0  -0.62895  0  2.320626  0  0  -0.385871  -0.579883  0  2.339693  0
O  O125  1  0.91182608  0.44287347  0.44444019  1  0  -0.66743  0  2.084684  0  0  -0.599998  0  2.332118  0  0  -0.628909  0  2.320552  0  0  -0.385822  -0.579836  0  2.339587  0
O  O126  1  0.41182649  0.05712013  0.55555909  1  0  -0.667475  0  2.084622  0  0  -0.600027  0  2.331997  0  0  -0.62893  0  2.32044  0  0  -0.385832  -0.579862  0  2.339475  0
O  O127  1  0.08817322  0.94286983  0.05556254  1  0  -0.667428  0  2.084785  0  0  -0.599941  0  2.3322  0  0  -0.628857  0  2.320647  0  0  -0.385864  -0.579772  0  2.339675  0
O  O128  1  0.30091437  0.70388128  0.86525308  1  0  -0.693959  0  2.034341  0  0  -0.631558  0  2.292028  0  0  -0.660041  0  2.278571  0  0  -0.397392  -0.61164  0  2.300781  0
O  O129  1  0.19908329  0.29612232  0.36525195  1  0  -0.694024  0  2.034396  0  0  -0.631605  0  2.292087  0  0  -0.6601  0  2.278645  0  0  -0.397443  -0.611689  0  2.300842  0
O  O130  1  0.69909372  0.20388032  0.63474452  1  0  -0.694007  0  2.034422  0  0  -0.631518  0  2.292116  0  0  -0.659997  0  2.278698  0  0  -0.397392  -0.611604  0  2.300868  0
O  O131  1  0.80090064  0.79611989  0.13474478  1  0  -0.693891  0  2.034725  0  0  -0.631468  0  2.292497  0  0  -0.659947  0  2.279094  0  0  -0.397419  -0.611554  0  2.30125  0
