# generated using pymatgen
data_CsH2C3(SN)3
_symmetry_space_group_name_H-M   'P 1'
_cell_length_a   5.03154604
_cell_length_b   8.02270294
_cell_length_c   10.87129755
_cell_angle_alpha   96.98491066
_cell_angle_beta   102.34971699
_cell_angle_gamma   103.97442139
_symmetry_Int_Tables_number   1
_chemical_formula_structural   CsH2C3(SN)3
_chemical_formula_sum   'Cs2 H4 C6 S6 N6'
_cell_volume   408.98812765
_cell_formula_units_Z   2
loop_
 _symmetry_equiv_pos_site_id
 _symmetry_equiv_pos_as_xyz
  1  'x, y, z'
loop_
 _atom_site_type_symbol
 _atom_site_label
 _atom_site_symmetry_multiplicity
 _atom_site_fract_x
 _atom_site_fract_y
 _atom_site_fract_z
 _atom_site_occupancy
 _atom_site_hle17_bader_spin_density
 _atom_site_hle17_ddec_charge
 _atom_site_hle17_ddec_spin_density
 _atom_site_hle17_ddec_sum_bond_order
 _atom_site_hle17_magmom
 _atom_site_hse06_10hf_bader_spin_density
 _atom_site_hse06_10hf_ddec_charge
 _atom_site_hse06_10hf_ddec_spin_density
 _atom_site_hse06_10hf_ddec_sum_bond_order
 _atom_site_hse06_10hf_magmom
 _atom_site_hse06_bader_spin_density
 _atom_site_hse06_ddec_charge
 _atom_site_hse06_ddec_spin_density
 _atom_site_hse06_ddec_sum_bond_order
 _atom_site_hse06_magmom
 _atom_site_pbe_bader_spin_density
 _atom_site_pbe_cm5_charge
 _atom_site_pbe_ddec_charge
 _atom_site_pbe_ddec_spin_density
 _atom_site_pbe_ddec_sum_bond_order
 _atom_site_pbe_magmom
Cs  Cs0  1  0.35499978  0.21686123  0.42364560  1  0  0.842563  0  0.687831  0  0  0.770887  0  0.960664  0  0  0.785157  0  0.942297  0  0  0.659641  0.760433  0  0.973886  0
Cs  Cs1  1  0.64500436  0.78313892  0.57635542  1  0  0.84257  0  0.687806  0  0  0.770885  0  0.96065  0  0  0.78516  0  0.942273  0  0  0.659636  0.76043  0  0.973872  0
H  H2  1  0.31358277  0.45735750  0.88137698  1  0  0.28835  0  0.937824  0  0  0.265793  0  1.014496  0  0  0.2755  0  1.006861  0  0  0.276942  0.258834  0  1.020263  0
H  H3  1  0.68642073  0.54264135  0.11862662  1  0  0.288368  0  0.93782  0  0  0.265795  0  1.014523  0  0  0.275502  0  1.006897  0  0  0.27694  0.258837  0  1.020292  0
H  H4  1  0.73949942  0.12136701  0.01692802  1  0  0.290407  0  0.939631  0  0  0.266671  0  1.017316  0  0  0.276578  0  1.009517  0  0  0.275493  0.259725  0  1.022818  0
H  H5  1  0.26049953  0.87863051  0.98306948  1  0  0.290487  0  0.939482  0  0  0.266701  0  1.017208  0  0  0.276607  0  1.009412  0  0  0.275528  0.259755  0  1.022712  0
C  C6  1  0.93913263  0.32038786  0.74531910  1  0  0.489183  0  3.815453  0  0  0.454375  0  4.10736  0  0  0.482541  0  4.112325  0  0  0.234703  0.43573  0  4.103146  0
C  C7  1  0.06087006  0.67961358  0.25468188  1  0  0.489221  0  3.815424  0  0  0.454408  0  4.107344  0  0  0.482575  0  4.112307  0  0  0.234716  0.435764  0  4.103133  0
C  C8  1  0.61566888  0.12659980  0.82079138  1  0  0.475336  0  3.805268  0  0  0.44189  0  4.09724  0  0  0.470051  0  4.101885  0  0  0.222519  0.4231  0  4.092911  0
C  C9  1  0.38433182  0.87340164  0.17920664  1  0  0.475535  0  3.80531  0  0  0.442  0  4.0974  0  0  0.470163  0  4.102041  0  0  0.222552  0.423208  0  4.093077  0
C  C10  1  0.06075269  0.29245719  0.96782009  1  0  0.475545  0  3.782051  0  0  0.430352  0  4.07935  0  0  0.458656  0  4.08542  0  0  0.241989  0.411776  0  4.074406  0
C  C11  1  0.93924939  0.70754295  0.03218164  1  0  0.475543  0  3.782017  0  0  0.430349  0  4.079305  0  0  0.458651  0  4.085373  0  0  0.241995  0.411773  0  4.074361  0
S  S12  1  0.03615649  0.42731514  0.63058437  1  0  -0.571116  0  1.996182  0  0  -0.543124  0  2.335787  0  0  -0.559691  0  2.329979  0  0  -0.301382  -0.531909  0  2.338425  0
S  S13  1  0.96384157  0.57268499  0.36941418  1  0  -0.571114  0  1.996204  0  0  -0.543112  0  2.335798  0  0  -0.559676  0  2.32999  0  0  -0.30137  -0.531896  0  2.338438  0
S  S14  1  0.30691038  0.97291565  0.80059180  1  0  -0.503018  0  1.975708  0  0  -0.492969  0  2.311456  0  0  -0.509652  0  2.306689  0  0  -0.244409  -0.481367  0  2.314472  0
S  S15  1  0.69308972  0.02708448  0.19940696  1  0  -0.503045  0  1.97571  0  0  -0.492986  0  2.311506  0  0  -0.509667  0  2.306741  0  0  -0.244403  -0.481383  0  2.314525  0
S  S16  1  0.29082612  0.33962602  0.11079987  1  0  -0.400137  0  1.944617  0  0  -0.394192  0  2.275854  0  0  -0.408828  0  2.272749  0  0  -0.186266  -0.384004  0  2.277346  0
S  S17  1  0.70916870  0.66037151  0.88919996  1  0  -0.400139  0  1.944562  0  0  -0.394204  0  2.275783  0  0  -0.408839  0  2.272676  0  0  -0.186282  -0.384013  0  2.277274  0
N  N18  1  0.12034725  0.36428754  0.86622111  1  0  -0.410166  0  3.372964  0  0  -0.33988  0  3.600659  0  0  -0.364041  0  3.607836  0  0  -0.374461  -0.32474  0  3.595867  0
N  N19  1  0.87965282  0.63571261  0.13377949  1  0  -0.41017  0  3.373018  0  0  -0.33987  0  3.60069  0  0  -0.364037  0  3.607872  0  0  -0.374435  -0.324729  0  3.595899  0
N  N20  1  0.69065004  0.19625396  0.72220594  1  0  -0.566698  0  3.069506  0  0  -0.520065  0  3.352681  0  0  -0.542909  0  3.359418  0  0  -0.431641  -0.504144  0  3.347548  0
N  N21  1  0.30935007  0.80374617  0.27779191  1  0  -0.56684  0  3.069626  0  0  -0.520181  0  3.352847  0  0  -0.543028  0  3.359587  0  0  -0.431703  -0.504261  0  3.347717  0
N  N22  1  0.79787941  0.17847790  0.94212909  1  0  -0.41026  0  3.342109  0  0  -0.339735  0  3.570131  0  0  -0.363364  0  3.576158  0  0  -0.373136  -0.323434  0  3.565459  0
N  N23  1  0.20212069  0.82152224  0.05786967  1  0  -0.410402  0  3.341923  0  0  -0.339785  0  3.569996  0  0  -0.363409  0  3.576014  0  0  -0.373167  -0.323484  0  3.565324  0
