# generated using pymatgen
data_CdH18C22(NO)4
_symmetry_space_group_name_H-M   'P 1'
_cell_length_a   8.29505839
_cell_length_b   18.71733271
_cell_length_c   18.71731924
_cell_angle_alpha   90.00035671
_cell_angle_beta   90.00001297
_cell_angle_gamma   90.00002053
_symmetry_Int_Tables_number   1
_chemical_formula_structural   CdH18C22(NO)4
_chemical_formula_sum   'Cd4 H72 C88 N16 O16'
_cell_volume   2906.07658316
_cell_formula_units_Z   4
loop_
 _symmetry_equiv_pos_site_id
 _symmetry_equiv_pos_as_xyz
  1  'x, y, z'
loop_
 _atom_site_type_symbol
 _atom_site_label
 _atom_site_symmetry_multiplicity
 _atom_site_fract_x
 _atom_site_fract_y
 _atom_site_fract_z
 _atom_site_occupancy
 _atom_site_pbe_bader_charge
 _atom_site_pbe_bader_spin_density
 _atom_site_pbe_cm5_charge
 _atom_site_pbe_ddec_charge
 _atom_site_pbe_ddec_spin_density
 _atom_site_pbe_ddec_sum_bond_order
 _atom_site_pbe_magmom
Cd  Cd0  1  0.00000138  0.26516788  0.26516700  1  1.238344  0  0.770117  0.858689  0  2.174919  0
Cd  Cd1  1  0.99999687  0.23483293  0.76516591  1  1.238347  0  0.77011  0.858638  0  2.175014  0
Cd  Cd2  1  0.00000169  0.73483348  0.73483401  1  1.238351  0  0.770108  0.858675  0  2.174985  0
Cd  Cd3  1  0.99999936  0.76516699  0.23483414  1  1.238359  0  0.770097  0.858656  0  2.174964  0
H  H4  1  0.07781046  0.62265749  0.12561234  1  0.108389  0  0.118726  0.114974  0  1.009038  0
H  H5  1  0.07781157  0.37438813  0.12265495  1  0.10841  0  0.118699  0.114879  0  1.009084  0
H  H6  1  0.07780935  0.37734389  0.87438547  1  0.108463  0  0.118696  0.114898  0  1.008989  0
H  H7  1  0.07781307  0.62561431  0.87734500  1  0.10842  0  0.118689  0.114869  0  1.009021  0
H  H8  1  0.92219136  0.12265760  0.37438577  1  0.108435  0  0.118745  0.114989  0  1.008984  0
H  H9  1  0.92218932  0.87734231  0.62561213  1  0.108385  0  0.118725  0.114947  0  1.009047  0
H  H10  1  0.92218902  0.12561232  0.62265638  1  0.108401  0  0.118719  0.114933  0  1.009036  0
H  H11  1  0.92219408  0.87438759  0.37734366  1  0.108442  0  0.1187  0.114907  0  1.009018  0
H  H12  1  0.86902606  0.50571137  0.11448543  1  0.114958  0  0.120251  0.116915  0  1.024921  0
H  H13  1  0.86901996  0.38551335  0.00571093  1  0.11478  0  0.120253  0.116909  0  1.024954  0
H  H14  1  0.86902143  0.49428853  0.88551461  1  0.114932  0  0.120261  0.116925  0  1.024912  0
H  H15  1  0.86902271  0.61448655  0.99428804  1  0.114992  0  0.120274  0.11695  0  1.024911  0
H  H16  1  0.13097567  0.00571143  0.38551196  1  0.114791  0  0.120214  0.116857  0  1.024816  0
H  H17  1  0.13097613  0.99428782  0.61448533  1  0.114978  0  0.120268  0.116933  0  1.024899  0
H  H18  1  0.13097695  0.11448478  0.50571114  1  0.1149  0  0.120247  0.116909  0  1.024973  0
H  H19  1  0.13097846  0.88551447  0.49428936  1  0.114766  0  0.120247  0.116907  0  1.024943  0
H  H20  1  0.60237101  0.61107636  0.31889001  1  0.05927  0  0.099629  0.144787  0  1.020267  0
H  H21  1  0.60237199  0.18111060  0.11107633  1  0.059284  0  0.09961  0.144759  0  1.020288  0
H  H22  1  0.60236860  0.38892350  0.68110839  1  0.059073  0  0.099613  0.144767  0  1.020308  0
H  H23  1  0.60237245  0.81888979  0.88892475  1  0.059271  0  0.099631  0.144801  0  1.02027  0
H  H24  1  0.39763322  0.11107839  0.18110910  1  0.059075  0  0.099615  0.144782  0  1.020275  0
H  H25  1  0.39762766  0.88892464  0.81888982  1  0.0591  0  0.099628  0.14479  0  1.020285  0
H  H26  1  0.39762979  0.31888978  0.61107570  1  0.05926  0  0.099621  0.144773  0  1.020276  0
H  H27  1  0.39763229  0.68111058  0.38892429  1  0.059065  0  0.099614  0.144748  0  1.020303  0
H  H28  1  0.69716965  0.69649343  0.31175304  1  0.119019  0  0.103776  0.165862  0  1.021857  0
H  H29  1  0.69716942  0.18824811  0.19649457  1  0.11899  0  0.103828  0.165957  0  1.021755  0
H  H30  1  0.69716597  0.30350591  0.68824697  1  0.118996  0  0.103798  0.165882  0  1.021882  0
H  H31  1  0.69716982  0.81175337  0.80350705  1  0.119043  0  0.103784  0.165893  0  1.021795  0
H  H32  1  0.30283464  0.19649495  0.18824767  1  0.118982  0  0.103815  0.165936  0  1.021767  0
H  H33  1  0.30283022  0.80350753  0.81175284  1  0.119049  0  0.103776  0.165876  0  1.021832  0
H  H34  1  0.30283120  0.31175174  0.69649335  1  0.119043  0  0.103777  0.165883  0  1.021826  0
H  H35  1  0.30283367  0.68824754  0.30350662  1  0.119027  0  0.10376  0.165886  0  1.021822  0
H  H36  1  0.79388987  0.62548239  0.35858485  1  0.056335  0  0.105931  0.156345  0  0.967547  0
H  H37  1  0.79389203  0.14141644  0.12548212  1  0.056354  0  0.105933  0.156347  0  0.967496  0
H  H38  1  0.79388864  0.37451696  0.64141464  1  0.056342  0  0.105918  0.156309  0  0.967511  0
H  H39  1  0.79389251  0.85858452  0.87452004  1  0.056348  0  0.105969  0.156413  0  0.967492  0
H  H40  1  0.20611437  0.12548361  0.14141488  1  0.056475  0  0.105943  0.156352  0  0.967479  0
H  H41  1  0.20610882  0.87451939  0.85858509  1  0.056354  0  0.10592  0.156328  0  0.967515  0
H  H42  1  0.20610976  0.35858404  0.62548226  1  0.056336  0  0.105927  0.156339  0  0.967569  0
H  H43  1  0.20611222  0.64141522  0.37451825  1  0.056394  0  0.105936  0.15634  0  0.96745  0
H  H44  1  0.45012129  0.59215076  0.20729865  1  0.09768  0  0.10873  0.12026  0  1.001578  0
H  H45  1  0.45011512  0.29270015  0.09215195  1  0.097634  0  0.108699  0.120222  0  1.001613  0
H  H46  1  0.45011293  0.40785068  0.79270188  1  0.097482  0  0.108723  0.120233  0  1.001621  0
H  H47  1  0.45011670  0.70729702  0.90784804  1  0.097633  0  0.108684  0.120226  0  1.001566  0
H  H48  1  0.54988051  0.09215030  0.29270088  1  0.097669  0  0.108711  0.120212  0  1.001632  0
H  H49  1  0.54987853  0.90784955  0.70729859  1  0.097667  0  0.10874  0.120246  0  1.001604  0
H  H50  1  0.54988184  0.20729745  0.59215118  1  0.097657  0  0.108704  0.12026  0  1.001561  0
H  H51  1  0.54988444  0.79270080  0.40785096  1  0.097505  0  0.108744  0.120254  0  1.001595  0
H  H52  1  0.22062318  0.50747048  0.23095133  1  0.11203  0  0.101661  0.105846  0  1.019886  0
H  H53  1  0.22061700  0.26904799  0.00747040  1  0.111838  0  0.101651  0.105791  0  1.019845  0
H  H54  1  0.22061608  0.49253199  0.76904811  1  0.112015  0  0.101676  0.105823  0  1.019871  0
H  H55  1  0.22061623  0.73094967  0.99252850  1  0.112116  0  0.101644  0.1058  0  1.019876  0
H  H56  1  0.77938337  0.00747045  0.26904981  1  0.111841  0  0.101648  0.105804  0  1.019866  0
H  H57  1  0.77937907  0.99252891  0.73095235  1  0.111871  0  0.101649  0.10583  0  1.019879  0
H  H58  1  0.77938232  0.23095015  0.50747033  1  0.112  0  0.101656  0.105825  0  1.019844  0
H  H59  1  0.77938012  0.76904654  0.49253237  1  0.111884  0  0.101659  0.105814  0  1.019887  0
H  H60  1  0.55792996  0.33325182  0.24748095  1  0.146881  0  0.10458  0.1174  0  1.037668  0
H  H61  1  0.55792647  0.25251885  0.83325262  1  0.146859  0  0.104593  0.117415  0  1.037719  0
H  H62  1  0.55793023  0.66674589  0.75251585  1  0.14695  0  0.104564  0.1174  0  1.037721  0
H  H63  1  0.55792529  0.74748420  0.16674632  1  0.146965  0  0.104578  0.117434  0  1.037707  0
H  H64  1  0.44207203  0.83325149  0.25251741  1  0.146709  0  0.10461  0.117441  0  1.037585  0
H  H65  1  0.44207189  0.16674727  0.74748258  1  0.146722  0  0.104574  0.117398  0  1.037712  0
H  H66  1  0.44207182  0.24748131  0.33325204  1  0.146712  0  0.10459  0.117422  0  1.037638  0
H  H67  1  0.44206969  0.75251745  0.66674955  1  0.146675  0  0.104591  0.117399  0  1.037625  0
H  H68  1  0.78706401  0.41811484  0.22926548  1  0.126951  0  0.10963  0.127764  0  1.009556  0
H  H69  1  0.78706051  0.27073487  0.91811633  1  0.126974  0  0.109643  0.12776  0  1.009523  0
H  H70  1  0.78706421  0.58188345  0.77073402  1  0.12699  0  0.109631  0.127733  0  1.009539  0
H  H71  1  0.78706048  0.72926715  0.08188369  1  0.127011  0  0.109652  0.127779  0  1.009473  0
H  H72  1  0.21293565  0.91811565  0.27073181  1  0.126966  0  0.109618  0.127711  0  1.009553  0
H  H73  1  0.21293663  0.08188521  0.72926442  1  0.126911  0  0.109634  0.127752  0  1.009561  0
H  H74  1  0.21293903  0.22926475  0.41811616  1  0.127004  0  0.109643  0.127782  0  1.009529  0
H  H75  1  0.21293808  0.77073291  0.58188542  1  0.12697  0  0.109638  0.127753  0  1.009512  0
C  C76  1  0.97654073  0.60704540  0.15870629  1  0.438691  0  -0.006719  -0.031617  0  4.060383  0
C  C77  1  0.97653940  0.34129370  0.10704422  1  0.438826  0  -0.006573  -0.031298  0  4.060514  0
C  C78  1  0.97653841  0.39295559  0.84129215  1  0.43886  0  -0.006655  -0.031446  0  4.060242  0
C  C79  1  0.97654214  0.65870782  0.89295636  1  0.43881  0  -0.006623  -0.03135  0  4.060401  0
C  C80  1  0.02346109  0.10704570  0.34129280  1  0.438789  0  -0.006705  -0.031596  0  4.060217  0
C  C81  1  0.02345907  0.89295460  0.65870608  1  0.438695  0  -0.006656  -0.03146  0  4.060472  0
C  C82  1  0.02345876  0.15870666  0.60704362  1  0.438811  0  -0.006628  -0.031445  0  4.060567  0
C  C83  1  0.02346260  0.84129364  0.39295526  1  0.438691  0  -0.006612  -0.031355  0  4.060442  0
C  C84  1  0.87455830  0.54993734  0.15174464  1  0.276156  0  -0.004827  -0.112551  0  3.962298  0
C  C85  1  0.87455337  0.34825551  0.04993670  1  0.276284  0  -0.004821  -0.112593  0  3.962315  0
C  C86  1  0.87455241  0.45006310  0.84825486  1  0.276154  0  -0.00485  -0.112652  0  3.962274  0
C  C87  1  0.87455493  0.65174546  0.95006280  1  0.276103  0  -0.004843  -0.112654  0  3.962261  0
C  C88  1  0.12544588  0.04993770  0.34825409  1  0.276203  0  -0.004797  -0.112533  0  3.962139  0
C  C89  1  0.12544391  0.95006209  0.65174480  1  0.276137  0  -0.004848  -0.112581  0  3.962306  0
C  C90  1  0.12544356  0.15174396  0.54993607  1  0.276117  0  -0.004858  -0.112649  0  3.962278  0
C  C91  1  0.12544864  0.84825582  0.45006336  1  0.276291  0  -0.00485  -0.112676  0  3.962355  0
C  C92  1  0.79940517  0.61637284  0.24514818  1  0.970889  0  0.226156  0.361303  0  3.915397  0
C  C93  1  0.79940258  0.25485244  0.11637273  1  0.970915  0  0.226169  0.361337  0  3.915395  0
C  C94  1  0.79940159  0.38362652  0.75485132  1  0.971414  0  0.226173  0.361258  0  3.915407  0
C  C95  1  0.79940539  0.74514852  0.88362730  1  0.970693  0  0.22612  0.361256  0  3.915398  0
C  C96  1  0.20060027  0.11637369  0.25485150  1  0.971402  0  0.226209  0.361222  0  3.915405  0
C  C97  1  0.20059467  0.88362770  0.74514846  1  0.97131  0  0.226156  0.361367  0  3.915345  0
C  C98  1  0.20059679  0.24514744  0.61637269  1  0.970508  0  0.22617  0.361264  0  3.915338  0
C  C99  1  0.20059694  0.75485129  0.38362781  1  0.970907  0  0.22614  0.361248  0  3.915429  0
C  C100  1  0.71777708  0.63857439  0.31222569  1  -0.058668  0  -0.231253  -0.477417  0  3.938825  0
C  C101  1  0.71777806  0.18777564  0.13857495  1  -0.058711  0  -0.23132  -0.47754  0  3.938784  0
C  C102  1  0.71777465  0.36142496  0.68777380  1  -0.058736  0  -0.231255  -0.477389  0  3.938897  0
C  C103  1  0.71777850  0.81222584  0.86142667  1  -0.058703  0  -0.231297  -0.477531  0  3.938756  0
C  C104  1  0.28222717  0.13857591  0.18777413  1  -0.058866  0  -0.231327  -0.477526  0  3.938777  0
C  C105  1  0.28222159  0.86142657  0.81222531  1  -0.058704  0  -0.231267  -0.47746  0  3.938796  0
C  C106  1  0.28222253  0.31222598  0.63857374  1  -0.058732  0  -0.231255  -0.477433  0  3.938812  0
C  C107  1  0.28222502  0.68777489  0.36142624  1  -0.058763  0  -0.23124  -0.477417  0  3.938762  0
C  C108  1  0.63005731  0.50917477  0.21764336  1  0.260438  0  0.092463  0.17299  0  4.025499  0
C  C109  1  0.63005234  0.28235602  0.00917637  1  0.260491  0  0.092441  0.172916  0  4.02549  0
C  C110  1  0.63005503  0.49082402  0.78235558  1  0.260479  0  0.092439  0.172858  0  4.025601  0
C  C111  1  0.63005277  0.71764438  0.99082364  1  0.260499  0  0.092412  0.172873  0  4.025506  0
C  C112  1  0.36994563  0.00917529  0.28235512  1  0.260522  0  0.092461  0.172916  0  4.025559  0
C  C113  1  0.36994252  0.99082453  0.71764540  1  0.260503  0  0.092461  0.17296  0  4.02556  0
C  C114  1  0.36994698  0.21764213  0.50917564  1  0.260533  0  0.092395  0.172874  0  4.025519  0
C  C115  1  0.36994600  0.78235555  0.49082648  1  0.260188  0  0.092486  0.17292  0  4.025505  0
C  C116  1  0.47215608  0.53559038  0.21750453  1  -0.052298  0  -0.091827  -0.176886  0  3.997399  0
C  C117  1  0.47214990  0.28249392  0.03559147  1  -0.052596  0  -0.091802  -0.176805  0  3.997373  0
C  C118  1  0.47215017  0.46440999  0.78249547  1  -0.052352  0  -0.091832  -0.176794  0  3.997278  0
C  C119  1  0.47214911  0.71750431  0.96440853  1  -0.052352  0  -0.091759  -0.176789  0  3.997278  0
C  C120  1  0.52784809  0.03559146  0.28249465  1  -0.052596  0  -0.091821  -0.176809  0  3.997278  0
C  C121  1  0.52784375  0.96440838  0.71750642  1  -0.052551  0  -0.09181  -0.176834  0  3.99737  0
C  C122  1  0.52784943  0.21750225  0.53559076  1  -0.052329  0  -0.091788  -0.176829  0  3.997178  0
C  C123  1  0.52784844  0.78249492  0.46441085  1  -0.052039  0  -0.091887  -0.176826  0  3.997243  0
C  C124  1  0.34504545  0.48858158  0.22980154  1  -0.063039  0  -0.083986  -0.081207  0  3.980611  0
C  C125  1  0.34504314  0.27019652  0.98858206  1  -0.062676  0  -0.084003  -0.081189  0  3.980668  0
C  C126  1  0.34504198  0.51141931  0.77019684  1  -0.062859  0  -0.08398  -0.081202  0  3.980621  0
C  C127  1  0.34504187  0.72980170  0.01141685  1  -0.063224  0  -0.083999  -0.081197  0  3.980646  0
C  C128  1  0.65495668  0.98858139  0.27019779  1  -0.062642  0  -0.083988  -0.081187  0  3.980515  0
C  C129  1  0.65495519  0.01141795  0.72980437  1  -0.062655  0  -0.083988  -0.081213  0  3.980618  0
C  C130  1  0.65495643  0.22980034  0.48858140  1  -0.063049  0  -0.084  -0.08121  0  3.980502  0
C  C131  1  0.65495785  0.77019685  0.51142022  1  -0.062693  0  -0.083991  -0.08125  0  3.980661  0
C  C132  1  0.37556600  0.41560006  0.24002554  1  -0.036793  0  -0.018716  -0.034919  0  3.974995  0
C  C133  1  0.37556129  0.25997368  0.91559989  1  -0.036786  0  -0.018657  -0.034856  0  3.974961  0
C  C134  1  0.37556379  0.58440083  0.75997231  1  -0.036723  0  -0.018732  -0.034892  0  3.975033  0
C  C135  1  0.37556006  0.74002721  0.08439902  1  -0.036569  0  -0.018664  -0.034847  0  3.974933  0
C  C136  1  0.62443727  0.91559927  0.25997441  1  -0.036753  0  -0.018679  -0.03489  0  3.974969  0
C  C137  1  0.62443465  0.08440006  0.74002774  1  -0.036702  0  -0.018716  -0.034874  0  3.974994  0
C  C138  1  0.62443704  0.24002433  0.41559929  1  -0.036743  0  -0.018688  -0.034926  0  3.974966  0
C  C139  1  0.62443729  0.75997287  0.58440179  1  -0.036853  0  -0.018632  -0.034798  0  3.975009  0
C  C140  1  0.53430869  0.38981381  0.23846274  1  -0.004778  0  -0.080969  -0.076488  0  3.949745  0
C  C141  1  0.53430399  0.26153634  0.88981416  1  -0.004708  0  -0.081001  -0.076591  0  3.949746  0
C  C142  1  0.53430891  0.61018497  0.76153513  1  -0.004822  0  -0.080919  -0.076488  0  3.949713  0
C  C143  1  0.53430398  0.73846511  0.11018477  1  -0.004989  0  -0.08099  -0.076641  0  3.949776  0
C  C144  1  0.46569214  0.88981407  0.26153651  1  -0.004757  0  -0.081  -0.076579  0  3.949627  0
C  C145  1  0.46569195  0.11018630  0.73846456  1  -0.004788  0  -0.080958  -0.076549  0  3.949773  0
C  C146  1  0.46569553  0.23846204  0.38981300  1  -0.004782  0  -0.081012  -0.07657  0  3.94965  0
C  C147  1  0.46569218  0.76153566  0.61018753  1  -0.004649  0  -0.080997  -0.076515  0  3.949516  0
C  C148  1  0.66240184  0.43671897  0.22813502  1  -0.043165  0  -0.087395  -0.161935  0  3.956447  0
C  C149  1  0.66239713  0.27186542  0.93671996  1  -0.043113  0  -0.087365  -0.16181  0  3.956354  0
C  C150  1  0.66240082  0.56327929  0.77186499  1  -0.043188  0  -0.087395  -0.161857  0  3.956409  0
C  C151  1  0.66239589  0.72813551  0.06327952  1  -0.043145  0  -0.087372  -0.1618  0  3.956354  0
C  C152  1  0.33760024  0.93671874  0.27186398  1  -0.04319  0  -0.087357  -0.161797  0  3.956357  0
C  C153  1  0.33759880  0.06328107  0.72813654  1  -0.043147  0  -0.087397  -0.161846  0  3.956421  0
C  C154  1  0.33760241  0.22813272  0.43671872  1  -0.043155  0  -0.087341  -0.161849  0  3.956414  0
C  C155  1  0.33760025  0.77186336  0.56328180  1  -0.04316  0  -0.087406  -0.161896  0  3.956388  0
C  C156  1  0.23866038  0.36495238  0.25212433  1  1.533223  0  0.186617  0.549708  0  4.240198  0
C  C157  1  0.23865446  0.24787564  0.86495210  1  1.53325  0  0.186599  0.549685  0  4.240335  0
C  C158  1  0.23865940  0.63504956  0.74787404  1  1.533154  0  0.186557  0.54957  0  4.240248  0
C  C159  1  0.23865447  0.75212630  0.13504733  1  1.533247  0  0.186623  0.54969  0  4.240227  0
C  C160  1  0.76134285  0.86495100  0.24787583  1  1.533245  0  0.186583  0.549678  0  4.240332  0
C  C161  1  0.76134028  0.13504889  0.75212526  1  1.533184  0  0.186577  0.549607  0  4.240228  0
C  C162  1  0.76134264  0.25212473  0.36495159  1  1.533192  0  0.186662  0.549794  0  4.240129  0
C  C163  1  0.76134290  0.74787409  0.63505004  1  1.53317  0  0.186513  0.549542  0  4.24045  0
N  N164  1  0.92881234  0.64772017  0.21656352  1  -1.209993  0  -0.360486  -0.36121  0  3.464974  0
N  N165  1  0.92881218  0.28343729  0.14771920  1  -1.210045  0  -0.360536  -0.361333  0  3.465259  0
N  N166  1  0.92881237  0.35227974  0.78343598  1  -1.210092  0  -0.360461  -0.361183  0  3.464977  0
N  N167  1  0.92881494  0.71656423  0.85228138  1  -1.209922  0  -0.360484  -0.361257  0  3.465188  0
N  N168  1  0.07119071  0.14772119  0.28343635  1  -1.209928  0  -0.360473  -0.361119  0  3.464838  0
N  N169  1  0.07118628  0.85228019  0.71656307  1  -1.20981  0  -0.360505  -0.361298  0  3.46507  0
N  N170  1  0.07118721  0.21656279  0.64771897  1  -1.210053  0  -0.360503  -0.361196  0  3.465223  0
N  N171  1  0.07118978  0.78343645  0.35228152  1  -1.209898  0  -0.360487  -0.361247  0  3.465247  0
N  N172  1  0.76178394  0.55674616  0.20609699  1  -1.252763  0  -0.223371  -0.046623  0  3.752705  0
N  N173  1  0.76177777  0.29390323  0.05674733  1  -1.252752  0  -0.223454  -0.046697  0  3.752739  0
N  N174  1  0.76177681  0.44325212  0.79390250  1  -1.253246  0  -0.223429  -0.046576  0  3.75271  0
N  N175  1  0.76177937  0.70609719  0.94325270  1  -1.252734  0  -0.223428  -0.046636  0  3.752704  0
N  N176  1  0.23822145  0.05674780  0.29390178  1  -1.253181  0  -0.22345  -0.046606  0  3.752722  0
N  N177  1  0.23821709  0.94325307  0.70609765  1  -1.253393  0  -0.223415  -0.046725  0  3.752814  0
N  N178  1  0.23821916  0.20609629  0.55674651  1  -1.25229  0  -0.223394  -0.046581  0  3.752649  0
N  N179  1  0.23822058  0.79390298  0.44325346  1  -1.252745  0  -0.223404  -0.046567  0  3.752654  0
O  O180  1  0.09739797  0.38915563  0.26254629  1  -1.160977  0  -0.338985  -0.559901  0  2.132655  0
O  O181  1  0.09739204  0.23745381  0.88915532  1  -1.16107  0  -0.338999  -0.5599  0  2.132811  0
O  O182  1  0.09739818  0.61084682  0.73745153  1  -1.160908  0  -0.338954  -0.559825  0  2.132624  0
O  O183  1  0.09739205  0.76254811  0.11084411  1  -1.161111  0  -0.338988  -0.559897  0  2.132755  0
O  O184  1  0.90260528  0.88915474  0.23745348  1  -1.161012  0  -0.338963  -0.559864  0  2.132737  0
O  O185  1  0.90260269  0.11084677  0.76254816  1  -1.16094  0  -0.33896  -0.559859  0  2.132636  0
O  O186  1  0.90260506  0.26254777  0.38915542  1  -1.161018  0  -0.338984  -0.559905  0  2.132717  0
O  O187  1  0.90260531  0.73745213  0.61084676  1  -1.160958  0  -0.338935  -0.559785  0  2.132757  0
O  O188  1  0.27032257  0.29780819  0.25011261  1  -1.157451  0  -0.334671  -0.562731  0  2.228419  0
O  O189  1  0.27031908  0.24988693  0.79780788  1  -1.157455  0  -0.334655  -0.562725  0  2.228354  0
O  O190  1  0.27032407  0.70219375  0.74988683  1  -1.157535  0  -0.33463  -0.562663  0  2.228484  0
O  O191  1  0.27031913  0.75011394  0.20219156  1  -1.157393  0  -0.334676  -0.562722  0  2.228275  0
O  O192  1  0.72967940  0.79780682  0.24988766  1  -1.157522  0  -0.33466  -0.562722  0  2.228458  0
O  O193  1  0.72967687  0.20219306  0.75011182  1  -1.157506  0  -0.334637  -0.562642  0  2.228478  0
O  O194  1  0.72967919  0.25011301  0.29780682  1  -1.157505  0  -0.33472  -0.562801  0  2.228277  0
O  O195  1  0.72967949  0.74988687  0.70219427  1  -1.15757  0  -0.334637  -0.562731  0  2.228541  0
