# generated using pymatgen
data_K2H3C6N7O4
_symmetry_space_group_name_H-M   'P 1'
_cell_length_a   7.44243619
_cell_length_b   9.57860732
_cell_length_c   15.48256573
_cell_angle_alpha   90.00003202
_cell_angle_beta   89.99997147
_cell_angle_gamma   109.17093142
_symmetry_Int_Tables_number   1
_chemical_formula_structural   K2H3C6N7O4
_chemical_formula_sum   'K8 H12 C24 N28 O16'
_cell_volume   1042.51473001
_cell_formula_units_Z   4
loop_
 _symmetry_equiv_pos_site_id
 _symmetry_equiv_pos_as_xyz
  1  'x, y, z'
loop_
 _atom_site_type_symbol
 _atom_site_label
 _atom_site_symmetry_multiplicity
 _atom_site_fract_x
 _atom_site_fract_y
 _atom_site_fract_z
 _atom_site_occupancy
 _atom_site_hle17_bader_spin_density
 _atom_site_hle17_ddec_charge
 _atom_site_hle17_ddec_spin_density
 _atom_site_hle17_ddec_sum_bond_order
 _atom_site_hle17_magmom
 _atom_site_hse06_10hf_bader_spin_density
 _atom_site_hse06_10hf_ddec_charge
 _atom_site_hse06_10hf_ddec_spin_density
 _atom_site_hse06_10hf_ddec_sum_bond_order
 _atom_site_hse06_10hf_magmom
 _atom_site_hse06_bader_spin_density
 _atom_site_hse06_ddec_charge
 _atom_site_hse06_ddec_spin_density
 _atom_site_hse06_ddec_sum_bond_order
 _atom_site_hse06_magmom
 _atom_site_pbe_bader_spin_density
 _atom_site_pbe_cm5_charge
 _atom_site_pbe_ddec_charge
 _atom_site_pbe_ddec_spin_density
 _atom_site_pbe_ddec_sum_bond_order
 _atom_site_pbe_magmom
K  K0  1  0.95030432  0.89436405  0.66043128  1  0  0.924862  0  0.482583  0  0  0.869606  0  0.677884  0  0  0.884205  0  0.655145  0  0  0.834821  0.858713  0  0.694227  0
K  K1  1  0.54969483  0.60563652  0.16043146  1  0  0.924866  0  0.482585  0  0  0.869605  0  0.67789  0  0  0.884206  0  0.65515  0  0  0.834818  0.858707  0  0.694243  0
K  K2  1  0.04969436  0.10563723  0.33956905  1  0  0.924875  0  0.482576  0  0  0.869607  0  0.677894  0  0  0.884207  0  0.655154  0  0  0.83482  0.858715  0  0.694235  0
K  K3  1  0.45031004  0.39436033  0.83957210  1  0  0.924863  0  0.482571  0  0  0.869587  0  0.677897  0  0  0.884189  0  0.655156  0  0  0.834825  0.858696  0  0.694238  0
K  K4  1  0.53090501  0.06421520  0.69404447  1  0  0.926882  0  0.440814  0  0  0.867707  0  0.630468  0  0  0.883496  0  0.607117  0  0  0.784745  0.855913  0  0.647328  0
K  K5  1  0.96909482  0.43578608  0.19404467  1  0  0.926885  0  0.440812  0  0  0.867703  0  0.630481  0  0  0.883491  0  0.607133  0  0  0.784747  0.855909  0  0.647341  0
K  K6  1  0.46909636  0.93578607  0.30595521  1  0  0.926881  0  0.440813  0  0  0.867695  0  0.630484  0  0  0.883483  0  0.607135  0  0  0.784738  0.8559  0  0.647346  0
K  K7  1  0.03090608  0.56421408  0.80595566  1  0  0.926882  0  0.440814  0  0  0.867692  0  0.63049  0  0  0.883482  0  0.60714  0  0  0.784738  0.855898  0  0.647351  0
H  H8  1  0.92848967  0.70912026  0.30530664  1  0  0.349069  0  0.912317  0  0  0.323968  0  0.981822  0  0  0.335637  0  0.970761  0  0  0.323845  0.315825  0  0.989485  0
H  H9  1  0.57150891  0.79087930  0.80530587  1  0  0.349026  0  0.912332  0  0  0.32392  0  0.981837  0  0  0.335589  0  0.970777  0  0  0.32384  0.315777  0  0.9895  0
H  H10  1  0.07151123  0.29087991  0.69469369  1  0  0.349077  0  0.912297  0  0  0.323973  0  0.981804  0  0  0.335643  0  0.970744  0  0  0.323837  0.31583  0  0.989468  0
H  H11  1  0.42848884  0.20911976  0.19469381  1  0  0.349067  0  0.912305  0  0  0.323967  0  0.981809  0  0  0.335636  0  0.970748  0  0  0.323836  0.315824  0  0.989472  0
H  H12  1  0.35217879  0.13570887  0.53998671  1  0  0.40318  0  0.907575  0  0  0.366983  0  0.983322  0  0  0.377593  0  0.967357  0  0  0.285734  0.359434  0  0.994684  0
H  H13  1  0.14782005  0.36429070  0.03998696  1  0  0.403188  0  0.907559  0  0  0.366992  0  0.983305  0  0  0.377602  0  0.967341  0  0  0.285735  0.359444  0  0.994667  0
H  H14  1  0.64782076  0.86429130  0.46001297  1  0  0.403186  0  0.907569  0  0  0.366988  0  0.983317  0  0  0.377598  0  0.967353  0  0  0.285734  0.35944  0  0.994679  0
H  H15  1  0.85217817  0.63570948  0.96001337  1  0  0.403194  0  0.907554  0  0  0.366995  0  0.983305  0  0  0.377604  0  0.967341  0  0  0.285737  0.359446  0  0.994667  0
H  H16  1  0.23873231  0.97567622  0.51209550  1  0  0.415586  0  0.88923  0  0  0.386757  0  0.951097  0  0  0.397745  0  0.934644  0  0  0.291255  0.378906  0  0.962884  0
H  H17  1  0.26126680  0.52432484  0.01209560  1  0  0.415602  0  0.889209  0  0  0.386768  0  0.951083  0  0  0.397756  0  0.934632  0  0  0.291263  0.378916  0  0.962873  0
H  H18  1  0.76126772  0.02432506  0.48790483  1  0  0.415608  0  0.889196  0  0  0.386788  0  0.951048  0  0  0.397776  0  0.934596  0  0  0.291268  0.378936  0  0.962837  0
H  H19  1  0.73873276  0.47567533  0.98790538  1  0  0.415591  0  0.889223  0  0  0.38676  0  0.951093  0  0  0.397748  0  0.934641  0  0  0.291254  0.378908  0  0.962882  0
C  C20  1  0.60863163  0.37528150  0.50034019  1  0  0.609026  0  3.85025  0  0  0.55417  0  4.139304  0  0  0.58374  0  4.144617  0  0  0.351413  0.534487  0  4.135052  0
C  C21  1  0.89136740  0.12471743  0.00033836  1  0  0.608944  0  3.85039  0  0  0.554201  0  4.139274  0  0  0.583775  0  4.144578  0  0  0.351321  0.534518  0  4.135025  0
C  C22  1  0.39136793  0.62471867  0.49966014  1  0  0.609051  0  3.850259  0  0  0.554172  0  4.139343  0  0  0.583726  0  4.144677  0  0  0.351408  0.534489  0  4.135091  0
C  C23  1  0.10863168  0.87528163  0.99966068  1  0  0.609043  0  3.850256  0  0  0.554189  0  4.139301  0  0  0.583762  0  4.144609  0  0  0.351391  0.534506  0  4.13505  0
C  C24  1  0.70871524  0.42484402  0.64284435  1  0  0.732235  0  3.927468  0  0  0.681967  0  4.230987  0  0  0.715467  0  4.226742  0  0  0.295552  0.65946  0  4.233072  0
C  C25  1  0.79128375  0.07515833  0.14284252  1  0  0.732238  0  3.927443  0  0  0.681987  0  4.23094  0  0  0.715489  0  4.226691  0  0  0.29551  0.659481  0  4.233025  0
C  C26  1  0.29128613  0.57515725  0.35715598  1  0  0.732179  0  3.927588  0  0  0.681932  0  4.231078  0  0  0.715433  0  4.226831  0  0  0.295538  0.659425  0  4.233161  0
C  C27  1  0.20871493  0.92484295  0.85715652  1  0  0.73224  0  3.927444  0  0  0.681954  0  4.230994  0  0  0.715453  0  4.22675  0  0  0.295521  0.659448  0  4.233078  0
C  C28  1  0.86954820  0.59696713  0.53947518  1  0  0.60263  0  3.868807  0  0  0.545353  0  4.169001  0  0  0.575569  0  4.173179  0  0  0.338953  0.525196  0  4.165527  0
C  C29  1  0.63045285  0.90303445  0.03947545  1  0  0.602632  0  3.868811  0  0  0.545348  0  4.169016  0  0  0.575565  0  4.173194  0  0  0.338955  0.525192  0  4.165541  0
C  C30  1  0.13045182  0.40303415  0.46052450  1  0  0.602703  0  3.868725  0  0  0.545381  0  4.168988  0  0  0.575598  0  4.173163  0  0  0.338981  0.525225  0  4.165514  0
C  C31  1  0.36954939  0.09696571  0.96052488  1  0  0.602684  0  3.868815  0  0  0.545404  0  4.169015  0  0  0.57562  0  4.173194  0  0  0.338986  0.525248  0  4.165543  0
C  C32  1  0.02365170  0.76390296  0.43288897  1  0  0.761878  0  3.873152  0  0  0.699775  0  4.174457  0  0  0.73499  0  4.168945  0  0  0.336715  0.676007  0  4.177697  0
C  C33  1  0.47634663  0.73609729  0.93288808  1  0  0.761708  0  3.873423  0  0  0.699626  0  4.174669  0  0  0.734841  0  4.169161  0  0  0.336683  0.675859  0  4.177905  0
C  C34  1  0.97634833  0.23609832  0.56711071  1  0  0.761851  0  3.873201  0  0  0.69976  0  4.174485  0  0  0.734976  0  4.168973  0  0  0.336714  0.675992  0  4.177726  0
C  C35  1  0.52365246  0.26390177  0.06711224  1  0  0.761933  0  3.873087  0  0  0.699845  0  4.174373  0  0  0.735061  0  4.168861  0  0  0.336752  0.676077  0  4.177614  0
C  C36  1  0.77282420  0.54280414  0.38891810  1  0  0.638819  0  3.794126  0  0  0.574912  0  4.084727  0  0  0.606031  0  4.087353  0  0  0.377366  0.554115  0  4.082383  0
C  C37  1  0.72717518  0.95719438  0.88891670  1  0  0.638635  0  3.794232  0  0  0.574882  0  4.084619  0  0  0.606  0  4.087244  0  0  0.377321  0.554087  0  4.082278  0
C  C38  1  0.22717582  0.45719714  0.61108223  1  0  0.63875  0  3.793997  0  0  0.574833  0  4.084615  0  0  0.60595  0  4.08724  0  0  0.377288  0.554038  0  4.082274  0
C  C39  1  0.27282344  0.04280358  0.11108234  1  0  0.638691  0  3.794027  0  0  0.574775  0  4.084651  0  0  0.605895  0  4.087275  0  0  0.377277  0.55398  0  4.082309  0
C  C40  1  0.53306589  0.32676099  0.35523892  1  0  0.749618  0  3.872175  0  0  0.699819  0  4.170973  0  0  0.73418  0  4.164843  0  0  0.32859  0.676743  0  4.174313  0
C  C41  1  0.96693288  0.17323820  0.85523736  1  0  0.749474  0  3.872525  0  0  0.699708  0  4.17127  0  0  0.734062  0  4.16515  0  0  0.328562  0.676631  0  4.174611  0
C  C42  1  0.46693414  0.67324029  0.64476141  1  0  0.749448  0  3.872453  0  0  0.699684  0  4.171204  0  0  0.734044  0  4.165075  0  0  0.328529  0.676608  0  4.174543  0
C  C43  1  0.03306574  0.82675976  0.14476168  1  0  0.749503  0  3.872452  0  0  0.699757  0  4.171177  0  0  0.734118  0  4.165047  0  0  0.328596  0.67668  0  4.174516  0
N  N44  1  0.75330688  0.50574879  0.47562918  1  0  -0.380701  0  3.392719  0  0  -0.288458  0  3.613154  0  0  -0.314762  0  3.628542  0  0  -0.210765  -0.271017  0  3.602388  0
N  N45  1  0.74669110  0.99424979  0.97562778  1  0  -0.38059  0  3.392827  0  0  -0.288454  0  3.61322  0  0  -0.314753  0  3.628589  0  0  -0.210686  -0.271012  0  3.602455  0
N  N46  1  0.24669315  0.49425249  0.52437115  1  0  -0.380723  0  3.392684  0  0  -0.288456  0  3.613137  0  0  -0.314755  0  3.628534  0  0  -0.210741  -0.271015  0  3.602372  0
N  N47  1  0.25330752  0.00574816  0.02437125  1  0  -0.380659  0  3.39272  0  0  -0.288409  0  3.613149  0  0  -0.314712  0  3.628531  0  0  -0.210742  -0.270968  0  3.602383  0
N  N48  1  0.58470071  0.33871736  0.58309197  1  0  -0.634185  0  2.972252  0  0  -0.59119  0  3.249798  0  0  -0.616709  0  3.254619  0  0  -0.390181  -0.573802  0  3.246028  0
N  N49  1  0.91530142  0.16128273  0.08309080  1  0  -0.634136  0  2.972231  0  0  -0.591178  0  3.249711  0  0  -0.616699  0  3.254528  0  0  -0.390123  -0.57379  0  3.24594  0
N  N50  1  0.41530154  0.66128280  0.41690900  1  0  -0.634161  0  2.972295  0  0  -0.591163  0  3.24984  0  0  -0.616677  0  3.254666  0  0  -0.390137  -0.573775  0  3.24607  0
N  N51  1  0.08469995  0.83871854  0.91690824  1  0  -0.634163  0  2.972256  0  0  -0.591155  0  3.249796  0  0  -0.616677  0  3.254615  0  0  -0.390141  -0.573767  0  3.246025  0
N  N52  1  0.84792919  0.55634135  0.62145190  1  0  -0.658338  0  2.976835  0  0  -0.625514  0  3.26978  0  0  -0.649423  0  3.273237  0  0  -0.41035  -0.609358  0  3.267104  0
N  N53  1  0.65207268  0.94365918  0.12145089  1  0  -0.658328  0  2.97688  0  0  -0.62551  0  3.269819  0  0  -0.64942  0  3.273275  0  0  -0.410366  -0.609354  0  3.267143  0
N  N54  1  0.15207352  0.44365992  0.37854843  1  0  -0.658322  0  2.976914  0  0  -0.62549  0  3.269872  0  0  -0.649399  0  3.273326  0  0  -0.410356  -0.609334  0  3.267195  0
N  N55  1  0.34792957  0.05634098  0.87854880  1  0  -0.658351  0  2.976808  0  0  -0.625518  0  3.269752  0  0  -0.649428  0  3.27321  0  0  -0.410372  -0.609362  0  3.267075  0
N  N56  1  0.00302603  0.72288883  0.51657213  1  0  -0.636691  0  2.988692  0  0  -0.598574  0  3.276617  0  0  -0.623977  0  3.27989  0  0  -0.420253  -0.581493  0  3.274212  0
N  N57  1  0.49697126  0.77711113  0.01657097  1  0  -0.636636  0  2.988717  0  0  -0.59853  0  3.276632  0  0  -0.623934  0  3.279905  0  0  -0.420223  -0.581448  0  3.274226  0
N  N58  1  0.99697265  0.27711245  0.48342756  1  0  -0.636768  0  2.988632  0  0  -0.598646  0  3.276585  0  0  -0.62405  0  3.279856  0  0  -0.420311  -0.581566  0  3.274182  0
N  N59  1  0.50302736  0.22288683  0.98342871  1  0  -0.636749  0  2.988686  0  0  -0.598641  0  3.276628  0  0  -0.624046  0  3.279901  0  0  -0.420276  -0.58156  0  3.274225  0
N  N60  1  0.90687940  0.67397750  0.37018930  1  0  -0.534435  0  3.22874  0  0  -0.467121  0  3.465788  0  0  -0.49262  0  3.466045  0  0  -0.374347  -0.449779  0  3.465354  0
N  N61  1  0.59311778  0.82602211  0.87018853  1  0  -0.534242  0  3.228844  0  0  -0.466954  0  3.465798  0  0  -0.492452  0  3.466056  0  0  -0.374338  -0.449611  0  3.465358  0
N  N62  1  0.09311881  0.32602267  0.62981039  1  0  -0.534436  0  3.228721  0  0  -0.467125  0  3.465781  0  0  -0.492625  0  3.46604  0  0  -0.374341  -0.449775  0  3.465329  0
N  N63  1  0.40687996  0.17397695  0.12981115  1  0  -0.534442  0  3.228714  0  0  -0.467134  0  3.465775  0  0  -0.492634  0  3.466033  0  0  -0.374359  -0.449788  0  3.465333  0
N  N64  1  0.67076094  0.45699735  0.32831574  1  0  -0.645689  0  2.928594  0  0  -0.611592  0  3.21635  0  0  -0.633761  0  3.216995  0  0  -0.394121  -0.596616  0  3.215555  0
N  N65  1  0.82923785  0.04300182  0.82831482  1  0  -0.645574  0  2.928611  0  0  -0.611552  0  3.216297  0  0  -0.633719  0  3.216943  0  0  -0.394095  -0.596575  0  3.215501  0
N  N66  1  0.32923862  0.54300282  0.67168459  1  0  -0.645575  0  2.928487  0  0  -0.611483  0  3.216223  0  0  -0.633649  0  3.216867  0  0  -0.39404  -0.596509  0  3.215427  0
N  N67  1  0.17076124  0.95699724  0.17168487  1  0  -0.645547  0  2.928441  0  0  -0.61146  0  3.216177  0  0  -0.633628  0  3.21682  0  0  -0.394045  -0.596485  0  3.215382  0
N  N68  1  0.49702215  0.29088717  0.44026229  1  0  -0.616573  0  2.957226  0  0  -0.573452  0  3.229305  0  0  -0.598243  0  3.232281  0  0  -0.34758  -0.556699  0  3.226916  0
N  N69  1  0.00297727  0.20911157  0.94026086  1  0  -0.61668  0  2.957374  0  0  -0.573597  0  3.229387  0  0  -0.598387  0  3.23236  0  0  -0.347654  -0.556844  0  3.227  0
N  N70  1  0.50297741  0.70911300  0.55973804  1  0  -0.616584  0  2.957278  0  0  -0.573463  0  3.229352  0  0  -0.598248  0  3.232333  0  0  -0.347609  -0.55671  0  3.226963  0
N  N71  1  0.99702135  0.79088638  0.05973753  1  0  -0.616675  0  2.957345  0  0  -0.573572  0  3.229403  0  0  -0.598364  0  3.232373  0  0  -0.347647  -0.556819  0  3.227015  0
O  O72  1  0.69703348  0.38174251  0.72035216  1  0  -0.729523  0  1.913071  0  0  -0.68042  0  2.148753  0  0  -0.702671  0  2.138459  0  0  -0.485442  -0.664675  0  2.155364  0
O  O73  1  0.80296720  0.11825768  0.22035100  1  0  -0.729514  0  1.913037  0  0  -0.680421  0  2.14872  0  0  -0.702671  0  2.138425  0  0  -0.485391  -0.664674  0  2.155331  0
O  O74  1  0.30296742  0.61825766  0.27964817  1  0  -0.729488  0  1.913096  0  0  -0.680396  0  2.148773  0  0  -0.702645  0  2.138479  0  0  -0.485436  -0.664648  0  2.155383  0
O  O75  1  0.19703418  0.88174359  0.77964804  1  0  -0.729539  0  1.913052  0  0  -0.680437  0  2.148745  0  0  -0.702687  0  2.138452  0  0  -0.485424  -0.66469  0  2.155355  0
O  O76  1  0.14728778  0.88140326  0.40850026  1  0  -0.683853  0  1.957327  0  0  -0.631943  0  2.194678  0  0  -0.654601  0  2.182759  0  0  -0.420387  -0.616132  0  2.202741  0
O  O77  1  0.35271009  0.61859587  0.90850000  1  0  -0.6838  0  1.957412  0  0  -0.6319  0  2.19475  0  0  -0.654559  0  2.182832  0  0  -0.420366  -0.616089  0  2.202811  0
O  O78  1  0.85271225  0.11859801  0.59149943  1  0  -0.683808  0  1.957338  0  0  -0.631912  0  2.194697  0  0  -0.654566  0  2.182769  0  0  -0.420374  -0.616101  0  2.202759  0
O  O79  1  0.64728900  0.38140320  0.09149968  1  0  -0.683885  0  1.957336  0  0  -0.631982  0  2.194693  0  0  -0.654638  0  2.182768  0  0  -0.42041  -0.61617  0  2.202756  0
O  O80  1  0.43514446  0.23844618  0.29889166  1  0  -0.683237  0  1.9741  0  0  -0.635636  0  2.211746  0  0  -0.658219  0  2.200093  0  0  -0.380228  -0.619784  0  2.219216  0
O  O81  1  0.06485373  0.26155246  0.79889088  1  0  -0.683078  0  1.974154  0  0  -0.635493  0  2.211784  0  0  -0.658074  0  2.200134  0  0  -0.380146  -0.619642  0  2.219254  0
O  O82  1  0.56485510  0.76155399  0.70110802  1  0  -0.683127  0  1.974218  0  0  -0.635543  0  2.211847  0  0  -0.658126  0  2.200196  0  0  -0.380188  -0.619691  0  2.219315  0
O  O83  1  0.93514536  0.73844660  0.20110816  1  0  -0.683101  0  1.974217  0  0  -0.635518  0  2.211836  0  0  -0.658103  0  2.200184  0  0  -0.380179  -0.619665  0  2.219304  0
O  O84  1  0.27270636  0.04016744  0.56351769  1  0  -0.910577  0  1.814077  0  0  -0.867111  0  1.983542  0  0  -0.883665  0  1.950911  0  0  -0.715332  -0.855446  0  2.006828  0
O  O85  1  0.22729381  0.45983214  0.06351795  1  0  -0.910597  0  1.814049  0  0  -0.867126  0  1.983518  0  0  -0.883681  0  1.950892  0  0  -0.715334  -0.855459  0  2.006806  0
O  O86  1  0.72729454  0.95983273  0.43648264  1  0  -0.910611  0  1.814062  0  0  -0.867147  0  1.983522  0  0  -0.883701  0  1.950893  0  0  -0.715338  -0.855481  0  2.006811  0
O  O87  1  0.77270528  0.54016693  0.93648238  1  0  -0.910597  0  1.814072  0  0  -0.867121  0  1.983546  0  0  -0.883675  0  1.950919  0  0  -0.715336  -0.855455  0  2.006834  0
