# generated using pymatgen
data_TbCoH12C22N5O8
_symmetry_space_group_name_H-M   'P 1'
_cell_length_a   10.54549237
_cell_length_b   12.59558271
_cell_length_c   18.08497289
_cell_angle_alpha   90.00083577
_cell_angle_beta   90.02906629
_cell_angle_gamma   90.00024832
_symmetry_Int_Tables_number   1
_chemical_formula_structural   TbCoH12C22N5O8
_chemical_formula_sum   'Tb4 Co4 H48 C88 N20 O32'
_cell_volume   2402.16553479
_cell_formula_units_Z   4
loop_
 _symmetry_equiv_pos_site_id
 _symmetry_equiv_pos_as_xyz
  1  'x, y, z'
loop_
 _atom_site_type_symbol
 _atom_site_label
 _atom_site_symmetry_multiplicity
 _atom_site_fract_x
 _atom_site_fract_y
 _atom_site_fract_z
 _atom_site_occupancy
 _atom_site_pbe_bader_charge
 _atom_site_pbe_bader_spin_density
 _atom_site_pbe_cm5_charge
 _atom_site_pbe_ddec_charge
 _atom_site_pbe_ddec_spin_density
 _atom_site_pbe_ddec_sum_bond_order
 _atom_site_pbe_magmom
Tb  Tb0  1  0.94085328  0.35402904  0.00722246  1  2.165834  0.00253  1.528556  2.01712  0.00223  2.20817  0.004
Tb  Tb1  1  0.55916066  0.85404197  0.49277173  1  2.165913  0.00253  1.528618  2.017348  0.00223  2.207864  0.004
Tb  Tb2  1  0.07479063  0.64369944  0.98941569  1  2.167277  0.003001  1.531484  2.025833  0.002689  2.203082  0.005
Tb  Tb3  1  0.42520299  0.14371034  0.51058503  1  2.167505  0.003  1.531395  2.025899  0.002688  2.202996  0.005
Co  Co4  1  0.74278019  0.34560816  0.76937682  1  1.099316  0.964032  0.658294  0.55379  1.042813  2.957282  0.956
Co  Co5  1  0.75721125  0.84561244  0.73062960  1  1.09916  0.964028  0.65823  0.553671  1.042794  2.957174  0.956
Co  Co6  1  0.26056768  0.65292773  0.22707420  1  1.236014  2.581867  0.683912  0.743743  2.796836  2.610536  2.559
Co  Co7  1  0.23943883  0.15292827  0.27292531  1  1.236117  2.581904  0.683877  0.743719  2.796872  2.610383  2.559
H  H8  1  0.49522890  0.47572501  0.71609540  1  0.132759  -0.000112  0.113479  0.112654  -0.000176  1.006848  0.0
H  H9  1  0.00476988  0.97571043  0.78386786  1  0.131834  -0.000112  0.113552  0.112932  -0.000176  1.006507  0.0
H  H10  1  0.50753122  0.51832364  0.28576071  1  0.106519  -0.000101  0.113484  0.11433  -0.000231  0.9955  0.0
H  H11  1  0.99247041  0.01831039  0.21423769  1  0.106687  -0.000101  0.113507  0.114357  -0.000231  0.995502  0.0
H  H12  1  0.33424177  0.49378478  0.61505471  1  0.119611  -2.6e-05  0.111445  0.117536  -2.4e-05  0.982303  0.0
H  H13  1  0.16575999  0.99375935  0.88490488  1  0.12108  -2.6e-05  0.111417  0.117545  -2.4e-05  0.982278  0.0
H  H14  1  0.66414085  0.49940883  0.38934469  1  0.053511  -1.9e-05  0.110507  0.116393  -1.5e-05  0.982698  0.0
H  H15  1  0.83586145  0.99936727  0.11065703  1  0.054111  -1.9e-05  0.110385  0.116212  -1.5e-05  0.982723  0.0
H  H16  1  0.37156499  0.63087712  0.51560740  1  0.120133  2e-06  0.122686  0.094309  -2.2e-05  0.990473  0.0
H  H17  1  0.12845930  0.13083635  0.98436459  1  0.119974  2e-06  0.122691  0.094314  -2.2e-05  0.990433  0.0
H  H18  1  0.61888602  0.36553586  0.48977799  1  0.119368  -7e-06  0.120889  0.092188  -3.2e-05  0.995342  0.0
H  H19  1  0.88113643  0.86549875  0.01022354  1  0.119171  -7e-06  0.120842  0.092168  -3.2e-05  0.995366  0.0
H  H20  1  0.72665525  0.70142556  0.59827766  1  0.119363  -0.000221  0.12517  0.098624  -0.000287  1.019804  0.0
H  H21  1  0.77334208  0.20138043  0.90172620  1  0.119624  -0.000221  0.125144  0.098575  -0.000287  1.019715  0.0
H  H22  1  0.26603039  0.29918965  0.40264131  1  0.124291  1.9e-05  0.122836  0.094449  -3e-06  1.02439  0.0
H  H23  1  0.23398434  0.79916730  0.09737025  1  0.124808  1.8e-05  0.122755  0.094316  -3e-06  1.02448  0.0
H  H24  1  0.71088030  0.76410536  0.12632295  1  0.097996  0.000804  0.110059  0.11631  0.000306  1.014063  0.0
H  H25  1  0.78911885  0.26409703  0.37367743  1  0.098062  0.000804  0.110079  0.116328  0.000306  1.014004  0.0
H  H26  1  0.30629374  0.23709171  0.86225164  1  0.099589  -7.4e-05  0.111048  0.118861  -8e-06  1.006127  0.0
H  H27  1  0.19368398  0.73708593  0.63777098  1  0.099134  -7.4e-05  0.111042  0.118914  -8e-06  1.006203  0.0
H  H28  1  0.50180998  0.79100953  0.19147461  1  0.101502  0.001469  0.118223  0.09  0.000389  0.999908  0.001
H  H29  1  0.99818930  0.29099506  0.30852660  1  0.101213  0.001469  0.118224  0.089978  0.000389  1.000035  0.001
H  H30  1  0.50902519  0.21509715  0.79332831  1  0.109253  -0.000274  0.119128  0.090754  -0.000395  1.023057  0.0
H  H31  1  0.99097097  0.71510892  0.70669780  1  0.109196  -0.000275  0.119059  0.090622  -0.000396  1.02316  0.0
H  H32  1  0.36644909  0.50214455  0.11542508  1  0.131372  0.001309  0.119136  0.085833  0.000243  1.023068  0.001
H  H33  1  0.13355269  0.00214144  0.38458280  1  0.131203  0.001309  0.119108  0.085857  0.000243  1.023026  0.001
H  H34  1  0.64820272  0.49993779  0.87657940  1  0.10202  -0.000175  0.121546  0.09053  -0.0003  1.032993  0.0
H  H35  1  0.85176908  0.99990947  0.62340842  1  0.10179  -0.000175  0.121508  0.090512  -0.0003  1.033001  0.0
H  H36  1  0.57243097  0.46090759  0.05314309  1  0.124632  0.000706  0.114099  0.125115  0.000248  1.014496  0.0
H  H37  1  0.92758325  0.96091454  0.44687321  1  0.124537  0.000706  0.114066  0.125034  0.000248  1.014556  0.0
H  H38  1  0.44628780  0.53669384  0.94120806  1  0.117413  -9.3e-05  0.113799  0.125219  -4e-05  1.013909  0.0
H  H39  1  0.05368441  0.03666392  0.55879034  1  0.117425  -9.3e-05  0.113744  0.125038  -4e-05  1.013911  0.0
H  H40  1  0.51578958  0.19573185  0.03922290  1  0.115483  0.000934  0.111454  0.124119  0.000408  0.996246  0.0
H  H41  1  0.98424804  0.69574166  0.46078028  1  0.115459  0.000935  0.111416  0.124056  0.000408  0.996325  0.0
H  H42  1  0.49703911  0.81510444  0.96162125  1  0.101972  -0.000142  0.113619  0.126638  -7.5e-05  0.993391  0.0
H  H43  1  0.00294700  0.31512870  0.53837291  1  0.101972  -0.000142  0.113659  0.126721  -7.5e-05  0.993291  0.0
H  H44  1  0.33066587  0.13532939  0.11717194  1  0.078949  0.001598  0.119714  0.095827  0.000495  0.999773  0.001
H  H45  1  0.16935767  0.63532299  0.38282360  1  0.078762  0.001599  0.119715  0.095726  0.000496  0.999903  0.001
H  H46  1  0.68509804  0.87155791  0.88471169  1  0.150553  -0.000329  0.125965  0.106879  -0.000381  1.00343  0.0
H  H47  1  0.81488781  0.37154516  0.61529829  1  0.150203  -0.00033  0.12592  0.10684  -0.000381  1.003288  0.0
H  H48  1  0.52146175  0.20710530  0.31119305  1  0.114927  0.001464  0.120498  0.095868  0.000283  1.019949  0.001
H  H49  1  0.97854369  0.70708967  0.18881064  1  0.114997  0.001464  0.120484  0.095837  0.000283  1.019923  0.001
H  H50  1  0.50040129  0.79014768  0.69036360  1  0.160898  -0.000166  0.125328  0.101517  -0.000257  1.033311  0.0
H  H51  1  0.99960040  0.29009671  0.80963345  1  0.1612  -0.000166  0.125354  0.101349  -0.000257  1.03348  0.0
H  H52  1  0.71223465  0.27236748  0.24055741  1  0.113082  0.000956  0.109566  0.118474  0.000427  1.013329  0.0
H  H53  1  0.78777861  0.77234706  0.25945474  1  0.113404  0.000956  0.109534  0.118415  0.000427  1.013471  0.0
H  H54  1  0.30687299  0.73119166  0.75963496  1  0.108893  -0.000108  0.112541  0.123077  -4.3e-05  1.007905  0.0
H  H55  1  0.19312518  0.23114215  0.74034568  1  0.109055  -0.000108  0.112512  0.123065  -4.3e-05  1.007934  0.0
C  C56  1  0.89754902  0.47886970  0.87271983  1  1.560711  -0.000397  0.217872  0.598317  -0.000827  4.198207  0.0
C  C57  1  0.60243556  0.97888878  0.62728628  1  1.552876  -0.000407  0.217694  0.598039  -0.000829  4.198632  0.0
C  C58  1  0.11409314  0.51868888  0.12440422  1  1.511186  -0.004138  0.218073  0.5999  -0.005071  4.193371  -0.003
C  C59  1  0.38591260  0.01869602  0.37559832  1  1.510713  -0.004137  0.218177  0.600193  -0.00507  4.193051  -0.003
C  C60  1  0.84361017  0.54879434  0.81677060  1  0.37011  -0.002858  0.07658  -0.010526  -0.003551  3.986231  -0.002
C  C61  1  0.65636539  0.04880545  0.68323931  1  0.378419  -0.002853  0.076602  -0.010618  -0.003552  3.986176  -0.002
C  C62  1  0.16432774  0.44818308  0.18057648  1  0.432947  -0.00312  0.075552  -0.004216  -0.004383  4.01061  -0.002
C  C63  1  0.33567845  0.94818391  0.31942443  1  0.433214  -0.003118  0.075582  -0.004223  -0.004379  4.010716  -0.002
C  C64  1  0.84703044  0.65887251  0.80646293  1  0.425903  -0.002261  0.081868  -0.005377  -0.003357  3.975716  -0.002
C  C65  1  0.65294666  0.15888303  0.69354757  1  0.426411  -0.002261  0.081953  -0.005286  -0.003357  3.975834  -0.002
C  C66  1  0.15551078  0.33876784  0.19277717  1  0.426283  0.000181  0.081795  0.002477  -0.001209  3.984866  0.0
C  C67  1  0.34449575  0.83877004  0.30722426  1  0.42621  0.000182  0.081831  0.002453  -0.001208  3.985017  0.0
C  C68  1  0.89129572  0.74886176  0.85236771  1  1.622213  -0.001837  0.225434  0.598294  -0.002206  4.207972  -0.001
C  C69  1  0.60867239  0.24886958  0.64764202  1  1.622228  -0.001832  0.225459  0.598248  -0.002201  4.207863  -0.001
C  C70  1  0.11271057  0.24744403  0.14821438  1  1.590333  -0.003656  0.226377  0.605466  -0.004271  4.195758  -0.003
C  C71  1  0.38729933  0.74744332  0.35178281  1  1.590539  -0.003655  0.226481  0.605776  -0.00427  4.195595  -0.003
C  C72  1  0.72169411  0.58853408  0.72306256  1  0.929572  -0.003659  0.215241  0.293391  -0.00452  3.947777  -0.003
C  C73  1  0.77829227  0.08852372  0.77693454  1  0.929042  -0.00366  0.215259  0.293447  -0.004522  3.947779  -0.003
C  C74  1  0.27949741  0.40860690  0.27654863  1  0.956885  -0.003549  0.214064  0.313784  -0.004157  3.986357  0.0
C  C75  1  0.22051518  0.90859741  0.22345355  1  0.956569  -0.003551  0.214134  0.313926  -0.004159  3.986389  0.0
C  C76  1  0.62528646  0.58656992  0.66490807  1  -0.017033  0.000922  -0.002592  -0.02798  0.000193  4.003842  0.001
C  C77  1  0.87470189  0.08655634  0.83508294  1  -0.016389  0.000922  -0.00265  -0.028006  0.000192  4.003764  0.001
C  C78  1  0.37332898  0.41025508  0.33607684  1  0.022032  0.001375  -0.000893  -0.023983  -5.4e-05  3.993394  0.002
C  C79  1  0.12668078  0.91023927  0.16392534  1  0.021663  0.001374  -0.001104  -0.024103  -5.5e-05  3.993687  0.002
C  C80  1  0.51212291  0.52831760  0.66956885  1  0.015261  -0.001029  -0.053363  -0.023542  -0.001191  3.910622  -0.001
C  C81  1  0.98787307  0.02830909  0.83039561  1  0.015089  -0.001031  -0.053376  -0.023787  -0.001193  3.910043  -0.001
C  C82  1  0.48779525  0.46681397  0.33256095  1  0.003805  -0.001855  -0.054198  -0.025934  -0.002084  3.911053  -0.001
C  C83  1  0.01221294  0.96679385  0.16743960  1  0.003779  -0.001855  -0.054094  -0.025911  -0.002083  3.911459  -0.001
C  C84  1  0.42136257  0.54027979  0.61422225  1  -0.083849  6.1e-05  -0.082901  -0.13377  4.6e-05  3.971812  0.0
C  C85  1  0.07863950  0.04026302  0.88574427  1  -0.084956  6.1e-05  -0.082713  -0.133717  4.6e-05  3.971496  0.0
C  C86  1  0.57577317  0.45456597  0.38939307  1  0.052162  6.3e-05  -0.084242  -0.136542  1.2e-05  3.976935  0.0
C  C87  1  0.92423933  0.95453584  0.11060769  1  0.051936  6.3e-05  -0.084196  -0.136313  1.2e-05  3.976993  0.0
C  C88  1  0.44170700  0.61462199  0.55844055  1  0.48412  -0.000775  0.056099  0.113072  -0.000877  3.967377  -0.001
C  C89  1  0.05830296  0.11459597  0.94153341  1  0.484579  -0.000776  0.055912  0.112907  -0.000877  3.96725  -0.001
C  C90  1  0.55106374  0.38197756  0.44573465  1  0.425361  -0.001595  0.05334  0.111244  -0.001774  3.970846  -0.001
C  C91  1  0.94895025  0.88194874  0.05426701  1  0.426131  -0.001595  0.053519  0.111361  -0.001773  3.970475  -0.001
C  C92  1  0.63982590  0.65562608  0.60500115  1  0.519591  -0.001425  0.054134  0.064037  -0.001545  3.950651  -0.001
C  C93  1  0.86017888  0.15560257  0.89499398  1  0.519728  -0.001425  0.054206  0.064292  -0.001545  3.950718  -0.001
C  C94  1  0.35445641  0.34303051  0.39657091  1  0.486473  -0.00224  0.052869  0.062812  -0.002446  3.952555  -0.001
C  C95  1  0.14556525  0.84301115  0.10343562  1  0.485513  -0.00224  0.053075  0.06312  -0.002447  3.952584  -0.001
C  C96  1  0.78270259  0.58254185  0.04957483  1  1.597088  2.1e-05  0.229441  0.627868  -0.000103  4.158908  0.0
C  C97  1  0.71729832  0.08254595  0.45043252  1  1.597889  2e-05  0.229617  0.62785  -0.000103  4.158793  0.0
C  C98  1  0.23467690  0.41569156  0.94486712  1  1.623347  -0.001132  0.227874  0.628068  -0.001302  4.158591  0.0
C  C99  1  0.26530017  0.91567242  0.55513412  1  1.623383  -0.001132  0.228009  0.628351  -0.001301  4.158396  0.0
C  C100  1  0.65745307  0.60918625  0.08571257  1  -0.060818  0.004167  0.008423  0.021721  0.002091  3.913365  0.002
C  C101  1  0.84255268  0.10919244  0.41429840  1  -0.061322  0.004161  0.008407  0.02171  0.002088  3.913222  0.002
C  C102  1  0.35862836  0.39041983  0.90653499  1  0.004768  -0.011928  0.003531  0.013243  -0.012674  3.91727  -0.007
C  C103  1  0.14135229  0.89040103  0.59347264  1  0.003376  -0.011926  0.003726  0.013591  -0.012672  3.917011  -0.007
C  C104  1  0.63646395  0.70414927  0.12384421  1  -0.025796  0.001295  -0.07832  -0.145365  0.000432  3.949359  0.001
C  C105  1  0.86353769  0.20414522  0.37615888  1  -0.025852  0.001297  -0.07832  -0.145431  0.000433  3.949497  0.001
C  C106  1  0.37956845  0.29798307  0.86542598  1  -0.038077  0.001921  -0.078202  -0.143036  0.000475  3.956479  0.002
C  C107  1  0.12042108  0.79797695  0.63458904  1  -0.036896  0.001922  -0.078225  -0.143292  0.000474  3.956878  0.002
C  C108  1  0.52062675  0.71947781  0.15931721  1  0.492504  0.004036  0.049605  0.091708  0.001823  3.9383  0.002
C  C109  1  0.97937589  0.21946869  0.34068770  1  0.492798  0.004032  0.049592  0.091851  0.00182  3.938571  0.002
C  C110  1  0.49324657  0.28492275  0.82740270  1  0.430501  -0.009485  0.043177  0.0753  -0.010253  3.910307  -0.006
C  C111  1  0.00674762  0.78491462  0.67261275  1  0.429831  -0.009486  0.04329  0.075632  -0.010253  3.910349  -0.006
C  C112  1  0.44516976  0.55783725  0.11783631  1  0.402335  0.004478  0.053453  0.104601  0.002196  3.926637  0.003
C  C113  1  0.05483422  0.05783540  0.38217160  1  0.402598  0.004474  0.053402  0.104541  0.002194  3.926761  0.003
C  C114  1  0.57044710  0.44398625  0.87264449  1  0.478574  -0.00849  0.047542  0.088628  -0.009012  3.900451  -0.005
C  C115  1  0.92953837  0.94396601  0.62735241  1  0.478925  -0.008487  0.047748  0.088723  -0.009009  3.900596  -0.005
C  C116  1  0.55887325  0.53525457  0.08271561  1  0.059873  0.001007  -0.074039  -0.135393  0.000237  3.932163  0.001
C  C117  1  0.94113021  0.03525562  0.41729514  1  0.059738  0.001009  -0.073914  -0.135157  0.000239  3.932036  0.001
C  C118  1  0.45803012  0.46374098  0.90969078  1  -0.030718  0.00135  -0.075186  -0.135084  0.000168  3.946145  0.001
C  C119  1  0.04195195  0.96371621  0.59031098  1  -0.0295  0.001349  -0.075216  -0.134873  0.000168  3.946032  0.001
C  C120  1  0.73737746  0.28003534  0.09076807  1  1.554725  -0.000575  0.185257  0.556576  -0.000713  4.259046  0.0
C  C121  1  0.76265400  0.78004649  0.40923318  1  1.555394  -0.000576  0.185284  0.55666  -0.000713  4.259128  0.0
C  C122  1  0.27772389  0.72552528  0.90912055  1  1.54218  -0.000735  0.185029  0.555351  -0.000877  4.265017  0.0
C  C123  1  0.22226381  0.22551965  0.59086053  1  1.542116  -0.000735  0.185087  0.555293  -0.000878  4.264876  0.0
C  C124  1  0.62686918  0.23963016  0.13472046  1  -0.013393  -0.007149  0.002459  0.021679  -0.007658  3.949752  -0.004
C  C125  1  0.87315538  0.73961618  0.36528421  1  -0.013907  -0.007155  0.002442  0.021526  -0.007664  3.949736  -0.004
C  C126  1  0.38874259  0.76689431  0.86606591  1  -0.036626  -0.008372  0.002664  0.0205  -0.008872  3.947145  -0.005
C  C127  1  0.11125377  0.26689471  0.63392173  1  -0.036575  -0.00838  0.002697  0.020711  -0.00888  3.946782  -0.005
C  C128  1  0.51921337  0.19927339  0.09939417  1  -0.012877  0.004193  -0.079643  -0.143659  0.001928  3.952841  0.003
C  C129  1  0.98081764  0.69927720  0.40060846  1  -0.01272  0.004196  -0.079493  -0.143296  0.00193  3.952803  0.003
C  C130  1  0.49523779  0.80907790  0.90152534  1  -0.041631  0.000815  -0.076315  -0.138181  -5.3e-05  3.948709  0.001
C  C131  1  0.00474633  0.30908593  0.59847317  1  -0.041618  0.000817  -0.076394  -0.138498  -5.2e-05  3.948518  0.001
C  C132  1  0.41742488  0.16581748  0.14221184  1  0.44456  -0.004038  0.041638  0.08039  -0.004899  3.943354  -0.002
C  C133  1  0.08259780  0.66581422  0.35778898  1  0.444445  -0.004042  0.041584  0.080349  -0.004903  3.94354  -0.002
C  C134  1  0.59906209  0.84029813  0.85963715  1  0.458951  -0.007414  0.043324  0.06928  -0.008227  3.908242  -0.005
C  C135  1  0.90092452  0.34029176  0.64037361  1  0.459207  -0.007418  0.04341  0.069556  -0.008232  3.907469  -0.005
C  C136  1  0.52341619  0.20664182  0.25092305  1  0.434152  -0.003815  0.045834  0.086385  -0.004744  3.926849  -0.002
C  C137  1  0.97659781  0.70663377  0.24907791  1  0.433238  -0.00382  0.045767  0.086339  -0.004748  3.926801  -0.002
C  C138  1  0.49623264  0.79393771  0.75034635  1  0.443247  -0.006559  0.045414  0.072512  -0.006871  3.897649  -0.004
C  C139  1  0.00375711  0.29390994  0.74965038  1  0.443079  -0.006567  0.045336  0.072698  -0.006879  3.897717  -0.004
C  C140  1  0.62886945  0.24210801  0.21193924  1  -0.025175  0.004378  -0.076779  -0.137515  0.002107  3.938639  0.004
C  C141  1  0.87114945  0.74209959  0.28806432  1  -0.024896  0.00438  -0.076744  -0.13749  0.002108  3.938744  0.004
C  C142  1  0.38923358  0.76194813  0.78891289  1  -0.023162  0.000582  -0.074024  -0.132272  -0.000165  3.938694  0.001
C  C143  1  0.11075706  0.26191836  0.71107577  1  -0.023557  0.000584  -0.074014  -0.13232  -0.000164  3.938376  0.001
N  N144  1  0.76334401  0.50551817  0.76470529  1  -1.157223  0.004828  -0.333519  -0.309859  0.001957  3.514786  0.005
N  N145  1  0.73663810  0.00551158  0.73529426  1  -1.157375  0.00481  -0.333658  -0.309953  0.001946  3.514895  0.005
N  N146  1  0.24365661  0.49069152  0.23316253  1  -1.19407  0.065609  -0.352223  -0.367619  0.035709  3.541082  0.053
N  N147  1  0.25635836  0.99068702  0.26683719  1  -1.194087  0.06561  -0.352223  -0.367654  0.035706  3.541088  0.053
N  N148  1  0.77326427  0.68278967  0.74614960  1  -1.15123  -0.000212  -0.329786  -0.338012  -0.001424  3.508587  0.001
N  N149  1  0.72671676  0.18278104  0.75385952  1  -1.150844  -0.0002  -0.329857  -0.338097  -0.001414  3.508922  0.001
N  N150  1  0.22539066  0.31570099  0.25464916  1  -1.194067  0.06142  -0.350063  -0.393594  0.032106  3.563489  0.053
N  N151  1  0.27461762  0.81569373  0.24535425  1  -1.193991  0.06142  -0.350099  -0.393688  0.032107  3.563863  0.053
N  N152  1  0.42623840  0.64734995  0.15709770  1  -1.257371  0.059566  -0.315661  -0.234558  0.031939  3.539866  0.046
N  N153  1  0.07376141  0.14734181  0.34290393  1  -1.257104  0.059559  -0.315617  -0.234658  0.031937  3.540256  0.046
N  N154  1  0.58880793  0.35711809  0.82955549  1  -1.199245  -0.010914  -0.326358  -0.178607  -0.010233  3.606229  -0.006
N  N155  1  0.91119024  0.85711137  0.67044887  1  -1.199224  -0.010912  -0.326488  -0.178849  -0.010231  3.606397  -0.006
N  N156  1  0.41809059  0.17080333  0.21677710  1  -1.182986  0.06713  -0.318231  -0.225025  0.035613  3.544353  0.057
N  N157  1  0.08192735  0.67080886  0.28322541  1  -1.182351  0.06714  -0.318246  -0.224985  0.035619  3.544351  0.057
N  N158  1  0.60157130  0.82995326  0.78514153  1  -1.195443  -0.013599  -0.332281  -0.157573  -0.013456  3.647375  -0.01
N  N159  1  0.89840577  0.32993571  0.71486908  1  -1.195432  -0.013601  -0.332307  -0.157785  -0.013459  3.647322  -0.01
N  N160  1  0.54862087  0.67275363  0.55465008  1  -1.264726  5.1e-05  -0.395327  -0.353218  1.2e-05  3.531749  0.0
N  N161  1  0.95138211  0.17272353  0.94534521  1  -1.264991  5.1e-05  -0.395284  -0.353306  1.2e-05  3.531702  0.0
N  N162  1  0.44258492  0.32581962  0.44869912  1  -1.267977  -4.1e-05  -0.39189  -0.352528  -1.5e-05  3.528485  0.0
N  N163  1  0.05743197  0.82579490  0.05130333  1  -1.267933  -4.1e-05  -0.392103  -0.352855  -1.6e-05  3.528346  0.0
O  O164  1  0.85775983  0.38243346  0.87482678  1  -1.160799  0.036497  -0.323282  -0.599789  0.019132  2.354857  0.03
O  O165  1  0.64221213  0.88244867  0.62516279  1  -1.161611  0.036511  -0.323301  -0.599744  0.019137  2.354826  0.03
O  O166  1  0.15001087  0.61647323  0.12514994  1  -1.156403  0.049046  -0.32529  -0.610176  0.025797  2.364949  0.042
O  O167  1  0.34999071  0.11648022  0.37484862  1  -1.15659  0.049043  -0.325384  -0.610375  0.025796  2.365013  0.042
O  O168  1  0.97850334  0.51069339  0.92008881  1  -1.204956  0.003125  -0.426919  -0.701018  0.001328  2.498052  0.002
O  O169  1  0.52147110  0.01068364  0.57991849  1  -1.205287  0.003126  -0.426781  -0.700848  0.001328  2.498339  0.002
O  O170  1  0.03968943  0.48685643  0.07346573  1  -1.202732  0.00088  -0.439177  -0.708361  -0.000497  2.525264  0.001
O  O171  1  0.46030458  0.98686069  0.42653994  1  -1.202202  0.00088  -0.439183  -0.708543  -0.000496  2.52546  0.001
O  O172  1  0.94151778  0.73521564  0.91504525  1  -1.190688  0.005139  -0.416371  -0.648298  0.002105  2.406865  0.004
O  O173  1  0.55848066  0.23519342  0.58496007  1  -1.190634  0.005137  -0.416395  -0.648288  0.002104  2.407129  0.004
O  O174  1  0.06729124  0.25747458  0.08394890  1  -1.188629  0.007452  -0.409127  -0.64385  0.003683  2.376737  0.006
O  O175  1  0.43273774  0.75746106  0.41604295  1  -1.18884  0.007458  -0.409225  -0.644045  0.003687  2.376647  0.006
O  O176  1  0.86567780  0.84049754  0.82650456  1  -1.126531  0.066517  -0.290294  -0.504312  0.033982  2.391899  0.06
O  O177  1  0.63429822  0.34049725  0.67351778  1  -1.126552  0.06648  -0.290389  -0.504339  0.033961  2.39192  0.06
O  O178  1  0.13491685  0.15681101  0.17764189  1  -1.134931  0.093448  -0.300832  -0.525818  0.047999  2.37449  0.081
O  O179  1  0.36509919  0.65680882  0.32235549  1  -1.134937  0.093471  -0.300821  -0.525869  0.04801  2.37444  0.081
O  O180  1  0.78802811  0.49153583  0.01957447  1  -1.181811  0.000431  -0.381657  -0.646281  0.000137  2.348507  0.0
O  O181  1  0.71197781  0.99154508  0.48043714  1  -1.182167  0.000431  -0.381734  -0.646272  0.000136  2.348612  0.0
O  O182  1  0.22901058  0.50784478  0.97334573  1  -1.191065  -0.001457  -0.382722  -0.647894  -0.001542  2.332539  -0.001
O  O183  1  0.27097469  0.00782847  0.52665742  1  -1.190919  -0.001457  -0.382907  -0.648312  -0.001542  2.332303  -0.001
O  O184  1  0.87040974  0.65135028  0.05238605  1  -1.163959  0.000503  -0.364752  -0.632822  0.000204  2.2824  0.0
O  O185  1  0.62959062  0.15135322  0.44762036  1  -1.164066  0.000502  -0.364906  -0.63292  0.000204  2.282435  0.0
O  O186  1  0.14827333  0.34538977  0.94517930  1  -1.186946  -0.001503  -0.364749  -0.637223  -0.001583  2.251452  -0.001
O  O187  1  0.35170553  0.84537650  0.55480187  1  -1.186961  -0.001502  -0.364795  -0.637398  -0.001582  2.251475  -0.001
O  O188  1  0.82807658  0.32567883  0.12448002  1  -1.168607  -0.000705  -0.373108  -0.604459  -0.000817  2.172955  -0.001
O  O189  1  0.67194760  0.82567705  0.37551725  1  -1.168237  -0.000706  -0.373152  -0.604511  -0.000818  2.17299  -0.001
O  O190  1  0.18637615  0.68304241  0.87392905  1  -1.168363  -0.001058  -0.37522  -0.606662  -0.001109  2.171597  -0.001
O  O191  1  0.31359790  0.18302352  0.62606203  1  -1.167918  -0.001059  -0.375027  -0.606395  -0.00111  2.171486  -0.001
O  O192  1  0.73619623  0.26749768  0.02061068  1  -1.155141  -0.000687  -0.383351  -0.632332  -0.000739  2.218162  -0.001
O  O193  1  0.76382381  0.76752218  0.47938872  1  -1.15591  -0.000687  -0.383288  -0.632356  -0.00074  2.218336  -0.001
O  O194  1  0.27950535  0.73301911  0.97956174  1  -1.13936  -0.001025  -0.379411  -0.630091  -0.001082  2.216122  -0.001
O  O195  1  0.22048241  0.23304060  0.52041720  1  -1.139766  -0.001026  -0.379633  -0.630366  -0.001083  2.215983  -0.001
