# generated using pymatgen
data_ZnH10C16(NO)4
_symmetry_space_group_name_H-M   'P 1'
_cell_length_a   14.52994500
_cell_length_b   14.53049217
_cell_length_c   14.53004718
_cell_angle_alpha   107.37180150
_cell_angle_beta   107.36981581
_cell_angle_gamma   107.37100361
_symmetry_Int_Tables_number   1
_chemical_formula_structural   ZnH10C16(NO)4
_chemical_formula_sum   'Zn6 H60 C96 N24 O24'
_cell_volume   2528.50849971
_cell_formula_units_Z   6
loop_
 _symmetry_equiv_pos_site_id
 _symmetry_equiv_pos_as_xyz
  1  'x, y, z'
loop_
 _atom_site_type_symbol
 _atom_site_label
 _atom_site_symmetry_multiplicity
 _atom_site_fract_x
 _atom_site_fract_y
 _atom_site_fract_z
 _atom_site_occupancy
 _atom_site_pbe_bader_charge
 _atom_site_pbe_bader_spin_density
 _atom_site_pbe_cm5_charge
 _atom_site_pbe_ddec_charge
 _atom_site_pbe_ddec_spin_density
 _atom_site_pbe_ddec_sum_bond_order
 _atom_site_pbe_magmom
Zn  Zn0  1  0.26825532  0.73420838  0.99484958  1  1.186929  0  0.705901  0.668441  0  2.417159  0
Zn  Zn1  1  0.99485915  0.26825179  0.73421332  1  1.186767  0  0.70591  0.668384  0  2.417257  0
Zn  Zn2  1  0.73420946  0.99485940  0.26824866  1  1.186771  0  0.70593  0.66836  0  2.417243  0
Zn  Zn3  1  0.73174962  0.26579519  0.00515558  1  1.186913  0  0.705944  0.668492  0  2.417127  0
Zn  Zn4  1  0.00513702  0.73174950  0.26578372  1  1.186805  0  0.705955  0.668423  0  2.417171  0
Zn  Zn5  1  0.26578831  0.00514184  0.73175022  1  1.186809  0  0.705959  0.668359  0  2.417291  0
H  H6  1  0.08350936  0.50341751  0.90398330  1  0.117453  0  0.123302  0.078886  0  1.039615  0
H  H7  1  0.90397909  0.08349817  0.50340552  1  0.117489  0  0.123262  0.078735  0  1.039598  0
H  H8  1  0.50340751  0.90397406  0.08349511  1  0.117463  0  0.123269  0.078758  0  1.039674  0
H  H9  1  0.91648601  0.49658271  0.09601181  1  0.117602  0  0.123296  0.078819  0  1.039661  0
H  H10  1  0.09601470  0.91650067  0.49659627  1  0.117476  0  0.123307  0.07876  0  1.039636  0
H  H11  1  0.49659503  0.09602272  0.91650661  1  0.117404  0  0.123269  0.078737  0  1.039584  0
H  H12  1  0.38522855  0.69271843  0.83136840  1  0.087879  0  0.097236  0.104017  0  1.032833  0
H  H13  1  0.83139883  0.38523082  0.69273761  1  0.087953  0  0.097321  0.104089  0  1.032819  0
H  H14  1  0.69273908  0.83140904  0.38523304  1  0.087866  0  0.097316  0.104112  0  1.03277  0
H  H15  1  0.61477082  0.30728637  0.16863202  1  0.087873  0  0.097255  0.104045  0  1.032805  0
H  H16  1  0.16859257  0.61477566  0.30725818  1  0.087782  0  0.09733  0.104138  0  1.032681  0
H  H17  1  0.30727222  0.16859578  0.61476749  1  0.088094  0  0.097271  0.103998  0  1.032809  0
H  H18  1  0.41919664  0.58734910  0.68558641  1  0.028374  0  0.093337  0.087076  0  1.019813  0
H  H19  1  0.68560534  0.41919324  0.58738013  1  0.028679  0  0.093357  0.08723  0  1.019674  0
H  H20  1  0.58738591  0.68561558  0.41919489  1  0.028806  0  0.093364  0.087268  0  1.0197  0
H  H21  1  0.58080352  0.41265749  0.31441478  1  0.028293  0  0.093316  0.08703  0  1.019832  0
H  H22  1  0.31439164  0.58081704  0.41261570  1  0.028779  0  0.093368  0.087284  0  1.019661  0
H  H23  1  0.41263176  0.31438834  0.58081003  1  0.02826  0  0.093327  0.087182  0  1.019769  0
H  H24  1  0.30417916  0.39651778  0.57423829  1  0.043074  0  0.091527  0.084221  0  1.032888  0
H  H25  1  0.57424902  0.30417478  0.39654075  1  0.043579  0  0.091673  0.084481  0  1.03268  0
H  H26  1  0.39655192  0.57424666  0.30417038  1  0.043595  0  0.091721  0.084514  0  1.032611  0
H  H27  1  0.69582498  0.60348977  0.42576093  1  0.043009  0  0.091552  0.08429  0  1.032775  0
H  H28  1  0.42575033  0.69583146  0.60345114  1  0.043644  0  0.091721  0.084544  0  1.03263  0
H  H29  1  0.60346257  0.42575591  0.69583595  1  0.04388  0  0.091699  0.08449  0  1.032711  0
H  H30  1  0.15179244  0.29955612  0.60599346  1  0.070142  0  0.095003  0.102629  0  1.043391  0
H  H31  1  0.60600441  0.15179505  0.29957419  1  0.070464  0  0.095022  0.102717  0  1.043406  0
H  H32  1  0.29958012  0.60599619  0.15179248  1  0.070528  0  0.095029  0.102711  0  1.043385  0
H  H33  1  0.84820692  0.70044940  0.39400097  1  0.070116  0  0.095046  0.102761  0  1.043438  0
H  H34  1  0.39399575  0.84821297  0.70042192  1  0.070565  0  0.095023  0.102706  0  1.043366  0
H  H35  1  0.70043359  0.39400677  0.84822060  1  0.070292  0  0.09499  0.102723  0  1.043356  0
H  H36  1  0.22350202  0.76523484  0.21643229  1  0.13514  0  0.126599  0.086327  0  1.018536  0
H  H37  1  0.21643720  0.22350258  0.76524419  1  0.135277  0  0.126625  0.086388  0  1.018674  0
H  H38  1  0.76524016  0.21643718  0.22350770  1  0.134882  0  0.12664  0.086322  0  1.018626  0
H  H39  1  0.77649256  0.23476505  0.78356524  1  0.134929  0  0.12667  0.086347  0  1.018647  0
H  H40  1  0.78355898  0.77650088  0.23475626  1  0.135198  0  0.126636  0.086353  0  1.018791  0
H  H41  1  0.23475919  0.78355753  0.77649039  1  0.135015  0  0.126698  0.086459  0  1.018587  0
H  H42  1  0.82426807  0.61397326  0.03452971  1  0.082491  0  0.095563  0.098666  0  1.063954  0
H  H43  1  0.03454715  0.82428731  0.61399462  1  0.083167  0  0.095582  0.098684  0  1.064019  0
H  H44  1  0.61399440  0.03455907  0.82428189  1  0.08346  0  0.095492  0.098553  0  1.064103  0
H  H45  1  0.17572408  0.38601406  0.96545302  1  0.082762  0  0.095511  0.098624  0  1.063997  0
H  H46  1  0.96545620  0.17571703  0.38601029  1  0.082999  0  0.095558  0.098662  0  1.064078  0
H  H47  1  0.38600734  0.96544386  0.17571386  1  0.083537  0  0.095526  0.098574  0  1.064143  0
H  H48  1  0.03910643  0.64141489  0.82098352  1  0.055823  0  0.098901  0.103438  0  1.029548  0
H  H49  1  0.82098794  0.03910405  0.64141980  1  0.055795  0  0.098929  0.103442  0  1.029588  0
H  H50  1  0.64140966  0.82099635  0.03908996  1  0.056061  0  0.098823  0.103325  0  1.029626  0
H  H51  1  0.96089931  0.35859694  0.17901469  1  0.056073  0  0.098913  0.103473  0  1.029443  0
H  H52  1  0.17900904  0.96089327  0.35858868  1  0.055768  0  0.098919  0.103473  0  1.02955  0
H  H53  1  0.35858969  0.17900411  0.96090227  1  0.055969  0  0.098839  0.103376  0  1.0296  0
H  H54  1  0.73624216  0.55917867  0.83940394  1  0.01903  0  0.09388  0.091552  0  1.034748  0
H  H55  1  0.83941999  0.73625425  0.55919413  1  0.019031  0  0.093975  0.091582  0  1.034807  0
H  H56  1  0.55918497  0.83943702  0.73624009  1  0.019151  0  0.093917  0.091595  0  1.034825  0
H  H57  1  0.26375557  0.44081462  0.16057811  1  0.018783  0  0.093937  0.091572  0  1.034781  0
H  H58  1  0.16058416  0.26374466  0.44081904  1  0.019047  0  0.093931  0.091592  0  1.034873  0
H  H59  1  0.44081278  0.16056349  0.26375031  1  0.018979  0  0.093936  0.091568  0  1.034801  0
H  H60  1  0.84243218  0.57261441  0.73405604  1  0.037016  0  0.095739  0.095615  0  1.022491  0
H  H61  1  0.73406902  0.84243089  0.57262541  1  0.037122  0  0.095734  0.095591  0  1.022545  0
H  H62  1  0.57261131  0.73408437  0.84242073  1  0.037527  0  0.095701  0.095485  0  1.022436  0
H  H63  1  0.15757672  0.42739371  0.26593375  1  0.03726  0  0.095688  0.095519  0  1.022569  0
H  H64  1  0.26593434  0.15756625  0.42739181  1  0.03725  0  0.095642  0.095443  0  1.022688  0
H  H65  1  0.42738884  0.26591572  0.15757576  1  0.037551  0  0.095686  0.095461  0  1.022472  0
C  C66  1  0.12908624  0.50195055  0.85700538  1  0.997731  0  0.132931  0.175098  0  4.027126  0
C  C67  1  0.85700650  0.12907911  0.50195355  1  0.997821  0  0.132878  0.175249  0  4.027155  0
C  C68  1  0.50194966  0.85700621  0.12907658  1  0.997772  0  0.132827  0.175108  0  4.027318  0
C  C69  1  0.87091471  0.49805204  0.14299417  1  0.997659  0  0.132839  0.175115  0  4.027174  0
C  C70  1  0.14298411  0.87092127  0.49804845  1  0.997831  0  0.132782  0.175104  0  4.027271  0
C  C71  1  0.49804969  0.14299283  0.87092418  1  0.997838  0  0.132832  0.175097  0  4.027319  0
C  C72  1  0.24780116  0.55426278  0.79929560  1  0.339412  0  0.074831  0.140485  0  4.05228  0
C  C73  1  0.79930440  0.24779303  0.55427586  1  0.34021  0  0.074501  0.140091  0  4.052245  0
C  C74  1  0.55427935  0.79930839  0.24779365  1  0.340195  0  0.074502  0.139966  0  4.052154  0
C  C75  1  0.75220618  0.44574036  0.20071358  1  0.339196  0  0.074767  0.140422  0  4.05207  0
C  C76  1  0.20069018  0.75221118  0.44572020  1  0.34023  0  0.074482  0.139878  0  4.052187  0
C  C77  1  0.44572798  0.20069403  0.75221049  1  0.340248  0  0.074478  0.139941  0  4.052123  0
C  C78  1  0.33355079  0.60822345  0.78191665  1  0.012085  0  -0.10227  -0.165874  0  4.005261  0
C  C79  1  0.78193474  0.33354505  0.60824391  1  0.011143  0  -0.102236  -0.16567  0  4.005229  0
C  C80  1  0.60824717  0.78193833  0.33354556  1  0.011139  0  -0.102211  -0.165591  0  4.005182  0
C  C81  1  0.66645336  0.39177978  0.21809023  1  0.01228  0  -0.102332  -0.165952  0  4.004991  0
C  C82  1  0.21806463  0.66646047  0.39175327  1  0.011648  0  -0.102159  -0.165592  0  4.005088  0
C  C83  1  0.39176413  0.21806288  0.66645734  1  0.011003  0  -0.102177  -0.16546  0  4.005044  0
C  C84  1  0.35184841  0.54883901  0.70031686  1  -0.069888  0  -0.104005  -0.087114  0  4.052899  0
C  C85  1  0.70033542  0.35184573  0.54886234  1  -0.069575  0  -0.104191  -0.087605  0  4.053318  0
C  C86  1  0.54886741  0.70033592  0.35184382  1  -0.069747  0  -0.104253  -0.087729  0  4.053513  0
C  C87  1  0.64815574  0.45116566  0.29968838  1  -0.06987  0  -0.103927  -0.086969  0  4.052851  0
C  C88  1  0.29966553  0.64816047  0.45113277  1  -0.07008  0  -0.104285  -0.087752  0  4.053432  0
C  C89  1  0.45114310  0.29966424  0.64815853  1  -0.069066  0  -0.104193  -0.087599  0  4.053495  0
C  C90  1  0.28628639  0.43944020  0.63695739  1  -0.050934  0  -0.106434  -0.096952  0  4.067173  0
C  C91  1  0.63697280  0.28628407  0.43945967  1  -0.050265  0  -0.106417  -0.096973  0  4.067589  0
C  C92  1  0.43946844  0.63697030  0.28627983  1  -0.050238  0  -0.106454  -0.09702  0  4.067519  0
C  C93  1  0.71371695  0.56056413  0.36304200  1  -0.050845  0  -0.106484  -0.09704  0  4.06735  0
C  C94  1  0.36302656  0.71372217  0.56053360  1  -0.050144  0  -0.106428  -0.097015  0  4.067457  0
C  C95  1  0.56054207  0.36303058  0.71372549  1  -0.050411  0  -0.10642  -0.097001  0  4.067519  0
C  C96  1  0.18258875  0.44332129  0.73648307  1  0.381855  0  0.075503  0.145622  0  4.053568  0
C  C97  1  0.73649012  0.18258719  0.44333035  1  0.381351  0  0.075541  0.145607  0  4.053547  0
C  C98  1  0.44333033  0.73649013  0.18258213  1  0.381789  0  0.075583  0.145738  0  4.053347  0
C  C99  1  0.81741778  0.55668151  0.26352233  1  0.381914  0  0.07557  0.145661  0  4.053583  0
C  C100  1  0.26350446  0.81741920  0.55666705  1  0.381821  0  0.075478  0.145586  0  4.053915  0
C  C101  1  0.55667461  0.26351128  0.81742375  1  0.381663  0  0.075484  0.145486  0  4.053789  0
C  C102  1  0.20097849  0.38474792  0.65391965  1  -0.020833  0  -0.108576  -0.181806  0  4.021435  0
C  C103  1  0.65392897  0.20097910  0.38476039  1  -0.021791  0  -0.108577  -0.181875  0  4.021726  0
C  C104  1  0.38476679  0.65392666  0.20097419  1  -0.02191  0  -0.108567  -0.181799  0  4.021549  0
C  C105  1  0.79902565  0.61525747  0.34608167  1  -0.020903  0  -0.108615  -0.181971  0  4.021776  0
C  C106  1  0.34606800  0.79902758  0.61523368  1  -0.021985  0  -0.108597  -0.181848  0  4.02182  0
C  C107  1  0.61524373  0.34607567  0.79903500  1  -0.021915  0  -0.108546  -0.181827  0  4.021576  0
C  C108  1  0.15051889  0.73055145  0.14430932  1  0.967745  0  0.139212  0.193708  0  3.984913  0
C  C109  1  0.14431640  0.15052152  0.73056158  1  0.967809  0  0.139087  0.193472  0  3.985139  0
C  C110  1  0.73055317  0.14431938  0.15052766  1  0.968828  0  0.139168  0.193835  0  3.985222  0
C  C111  1  0.84947648  0.26944950  0.85568670  1  0.968088  0  0.139159  0.193725  0  3.985086  0
C  C112  1  0.85568057  0.84947867  0.26944019  1  0.967832  0  0.139079  0.193463  0  3.985366  0
C  C113  1  0.26944619  0.85567821  0.84947130  1  0.968912  0  0.139073  0.19359  0  3.985149  0
C  C114  1  0.98230453  0.66119798  0.03786548  1  0.269724  0  0.070977  0.134103  0  4.054722  0
C  C115  1  0.03787769  0.98231127  0.66121504  1  0.269789  0  0.071019  0.134036  0  4.054201  0
C  C116  1  0.66120536  0.03788530  0.98231200  1  0.269432  0  0.070999  0.134221  0  4.054167  0
C  C117  1  0.01769242  0.33879787  0.96212329  1  0.269396  0  0.071025  0.134159  0  4.054237  0
C  C118  1  0.96212407  0.01769168  0.33879173  1  0.269298  0  0.071037  0.134122  0  4.053897  0
C  C119  1  0.33879400  0.96211589  0.01768803  1  0.269329  0  0.070951  0.134095  0  4.054297  0
C  C120  1  0.87097504  0.61963083  0.98857996  1  -0.047271  0  -0.112523  -0.197588  0  4.057186  0
C  C121  1  0.98859288  0.87098548  0.61964795  1  -0.048058  0  -0.112566  -0.197636  0  4.057227  0
C  C122  1  0.61964261  0.98860582  0.87098245  1  -0.048285  0  -0.112476  -0.197578  0  4.057455  0
C  C123  1  0.12902269  0.38036173  0.01140532  1  -0.047354  0  -0.11256  -0.197713  0  4.057374  0
C  C124  1  0.01140808  0.12901784  0.38035457  1  -0.047402  0  -0.112567  -0.197611  0  4.057332  0
C  C125  1  0.38035675  0.01139755  0.12901754  1  -0.04837  0  -0.112508  -0.197604  0  4.057556  0
C  C126  1  0.04274102  0.66825697  0.97745293  1  0.338803  0  0.073306  0.136726  0  4.041133  0
C  C127  1  0.97745834  0.04274137  0.66826280  1  0.338888  0  0.073194  0.136505  0  4.040682  0
C  C128  1  0.66826024  0.97746354  0.04274115  1  0.338973  0  0.073205  0.136474  0  4.040869  0
C  C129  1  0.95725833  0.33174423  0.02254297  1  0.338863  0  0.073247  0.136594  0  4.041054  0
C  C130  1  0.02254102  0.95725550  0.33173456  1  0.338879  0  0.073125  0.136392  0  4.040788  0
C  C131  1  0.33173752  0.02253409  0.95725666  1  0.338956  0  0.073182  0.136457  0  4.04085  0
C  C132  1  0.99292394  0.63518691  0.86731513  1  0.103572  0  -0.101113  -0.159195  0  4.023446  0
C  C133  1  0.86732086  0.99292271  0.63519903  1  0.103587  0  -0.101063  -0.159038  0  4.023176  0
C  C134  1  0.63519548  0.86733167  0.99291819  1  0.104067  0  -0.101003  -0.159049  0  4.023391  0
C  C135  1  0.00707860  0.36481491  0.13268122  1  0.103646  0  -0.101094  -0.159216  0  4.023392  0
C  C136  1  0.13267850  0.00707201  0.36480733  1  0.104267  0  -0.101048  -0.159165  0  4.023318  0
C  C137  1  0.36480706  0.13266871  0.00707772  1  0.104048  0  -0.100962  -0.159037  0  4.023261  0
C  C138  1  0.82246343  0.58869340  0.87913856  1  0.047051  0  -0.111581  -0.106977  0  4.063744  0
C  C139  1  0.87915276  0.82247413  0.58871522  1  0.047067  0  -0.111595  -0.106832  0  4.064033  0
C  C140  1  0.58870395  0.87916545  0.82246536  1  0.047228  0  -0.111528  -0.106936  0  4.06424  0
C  C141  1  0.17753511  0.41130094  0.12084680  1  0.047203  0  -0.111522  -0.106795  0  4.064021  0
C  C142  1  0.12084980  0.17752700  0.41129813  1  0.047152  0  -0.111621  -0.107042  0  4.064211  0
C  C143  1  0.41129699  0.12083570  0.17753169  1  0.047403  0  -0.111535  -0.106812  0  4.064124  0
C  C144  1  0.88255429  0.59643184  0.81934305  1  -0.097354  0  -0.108531  -0.101156  0  4.050417  0
C  C145  1  0.81935479  0.88255750  0.59645259  1  -0.097383  0  -0.108682  -0.101373  0  4.050534  0
C  C146  1  0.59644252  0.81936986  0.88255283  1  -0.098407  0  -0.108606  -0.101053  0  4.050446  0
C  C147  1  0.11744664  0.40356785  0.18064530  1  -0.097777  0  -0.10856  -0.101142  0  4.050711  0
C  C148  1  0.18064538  0.11743829  0.40356259  1  -0.098276  0  -0.108495  -0.100937  0  4.050431  0
C  C149  1  0.40356001  0.18062980  0.11744494  1  -0.098282  0  -0.108616  -0.101093  0  4.050426  0
C  C150  1  0.99545355  0.39002073  0.40969183  1  2.119644  0  0.370526  0.704339  0  4.111952  0
C  C151  1  0.40971250  0.99550215  0.39002802  1  2.120859  0  0.370743  0.704664  0  4.112179  0
C  C152  1  0.39001185  0.40965546  0.99546880  1  2.121733  0  0.3707  0.704208  0  4.112482  0
C  C153  1  0.00449402  0.60996644  0.59028446  1  2.120606  0  0.370786  0.70476  0  4.112025  0
C  C154  1  0.59029956  0.00448135  0.60996226  1  2.121896  0  0.370629  0.704392  0  4.112257  0
C  C155  1  0.60998270  0.59030910  0.00454435  1  2.1206  0  0.370419  0.7038  0  4.11233  0
C  C156  1  0.98587832  0.11467709  0.17173488  1  2.121298  0  0.356948  0.724247  0  4.138037  0
C  C157  1  0.17174280  0.98588763  0.11469109  1  2.121707  0  0.356818  0.724187  0  4.13796  0
C  C158  1  0.11468911  0.17174931  0.98587974  1  2.121358  0  0.356935  0.724223  0  4.138166  0
C  C159  1  0.01412743  0.88533260  0.82827578  1  2.121337  0  0.357027  0.724243  0  4.137674  0
C  C160  1  0.82827093  0.01412688  0.88532820  1  2.120813  0  0.357018  0.724178  0  4.137941  0
C  C161  1  0.88532061  0.82825412  0.01412473  1  2.12122  0  0.356944  0.724181  0  4.137988  0
N  N162  1  0.21114648  0.58947663  0.87509561  1  -1.257879  0  -0.377547  -0.369764  0  3.54213  0
N  N163  1  0.87510196  0.21113325  0.58948245  1  -1.258407  0  -0.377411  -0.369639  0  3.542012  0
N  N164  1  0.58948146  0.87510651  0.21113494  1  -1.258552  0  -0.377346  -0.369475  0  3.542046  0
N  N165  1  0.78885846  0.41052477  0.12490889  1  -1.257772  0  -0.377512  -0.369757  0  3.542121  0
N  N166  1  0.12489024  0.78886996  0.41051743  1  -1.258761  0  -0.377392  -0.369518  0  3.541937  0
N  N167  1  0.41052029  0.12489498  0.78886658  1  -1.258507  0  -0.377366  -0.369485  0  3.54206  0
N  N168  1  0.10792511  0.41226834  0.77565983  1  -1.263102  0  -0.376305  -0.363096  0  3.533472  0
N  N169  1  0.77565941  0.10792119  0.41227032  1  -1.263051  0  -0.376242  -0.363018  0  3.533275  0
N  N170  1  0.41227014  0.77565822  0.10791723  1  -1.2631  0  -0.376277  -0.36304  0  3.533283  0
N  N171  1  0.89207584  0.58773353  0.22433950  1  -1.263054  0  -0.376262  -0.363044  0  3.533561  0
N  N172  1  0.22433120  0.89208134  0.58772888  1  -1.263217  0  -0.376182  -0.362829  0  3.533386  0
N  N173  1  0.58773400  0.22434141  0.89208995  1  -1.263123  0  -0.376182  -0.362832  0  3.533438  0
N  N174  1  0.15004250  0.71226857  0.04720906  1  -1.23721  0  -0.366282  -0.365622  0  3.47848  0
N  N175  1  0.04721768  0.15004525  0.71227458  1  -1.237163  0  -0.366172  -0.365394  0  3.478487  0
N  N176  1  0.71227220  0.04722233  0.15004603  1  -1.236962  0  -0.366152  -0.365453  0  3.478671  0
N  N177  1  0.84995766  0.28773513  0.95278989  1  -1.237262  0  -0.366309  -0.365615  0  3.478664  0
N  N178  1  0.95278008  0.84995527  0.28772477  1  -1.237123  0  -0.366187  -0.365359  0  3.47856  0
N  N179  1  0.28772795  0.95277560  0.84995050  1  -1.237182  0  -0.366197  -0.36545  0  3.478521  0
N  N180  1  0.05299925  0.70270084  0.14446255  1  -1.226886  0  -0.366779  -0.365364  0  3.478518  0
N  N181  1  0.14447456  0.05300526  0.70271901  1  -1.22721  0  -0.36675  -0.365196  0  3.478081  0
N  N182  1  0.70270691  0.14447837  0.05301399  1  -1.228196  0  -0.366864  -0.365576  0  3.478481  0
N  N183  1  0.94699372  0.29729476  0.85552909  1  -1.227024  0  -0.366755  -0.365332  0  3.478424  0
N  N184  1  0.85552242  0.94699277  0.29728625  1  -1.227119  0  -0.366714  -0.36518  0  3.477989  0
N  N185  1  0.29729165  0.85552033  0.94698643  1  -1.228154  0  -0.366764  -0.365399  0  3.478347  0
O  O186  1  0.91525390  0.32700504  0.39855401  1  -1.067561  0  -0.159901  -0.333339  0  2.230425  0
O  O187  1  0.39855738  0.91525958  0.32705869  1  -1.069245  0  -0.160291  -0.333653  0  2.23006  0
O  O188  1  0.32708117  0.39857562  0.91524961  1  -1.068929  0  -0.160276  -0.333387  0  2.230235  0
O  O189  1  0.08473510  0.67296079  0.60147577  1  -1.069543  0  -0.160248  -0.333645  0  2.230239  0
O  O190  1  0.60145945  0.08472595  0.67293293  1  -1.07029  0  -0.160391  -0.333572  0  2.229727  0
O  O191  1  0.67292772  0.60140080  0.08476377  1  -1.068103  0  -0.160059  -0.333084  0  2.230003  0
O  O192  1  0.07547416  0.45335146  0.42103885  1  -1.068758  0  -0.162843  -0.335542  0  2.191851  0
O  O193  1  0.42108037  0.07556048  0.45330859  1  -1.068286  0  -0.162696  -0.335595  0  2.19248  0
O  O194  1  0.45326144  0.42094741  0.07551110  1  -1.069453  0  -0.162662  -0.335411  0  2.192587  0
O  O195  1  0.92442958  0.54665385  0.57887956  1  -1.067774  0  -0.16277  -0.335695  0  2.192149  0
O  O196  1  0.57893010  0.92442307  0.54668398  1  -1.068276  0  -0.162475  -0.335388  0  2.19286  0
O  O197  1  0.54672756  0.57902058  0.92450898  1  -1.069159  0  -0.162599  -0.335282  0  2.192525  0
O  O198  1  0.01883510  0.04969990  0.15749838  1  -1.082773  0  -0.170982  -0.364167  0  2.328515  0
O  O199  1  0.15750930  0.01885811  0.04972407  1  -1.082831  0  -0.170903  -0.364141  0  2.328179  0
O  O200  1  0.04971252  0.15751120  0.01884074  1  -1.083584  0  -0.171024  -0.364215  0  2.328385  0
O  O201  1  0.98117226  0.95031264  0.84251911  1  -1.082941  0  -0.171111  -0.364266  0  2.328284  0
O  O202  1  0.84250363  0.98115030  0.95029522  1  -1.082451  0  -0.171037  -0.364243  0  2.328135  0
O  O203  1  0.95030198  0.84249138  0.98116627  1  -1.083234  0  -0.171062  -0.364253  0  2.328204  0
O  O204  1  0.95261746  0.17959629  0.18536602  1  -1.071891  0  -0.175478  -0.361568  0  2.274747  0
O  O205  1  0.18536853  0.95261342  0.17959855  1  -1.072381  0  -0.175432  -0.361506  0  2.274919  0
O  O206  1  0.17960440  0.18537648  0.95261268  1  -1.071151  0  -0.175426  -0.361505  0  2.275067  0
O  O207  1  0.04739069  0.82041802  0.81464328  1  -1.071814  0  -0.175426  -0.361468  0  2.274599  0
O  O208  1  0.81464842  0.04741112  0.82043294  1  -1.071832  0  -0.175497  -0.361417  0  2.274946  0
O  O209  1  0.82040133  0.81462742  0.04738385  1  -1.071342  0  -0.175398  -0.361429  0  2.274982  0
