# generated using pymatgen
data_AgH8C14N2O3F5
_symmetry_space_group_name_H-M   'P 1'
_cell_length_a   8.79950127
_cell_length_b   9.58943461
_cell_length_c   10.17479970
_cell_angle_alpha   109.36731308
_cell_angle_beta   100.16815612
_cell_angle_gamma   107.49306303
_symmetry_Int_Tables_number   1
_chemical_formula_structural   AgH8C14N2O3F5
_chemical_formula_sum   'Ag2 H16 C28 N4 O6 F10'
_cell_volume   735.22608774
_cell_formula_units_Z   2
loop_
 _symmetry_equiv_pos_site_id
 _symmetry_equiv_pos_as_xyz
  1  'x, y, z'
loop_
 _atom_site_type_symbol
 _atom_site_label
 _atom_site_symmetry_multiplicity
 _atom_site_fract_x
 _atom_site_fract_y
 _atom_site_fract_z
 _atom_site_occupancy
 _atom_site_hle17_bader_spin_density
 _atom_site_hle17_ddec_charge
 _atom_site_hle17_ddec_spin_density
 _atom_site_hle17_ddec_sum_bond_order
 _atom_site_hle17_magmom
 _atom_site_hse06_10hf_bader_spin_density
 _atom_site_hse06_10hf_ddec_charge
 _atom_site_hse06_10hf_ddec_spin_density
 _atom_site_hse06_10hf_ddec_sum_bond_order
 _atom_site_hse06_10hf_magmom
 _atom_site_hse06_bader_spin_density
 _atom_site_hse06_ddec_charge
 _atom_site_hse06_ddec_spin_density
 _atom_site_hse06_ddec_sum_bond_order
 _atom_site_hse06_magmom
 _atom_site_pbe_bader_spin_density
 _atom_site_pbe_cm5_charge
 _atom_site_pbe_ddec_charge
 _atom_site_pbe_ddec_spin_density
 _atom_site_pbe_ddec_sum_bond_order
 _atom_site_pbe_magmom
Ag  Ag0  1  0.34206710  0.49153300  0.30941444  1  0  0.57384  0  1.337859  0  0  0.433272  0  1.779696  0  0  0.461671  0  1.733421  0  0  0.45243  0.413242  0  1.81132  0
Ag  Ag1  1  0.65793198  0.50846717  0.69058446  1  0  0.57384  0  1.337865  0  0  0.433277  0  1.779709  0  0  0.461676  0  1.733432  0  0  0.452431  0.413243  0  1.811329  0
H  H2  1  0.27510027  0.46133041  0.60127720  1  0  0.090014  0  0.960034  0  0  0.095987  0  1.033039  0  0  0.099395  0  1.029087  0  0  0.113858  0.093596  0  1.035422  0
H  H3  1  0.72489996  0.53866976  0.39872188  1  0  0.090011  0  0.960068  0  0  0.09599  0  1.033063  0  0  0.099399  0  1.02911  0  0  0.113855  0.093595  0  1.035451  0
H  H4  1  0.74674215  0.19147685  0.50084750  1  0  0.111712  0  0.938993  0  0  0.118161  0  1.005687  0  0  0.121721  0  1.001784  0  0  0.109803  0.115645  0  1.008303  0
H  H5  1  0.25325740  0.80852451  0.49915479  1  0  0.111716  0  0.939072  0  0  0.118156  0  1.005773  0  0  0.121718  0  1.001867  0  0  0.109778  0.115638  0  1.008388  0
H  H6  1  0.71899286  0.13795077  0.23522868  1  0  0.108415  0  0.952221  0  0  0.116719  0  1.013637  0  0  0.11972  0  1.01327  0  0  0.102797  0.114379  0  1.01435  0
H  H7  1  0.28100785  0.86205059  0.76477281  1  0  0.108431  0  0.952216  0  0  0.116729  0  1.013642  0  0  0.119731  0  1.013273  0  0  0.102796  0.114392  0  1.014357  0
H  H8  1  0.97655727  0.25092694  0.17089034  1  0  0.074179  0  0.95938  0  0  0.079164  0  1.031446  0  0  0.08232  0  1.027472  0  0  0.104522  0.076988  0  1.034337  0
H  H9  1  0.02344016  0.74907202  0.82910989  1  0  0.074207  0  0.959345  0  0  0.079187  0  1.031415  0  0  0.082343  0  1.027441  0  0  0.104517  0.077006  0  1.034313  0
H  H10  1  0.13518563  0.48762348  0.02160418  1  0  0.094506  0  0.967263  0  0  0.098046  0  1.039053  0  0  0.101847  0  1.034399  0  0  0.115174  0.095013  0  1.04295  0
H  H11  1  0.86481460  0.51237669  0.97839588  1  0  0.094529  0  0.967259  0  0  0.098075  0  1.039045  0  0  0.101876  0  1.034391  0  0  0.115179  0.095039  0  1.042947  0
H  H12  1  0.24692028  0.20818238  0.64763302  1  0  0.110094  0  0.959956  0  0  0.116518  0  1.02612  0  0  0.119816  0  1.023307  0  0  0.107906  0.114001  0  1.028011  0
H  H13  1  0.75308225  0.79181779  0.35236740  1  0  0.110064  0  0.959968  0  0  0.116491  0  1.026137  0  0  0.119789  0  1.023324  0  0  0.107906  0.113969  0  1.028034  0
H  H14  1  0.46245323  0.18331526  0.82209869  1  0  0.109891  0  0.957982  0  0  0.116695  0  1.021061  0  0  0.120376  0  1.019241  0  0  0.102863  0.114095  0  1.022559  0
H  H15  1  0.53754603  0.81668251  0.17790146  1  0  0.109904  0  0.958001  0  0  0.116701  0  1.021071  0  0  0.12038  0  1.019253  0  0  0.102861  0.114097  0  1.022576  0
H  H16  1  0.49510002  0.30225399  0.09119272  1  0  0.086422  0  0.938319  0  0  0.094752  0  1.003877  0  0  0.097545  0  1.000954  0  0  0.112698  0.092417  0  1.006395  0
H  H17  1  0.50489857  0.69774498  0.90880671  1  0  0.086426  0  0.938307  0  0  0.094756  0  1.003864  0  0  0.097549  0  1.00094  0  0  0.112701  0.092417  0  1.006387  0
C  C18  1  0.15028765  0.38496593  0.52402808  1  0  0.10715  0  3.672577  0  0  0.070558  0  3.918874  0  0  0.077517  0  3.938421  0  0  0.051637  0.065942  0  3.905352  0
C  C19  1  0.84971191  0.61503544  0.47597127  1  0  0.107156  0  3.672635  0  0  0.070555  0  3.918907  0  0  0.077512  0  3.938458  0  0  0.051614  0.065937  0  3.905384  0
C  C20  1  0.01370296  0.32369289  0.56985765  1  0  -0.084316  0  3.749993  0  0  -0.062304  0  3.982321  0  0  -0.073548  0  4.008158  0  0  -0.013706  -0.054772  0  3.96523  0
C  C21  1  0.98629891  0.67630848  0.43014304  1  0  -0.084344  0  3.750063  0  0  -0.062264  0  3.98233  0  0  -0.07353  0  4.008153  0  0  -0.013704  -0.054724  0  3.96523  0
C  C22  1  0.85474158  0.23561752  0.46583138  1  0  6.6e-05  0  3.654193  0  0  -0.028966  0  3.902602  0  0  -0.023382  0  3.919533  0  0  -0.055086  -0.032222  0  3.890884  0
C  C23  1  0.14525798  0.76438384  0.53416993  1  0  9.8e-05  0  3.654353  0  0  -0.028942  0  3.902733  0  0  -0.023362  0  3.919671  0  0  -0.055057  -0.032199  0  3.891013  0
C  C24  1  0.83975343  0.20645536  0.31987490  1  0  -0.114548  0  3.724963  0  0  -0.123214  0  3.972953  0  0  -0.13216  0  3.996751  0  0  -0.085008  -0.117471  0  3.956869  0
C  C25  1  0.16024565  0.79354480  0.68012498  1  0  -0.11458  0  3.725053  0  0  -0.123241  0  3.97303  0  0  -0.132188  0  3.996831  0  0  -0.085013  -0.117506  0  3.956957  0
C  C26  1  0.98252137  0.27021978  0.28356213  1  0  0.128147  0  3.707657  0  0  0.093006  0  3.964835  0  0  0.100865  0  3.982729  0  0  0.041817  0.087865  0  3.95251  0
C  C27  1  0.01747818  0.72978158  0.71643819  1  0  0.12813  0  3.707645  0  0  0.092991  0  3.964818  0  0  0.100849  0  3.982712  0  0  0.04182  0.087855  0  3.952493  0
C  C28  1  0.03048934  0.36176870  0.72739444  1  0  0.403407  0  3.731429  0  0  0.381263  0  3.990217  0  0  0.403548  0  3.995611  0  0  0.166245  0.365158  0  3.987864  0
C  C29  1  0.96951369  0.63823267  0.27260544  1  0  0.403435  0  3.73137  0  0  0.381184  0  3.990274  0  0  0.403542  0  3.995559  0  0  0.166288  0.365067  0  3.987927  0
C  C30  1  0.20413327  0.41776769  0.97358550  1  0  0.125152  0  3.652406  0  0  0.085159  0  3.900099  0  0  0.093706  0  3.917154  0  0  0.053827  0.079363  0  3.889097  0
C  C31  1  0.79586880  0.58223128  0.02641251  1  0  0.125121  0  3.652394  0  0  0.085106  0  3.900086  0  0  0.093654  0  3.917144  0  0  0.05381  0.079305  0  3.889087  0
C  C32  1  0.17153240  0.34924894  0.82115737  1  0  -0.097841  0  3.757842  0  0  -0.075516  0  3.991959  0  0  -0.088002  0  4.018191  0  0  -0.018873  -0.067871  0  3.974898  0
C  C33  1  0.82847111  0.65075362  0.17884296  1  0  -0.097857  0  3.757735  0  0  -0.075475  0  3.991845  0  0  -0.087982  0  4.018061  0  0  -0.018903  -0.067823  0  3.974777  0
C  C34  1  0.26561537  0.26299606  0.76474111  1  0  -0.010199  0  3.665774  0  0  -0.03954  0  3.915096  0  0  -0.033695  0  3.932229  0  0  -0.057218  -0.042185  0  3.902423  0
C  C35  1  0.73438698  0.73700651  0.23525807  1  0  -0.010149  0  3.665872  0  0  -0.039504  0  3.91518  0  0  -0.033657  0  3.932313  0  0  -0.05722  -0.042143  0  3.902503  0
C  C36  1  0.38579093  0.24770340  0.86216012  1  0  -0.114059  0  3.721509  0  0  -0.125498  0  3.978349  0  0  -0.134296  0  4.000346  0  0  -0.084065  -0.120178  0  3.963473  0
C  C37  1  0.61421045  0.75229676  0.13784012  1  0  -0.114073  0  3.72169  0  0  -0.125494  0  3.978529  0  0  -0.13429  0  4.000526  0  0  -0.084046  -0.120175  0  3.963647  0
C  C38  1  0.40676086  0.31584063  0.01132995  1  0  0.134328  0  3.682719  0  0  0.097428  0  3.940927  0  0  0.105473  0  3.959443  0  0  0.046251  0.092867  0  3.928412  0
C  C39  1  0.59323985  0.68416073  0.98867154  1  0  0.134353  0  3.682693  0  0  0.097452  0  3.940899  0  0  0.105498  0  3.959414  0  0  0.046259  0.092898  0  3.928379  0
C  C40  1  0.56195452  0.78150071  0.60143783  1  0  0.553299  0  4.023427  0  0  0.496622  0  4.332353  0  0  0.529181  0  4.326027  0  0  0.182336  0.474722  0  4.335743  0
C  C41  1  0.43804524  0.21849826  0.39855981  1  0  0.553145  0  4.02364  0  0  0.496512  0  4.332476  0  0  0.529065  0  4.326152  0  0  0.182306  0.474602  0  4.335875  0
C  C42  1  0.68295052  0.96089900  0.69160720  1  0  0.261891  0  3.642252  0  0  0.215233  0  3.949627  0  0  0.227517  0  3.937324  0  0  0.18693  0.206491  0  3.958296  0
C  C43  1  0.31705038  0.03909997  0.30839357  1  0  0.261931  0  3.642241  0  0  0.215368  0  3.949506  0  0  0.227661  0  3.9372  0  0  0.186961  0.206628  0  3.958175  0
C  C44  1  0.74166354  0.01978121  0.86042961  1  0  0.691817  0  3.687967  0  0  0.608565  0  4.041337  0  0  0.638081  0  4.014704  0  0  0.295704  0.587611  0  4.060309  0
C  C45  1  0.25833572  0.98021656  0.13957053  1  0  0.692006  0  3.687776  0  0  0.608577  0  4.041399  0  0  0.638098  0  4.014758  0  0  0.295715  0.587618  0  4.060375  0
N  N46  1  0.13450855  0.36064326  0.38364281  1  0  -0.306365  0  3.295695  0  0  -0.229881  0  3.584244  0  0  -0.248446  0  3.60039  0  0  -0.334993  -0.21677  0  3.572846  0
N  N47  1  0.86548937  0.63935690  0.61635591  1  0  -0.306358  0  3.295621  0  0  -0.229882  0  3.584177  0  0  -0.248446  0  3.600324  0  0  -0.334975  -0.216768  0  3.572772  0
N  N48  1  0.31804148  0.40093067  0.06696389  1  0  -0.308728  0  3.287507  0  0  -0.229616  0  3.577319  0  0  -0.248383  0  3.592899  0  0  -0.333758  -0.216898  0  3.566456  0
N  N49  1  0.68195779  0.59906710  0.93303527  1  0  -0.308757  0  3.287478  0  0  -0.229644  0  3.577303  0  0  -0.248411  0  3.592882  0  0  -0.333769  -0.216926  0  3.566436  0
O  O50  1  0.92390208  0.40005124  0.77799584  1  0  -0.461769  0  1.987017  0  0  -0.419988  0  2.224013  0  0  -0.438869  0  2.217757  0  0  -0.246258  -0.407325  0  2.228941  0
O  O51  1  0.07610191  0.59995253  0.22200593  1  0  -0.461792  0  1.98704  0  0  -0.419981  0  2.224082  0  0  -0.438887  0  2.217785  0  0  -0.246284  -0.407318  0  2.229011  0
O  O52  1  0.54186751  0.73848929  0.46585546  1  0  -0.57319  0  2.082543  0  0  -0.52134  0  2.360424  0  0  -0.548099  0  2.347767  0  0  -0.323655  -0.502156  0  2.367737  0
O  O53  1  0.45813272  0.26151088  0.53414264  1  0  -0.573089  0  2.082566  0  0  -0.521277  0  2.360458  0  0  -0.548036  0  2.347804  0  0  -0.323616  -0.502089  0  2.367772  0
O  O54  1  0.49820188  0.70592450  0.67059408  1  0  -0.601081  0  2.015031  0  0  -0.56552  0  2.278144  0  0  -0.58806  0  2.266285  0  0  -0.323895  -0.549571  0  2.285907  0
O  O55  1  0.50179854  0.29407327  0.32940428  1  0  -0.60105  0  2.015107  0  0  -0.565504  0  2.278182  0  0  -0.588049  0  2.266337  0  0  -0.323899  -0.549549  0  2.285944  0
F  F56  1  0.60417803  0.05715164  0.66258425  1  0  -0.198121  0  1.204404  0  0  -0.155268  0  1.368038  0  0  -0.164821  0  1.356643  0  0  -0.097218  -0.148664  0  1.376017  0
F  F57  1  0.39582056  0.94284733  0.33741714  1  0  -0.198144  0  1.20444  0  0  -0.155293  0  1.368035  0  0  -0.16486  0  1.356646  0  0  -0.097226  -0.148686  0  1.376008  0
F  F58  1  0.82660636  0.99405881  0.65033637  1  0  -0.201214  0  1.1905  0  0  -0.157965  0  1.347343  0  0  -0.166467  0  1.337148  0  0  -0.105436  -0.151915  0  1.354709  0
F  F59  1  0.17339483  0.00594375  0.34966557  1  0  -0.201236  0  1.190447  0  0  -0.158015  0  1.347265  0  0  -0.166517  0  1.337071  0  0  -0.105447  -0.151966  0  1.354633  0
F  F60  1  0.61093975  0.00864081  0.91585558  1  0  -0.237373  0  1.193127  0  0  -0.195791  0  1.359082  0  0  -0.205635  0  1.343208  0  0  -0.090448  -0.188802  0  1.370187  0
F  F61  1  0.38905671  0.99135576  0.08414473  1  0  -0.237389  0  1.193112  0  0  -0.195777  0  1.359134  0  0  -0.205621  0  1.343258  0  0  -0.090455  -0.188786  0  1.370239  0
F  F62  1  0.82456525  0.93561227  0.90158857  1  0  -0.22934  0  1.206241  0  0  -0.19149  0  1.377074  0  0  -0.201448  0  1.362201  0  0  -0.087129  -0.184432  0  1.387553  0
F  F63  1  0.17543286  0.06438550  0.09841139  1  0  -0.229401  0  1.206183  0  0  -0.191504  0  1.377069  0  0  -0.201463  0  1.362193  0  0  -0.087125  -0.18444  0  1.387547  0
F  F64  1  0.84763118  0.17718212  0.92420231  1  0  -0.2262  0  1.183001  0  0  -0.195265  0  1.360378  0  0  -0.204999  0  1.344666  0  0  -0.090051  -0.188172  0  1.371353  0
F  F65  1  0.15236740  0.82281685  0.07579908  1  0  -0.226272  0  1.182988  0  0  -0.195295  0  1.360422  0  0  -0.205031  0  1.34471  0  0  -0.090063  -0.188201  0  1.371401  0
