# generated using pymatgen
data_TbH13(CO)10
_symmetry_space_group_name_H-M   'P 1'
_cell_length_a   6.37203721
_cell_length_b   13.16548868
_cell_length_c   17.53830000
_cell_angle_alpha   71.53611191
_cell_angle_beta   82.51786400
_cell_angle_gamma   88.69954451
_symmetry_Int_Tables_number   1
_chemical_formula_structural   TbH13(CO)10
_chemical_formula_sum   'Tb4 H52 C40 O40'
_cell_volume   1383.41592231
_cell_formula_units_Z   4
loop_
 _symmetry_equiv_pos_site_id
 _symmetry_equiv_pos_as_xyz
  1  'x, y, z'
loop_
 _atom_site_type_symbol
 _atom_site_label
 _atom_site_symmetry_multiplicity
 _atom_site_fract_x
 _atom_site_fract_y
 _atom_site_fract_z
 _atom_site_occupancy
 _atom_site_hle17_bader_spin_density
 _atom_site_hle17_ddec_charge
 _atom_site_hle17_ddec_spin_density
 _atom_site_hle17_ddec_sum_bond_order
 _atom_site_hle17_magmom
 _atom_site_hse06_10hf_bader_spin_density
 _atom_site_hse06_10hf_ddec_charge
 _atom_site_hse06_10hf_ddec_spin_density
 _atom_site_hse06_10hf_ddec_sum_bond_order
 _atom_site_hse06_10hf_magmom
 _atom_site_hse06_bader_spin_density
 _atom_site_hse06_ddec_charge
 _atom_site_hse06_ddec_spin_density
 _atom_site_hse06_ddec_sum_bond_order
 _atom_site_hse06_magmom
 _atom_site_pbe_bader_charge
 _atom_site_pbe_bader_spin_density
 _atom_site_pbe_cm5_charge
 _atom_site_pbe_ddec_charge
 _atom_site_pbe_ddec_spin_density
 _atom_site_pbe_ddec_sum_bond_order
 _atom_site_pbe_magmom
Tb  Tb0  1  0.04430650  0.60314946  0.08694025  1  0  2.257476  0  1.639436  0  0  2.110067  0  2.109295  0  0  2.229264  0  1.932546  0  2.1825  0  1.527865  2.074006  0  2.143077  0
Tb  Tb1  1  0.95569236  0.39685002  0.91305942  1  0  2.257462  0  1.639433  0  0  2.110078  0  2.10925  0  0  2.229243  0  1.932543  0  2.1825  0  1.527867  2.074013  0  2.143039  0
Tb  Tb2  1  0.96209298  0.88141887  0.44199782  1  0  2.253147  0  1.630601  0  0  2.107712  0  2.09415  0  0  2.226  0  1.920039  0  2.175106  0  1.50972  2.070632  0  2.128789  0
Tb  Tb3  1  0.03790911  0.11858221  0.55800075  1  0  2.253139  0  1.630598  0  0  2.107692  0  2.094165  0  0  2.225991  0  1.920036  0  2.175105  0  1.509716  2.070609  0  2.128808  0
H  H4  1  0.95452246  0.99293359  0.21331828  1  0  0.413742  0  0.873337  0  0  0.381373  0  0.954493  0  0  0.394558  0  0.93639  0  0.664805  0  0.30605  0.372305  0  0.964223  0
H  H5  1  0.04547482  0.00706588  0.78668317  1  0  0.413666  0  0.873329  0  0  0.381272  0  0.954518  0  0  0.394456  0  0.9365  0  0.66482  0  0.30603  0.372208  0  0.964235  0
H  H6  1  0.72474748  0.51822991  0.72460616  1  0  0.409772  0  0.896144  0  0  0.377292  0  0.971012  0  0  0.390858  0  0.952094  0  0.661356  0  0.30878  0.368056  0  0.983701  0
H  H7  1  0.27525300  0.48177037  0.27539266  1  0  0.409845  0  0.896051  0  0  0.377327  0  0.970968  0  0  0.390892  0  0.952051  0  0.661348  0  0.308797  0.368091  0  0.983681  0
H  H8  1  0.97420243  0.61634813  0.26013591  1  0  0.449981  0  0.836688  0  0  0.417358  0  0.900979  0  0  0.429459  0  0.883293  0  0.657536  0  0.305039  0.409082  0  0.913147  0
H  H9  1  0.02579957  0.38365055  0.73986322  1  0  0.449994  0  0.836671  0  0  0.417369  0  0.900962  0  0  0.429473  0  0.883278  0  0.657532  0  0.305034  0.409095  0  0.91313  0
H  H10  1  0.93390717  0.72856208  0.19771410  1  0  0.444816  0  0.812178  0  0  0.424487  0  0.86526  0  0  0.433074  0  0.853051  0  0.605602  0  0.329338  0.418608  0  0.873827  0
H  H11  1  0.06609483  0.27143660  0.80228561  1  0  0.444786  0  0.812202  0  0  0.424457  0  0.865296  0  0  0.433045  0  0.853086  0  0.605579  0  0.329323  0.418579  0  0.873862  0
H  H12  1  0.60197775  0.67452113  0.04676543  1  0  0.453942  0  0.843936  0  0  0.423929  0  0.903977  0  0  0.435715  0  0.887177  0  0.663841  0  0.301614  0.415884  0  0.915542  0
H  H13  1  0.39802111  0.32547835  0.95323480  1  0  0.453946  0  0.843927  0  0  0.423934  0  0.903969  0  0  0.435719  0  0.887171  0  0.663984  0  0.301617  0.415889  0  0.915534  0
H  H14  1  0.72238210  0.62570390  0.98044732  1  0  0.44921  0  0.841926  0  0  0.418422  0  0.905048  0  0  0.429702  0  0.88867  0  0.658188  0  0.305845  0.410552  0  0.916608  0
H  H15  1  0.27761676  0.37429558  0.01955234  1  0  0.449166  0  0.841972  0  0  0.418379  0  0.905093  0  0  0.429661  0  0.888713  0  0.658198  0  0.30581  0.410507  0  0.916654  0
H  H16  1  0.28022142  0.88415488  0.54643288  1  0  0.444915  0  0.852866  0  0  0.413096  0  0.918038  0  0  0.424507  0  0.901511  0  0.64358  0  0.302586  0.405178  0  0.929648  0
H  H17  1  0.71977902  0.11584460  0.45356614  1  0  0.444881  0  0.852916  0  0  0.41303  0  0.918119  0  0  0.424439  0  0.901598  0  0.643569  0  0.302548  0.405112  0  0.929728  0
H  H18  1  0.39436978  0.81944382  0.48931645  1  0  0.453067  0  0.842682  0  0  0.423244  0  0.903116  0  0  0.43474  0  0.886672  0  0.667097  0  0.302827  0.415402  0  0.914438  0
H  H19  1  0.60563224  0.18055566  0.51068306  1  0  0.453095  0  0.842647  0  0  0.423266  0  0.903091  0  0  0.434764  0  0.886645  0  0.667096  0  0.302838  0.415425  0  0.914413  0
H  H20  1  0.14880411  0.82005093  0.29865066  1  0  0.447696  0  0.84586  0  0  0.417294  0  0.906991  0  0  0.429093  0  0.889721  0  0.671457  0  0.301608  0.40915  0  0.919002  0
H  H21  1  0.85119630  0.17994775  0.70134912  1  0  0.447699  0  0.84585  0  0  0.417302  0  0.906974  0  0  0.4291  0  0.889704  0  0.671406  0  0.30161  0.40916  0  0.918981  0
H  H22  1  0.07812825  0.70681578  0.36505154  1  0  0.441197  0  0.85368  0  0  0.41028  0  0.916534  0  0  0.420767  0  0.901467  0  0.645141  0  0.303667  0.403154  0  0.926833  0
H  H23  1  0.92187378  0.29318369  0.63494854  1  0  0.441172  0  0.853721  0  0  0.410294  0  0.916494  0  0  0.420781  0  0.901427  0  0.645142  0  0.303698  0.403173  0  0.926788  0
H  H24  1  0.54341491  0.26422655  0.11872834  1  0  0.085881  0  0.914214  0  0  0.097483  0  0.971688  0  0  0.099539  0  0.970917  0  0.051742  0  0.107941  0.096173  0  0.971895  0
H  H25  1  0.45658560  0.73577453  0.88127086  1  0  0.08588  0  0.914243  0  0  0.097481  0  0.971718  0  0  0.099537  0  0.970947  0  0.051777  0  0.107944  0.096169  0  0.971925  0
H  H26  1  0.51888841  0.37243500  0.25022311  1  0  0.104443  0  0.913638  0  0  0.116003  0  0.969888  0  0  0.119233  0  0.967377  0  0.083153  0  0.117119  0.113809  0  0.97146  0
H  H27  1  0.48111206  0.62756528  0.74977571  1  0  0.104434  0  0.91364  0  0  0.115986  0  0.969901  0  0  0.119217  0  0.96739  0  0.083123  0  0.117109  0.113792  0  0.971473  0
H  H28  1  0.20632268  0.21324118  0.22841402  1  0  0.078388  0  0.923301  0  0  0.096755  0  0.98422  0  0  0.097723  0  0.98449  0  0.039006  0  0.096868  0.095996  0  0.98408  0
H  H29  1  0.79367941  0.78675990  0.77158454  1  0  0.078406  0  0.923307  0  0  0.096761  0  0.984233  0  0  0.097729  0  0.984501  0  0.039  0  0.096863  0.096003  0  0.984094  0
H  H30  1  0.16802982  0.28066742  0.30239627  1  0  0.096607  0  0.914348  0  0  0.112625  0  0.973595  0  0  0.114906  0  0.972449  0  0.056693  0  0.105845  0.111021  0  0.974329  0
H  H31  1  0.83197068  0.71933366  0.69760294  1  0  0.096599  0  0.914377  0  0  0.112615  0  0.973618  0  0  0.114896  0  0.972471  0  0.056608  0  0.105835  0.111011  0  0.974353  0
H  H32  1  0.48090831  0.19668257  0.36267879  1  0  0.092328  0  0.908551  0  0  0.105453  0  0.962761  0  0  0.107993  0  0.961264  0  0.051208  0  0.112301  0.103793  0  0.963489  0
H  H33  1  0.51909216  0.80331771  0.63732118  1  0  0.092312  0  0.90857  0  0  0.105443  0  0.96278  0  0  0.107984  0  0.961284  0  0.051247  0  0.112272  0.103782  0  0.963509  0
H  H34  1  0.51272246  0.07747642  0.23708135  1  0  0.095241  0  0.904804  0  0  0.107341  0  0.960149  0  0  0.10984  0  0.958789  0  0.082212  0  0.110048  0.105664  0  0.960962  0
H  H35  1  0.48727805  0.92252466  0.76291786  1  0  0.09526  0  0.904738  0  0  0.107321  0  0.960147  0  0  0.109819  0  0.958785  0  0.082208  0  0.110023  0.105644  0  0.96096  0
H  H36  1  0.85427712  0.17590301  0.17970783  1  0  0.092073  0  0.935559  0  0  0.108683  0  0.99704  0  0  0.110794  0  0.995833  0  0.035533  0  0.100764  0.107171  0  0.997834  0
H  H37  1  0.14572342  0.82409887  0.82029175  1  0  0.092068  0  0.935533  0  0  0.108667  0  0.997037  0  0  0.110778  0  0.995832  0  0.035525  0  0.10076  0.107154  0  0.997831  0
H  H38  1  0.81989924  0.24375134  0.25326197  1  0  0.083006  0  0.922414  0  0  0.1008  0  0.983406  0  0  0.102246  0  0.982931  0  0.040276  0  0.098859  0.099773  0  0.983629  0
H  H39  1  0.18010443  0.75624973  0.74673709  1  0  0.082996  0  0.922403  0  0  0.10079  0  0.983397  0  0  0.102237  0  0.982922  0  0.040279  0  0.098849  0.099764  0  0.983619  0
H  H40  1  0.42686438  0.94274596  0.91205166  1  0  0.080968  0  0.918624  0  0  0.099529  0  0.977394  0  0  0.100751  0  0.977466  0  0.046329  0  0.095838  0.098587  0  0.97742  0
H  H41  1  0.57313292  0.05725432  0.08795074  1  0  0.08106  0  0.918566  0  0  0.099563  0  0.977361  0  0  0.100786  0  0.977432  0  0.046248  0  0.095829  0.098621  0  0.97739  0
H  H42  1  0.63393831  0.85291265  0.94666105  1  0  0.093297  0  0.93938  0  0  0.107182  0  1.005165  0  0  0.109788  0  1.003318  0  0.052055  0  0.099499  0.105364  0  1.006353  0
H  H43  1  0.36605893  0.14708603  0.05334116  1  0  0.093359  0  0.939439  0  0  0.10721  0  1.005228  0  0  0.109813  0  1.003385  0  0.052024  0  0.099521  0.105392  0  1.006415  0
H  H44  1  0.54518936  0.86368768  0.08493396  1  0  0.097396  0  0.891186  0  0  0.109717  0  0.94199  0  0  0.112281  0  0.940652  0  0.059308  0  0.114053  0.107925  0  0.942875  0
H  H45  1  0.45480627  0.13631019  0.91506852  1  0  0.097364  0  0.891116  0  0  0.109647  0  0.94191  0  0  0.11221  0  0.940572  0  0.059257  0  0.11402  0.107857  0  0.942793  0
H  H46  1  0.18435186  0.00980670  0.01739989  1  0  0.103035  0  0.900324  0  0  0.113435  0  0.958107  0  0  0.116016  0  0.956663  0  0.097743  0  0.113139  0.111623  0  0.95908  0
H  H47  1  0.81564694  0.99019118  0.98260301  1  0  0.103071  0  0.900328  0  0  0.113469  0  0.958124  0  0  0.116052  0  0.95668  0  0.097975  0  0.113181  0.11166  0  0.95909  0
H  H48  1  0.39428508  0.67883739  0.41487269  1  0  0.098501  0  0.949175  0  0  0.112969  0  1.010462  0  0  0.115644  0  1.008983  0  0.084213  0  0.103985  0.111076  0  1.011495  0
H  H49  1  0.60571697  0.32116289  0.58512663  1  0  0.098489  0  0.949193  0  0  0.112958  0  1.010481  0  0  0.115634  0  1.009002  0  0.084335  0  0.103979  0.111066  0  1.011512  0
H  H50  1  0.60092996  0.59870665  0.38876469  1  0  0.084087  0  0.915986  0  0  0.102052  0  0.974141  0  0  0.103699  0  0.973436  0  0.042474  0  0.097144  0.100816  0  0.97466  0
H  H51  1  0.39907052  0.40129363  0.61123528  1  0  0.084125  0  0.915947  0  0  0.102049  0  0.974157  0  0  0.103694  0  0.973452  0  0.042464  0  0.097138  0.100813  0  0.974674  0
H  H52  1  0.43923419  0.60354432  0.55977702  1  0  0.101203  0  0.890566  0  0  0.115603  0  0.94095  0  0  0.118054  0  0.939673  0  0.082518  0  0.117092  0.113848  0  0.941879  0
H  H53  1  0.56076625  0.39645516  0.44022257  1  0  0.101234  0  0.89055  0  0  0.115629  0  0.940937  0  0  0.11808  0  0.939659  0  0.08254  0  0.117086  0.113868  0  0.941873  0
H  H54  1  0.81513221  0.48452960  0.50091346  1  0  0.102281  0  0.912476  0  0  0.109078  0  0.977707  0  0  0.111414  0  0.976965  0  0.077412  0  0.111004  0.107441  0  0.978233  0
H  H55  1  0.18486671  0.51547148  0.49908582  1  0  0.102289  0  0.912458  0  0  0.109093  0  0.977679  0  0  0.111429  0  0.976937  0  0.076916  0  0.111016  0.107456  0  0.978206  0
C  C56  1  0.61254841  0.29667418  0.16063565  1  0  -0.124881  0  3.626614  0  0  -0.131589  0  3.864293  0  0  -0.136049  0  3.875351  0  0.008856  0  -0.083477  -0.128192  0  3.855337  0
C  C57  1  0.38745213  0.70332770  0.83936337  1  0  -0.124928  0  3.626698  0  0  -0.13163  0  3.864362  0  0  -0.136088  0  3.875419  0  0.008836  0  -0.083475  -0.128222  0  3.8554  0
C  C58  1  0.44010527  0.33899500  0.21098964  1  0  -0.13389  0  3.644138  0  0  -0.141289  0  3.883876  0  0  -0.145965  0  3.895336  0  0.011615  0  -0.085825  -0.137649  0  3.874955  0
C  C59  1  0.55989837  0.66100528  0.78900904  1  0  -0.133864  0  3.644177  0  0  -0.141263  0  3.883919  0  0  -0.145942  0  3.895379  0  0.011596  0  -0.085805  -0.137624  0  3.875  0
C  C60  1  0.28847029  0.24849210  0.26586439  1  0  -0.115831  0  3.608404  0  0  -0.168575  0  3.87107  0  0  -0.168587  0  3.882172  0  -0.027528  0  -0.149938  -0.168156  0  3.862674  0
C  C61  1  0.71153022  0.75150898  0.73413482  1  0  -0.1159  0  3.6085  0  0  -0.168605  0  3.871109  0  0  -0.168622  0  3.882225  0  -0.027449  0  -0.149952  -0.168194  0  3.862723  0
C  C62  1  0.41186946  0.16118095  0.32245838  1  0  -0.121757  0  3.621082  0  0  -0.128929  0  3.859634  0  0  -0.133249  0  3.87029  0  0.014345  0  -0.082595  -0.12552  0  3.85098  0
C  C63  1  0.58813269  0.83882173  0.67753979  1  0  -0.121715  0  3.621002  0  0  -0.128907  0  3.859628  0  0  -0.133235  0  3.870278  0  0.014331  0  -0.082532  -0.125496  0  3.850977  0
C  C64  1  0.58714931  0.11720219  0.27363642  1  0  -0.121447  0  3.623783  0  0  -0.12953  0  3.866972  0  0  -0.133786  0  3.878504  0  0.001915  0  -0.085123  -0.126345  0  3.858306  0
C  C65  1  0.41285271  0.88279728  0.72636366  1  0  -0.121371  0  3.623587  0  0  -0.12945  0  3.866879  0  0  -0.133704  0  3.878413  0  -0.019984  0  -0.085094  -0.126267  0  3.858212  0
C  C66  1  0.73533625  0.20793255  0.21679413  1  0  -0.125102  0  3.611609  0  0  -0.178315  0  3.873325  0  0  -0.1786  0  3.884817  0  -0.003964  0  -0.152365  -0.177643  0  3.864685  0
C  C67  1  0.26466267  0.79206852  0.78320515  1  0  -0.125085  0  3.611538  0  0  -0.178283  0  3.873268  0  0  -0.178564  0  3.884746  0  -0.003969  0  -0.152352  -0.177615  0  3.864633  0
C  C68  1  0.77091770  0.38476465  0.11106022  1  0  0.760537  0  3.792488  0  0  0.715462  0  4.086867  0  0  0.751124  0  4.079385  0  1.587524  0  0.243388  0.691564  0  4.094206  0
C  C69  1  0.22908280  0.61523643  0.88893841  1  0  0.760661  0  3.792529  0  0  0.715578  0  4.086899  0  0  0.751241  0  4.079417  0  1.58765  0  0.243421  0.691668  0  4.094253  0
C  C70  1  0.31351230  0.42899570  0.16153578  1  0  0.697042  0  3.781907  0  0  0.645902  0  4.082755  0  0  0.678664  0  4.081389  0  1.529398  0  0.224794  0.623141  0  4.087471  0
C  C71  1  0.68648817  0.57100458  0.83846362  1  0  0.697057  0  3.781923  0  0  0.645916  0  4.082764  0  0  0.678679  0  4.081395  0  1.529465  0  0.224801  0.623156  0  4.087479  0
C  C72  1  0.25526540  0.07379050  0.37399674  1  0  0.727288  0  3.815516  0  0  0.681298  0  4.112799  0  0  0.716012  0  4.108809  0  1.56602  0  0.226964  0.657783  0  4.119251  0
C  C73  1  0.74473520  0.92621298  0.62600303  1  0  0.727138  0  3.815788  0  0  0.681153  0  4.113046  0  0  0.715892  0  4.109028  0  1.565987  0  0.226882  0.657637  0  4.119495  0
C  C74  1  0.71558061  0.03225381  0.32792020  1  0  0.697653  0  3.793538  0  0  0.647728  0  4.094299  0  0  0.680549  0  4.092691  0  1.537048  0  0.222001  0.62506  0  4.098944  0
C  C75  1  0.28441673  0.96774727  0.67207972  1  0  0.697615  0  3.793602  0  0  0.647628  0  4.094486  0  0  0.680447  0  4.092882  0  1.558988  0  0.221954  0.624961  0  4.099128  0
C  C76  1  0.54313749  0.92101328  0.95569153  1  0  -0.118675  0  3.598838  0  0  -0.172307  0  3.86066  0  0  -0.172691  0  3.872503  0  -0.025345  0  -0.151168  -0.171713  0  3.852019  0
C  C77  1  0.45686298  0.07898699  0.04431014  1  0  -0.118898  0  3.599027  0  0  -0.172469  0  3.86069  0  0  -0.172853  0  3.872527  0  -0.025254  0  -0.151178  -0.171874  0  3.85205  0
C  C78  1  0.42571519  0.88889804  0.04285213  1  0  -0.121929  0  3.623598  0  0  -0.125424  0  3.861829  0  0  -0.129832  0  3.874141  0  0.013905  0  -0.082637  -0.122046  0  3.852585  0
C  C79  1  0.57428525  0.11110144  0.95715031  1  0  -0.121761  0  3.623444  0  0  -0.125059  0  3.861359  0  0  -0.129463  0  3.873671  0  0.014604  0  -0.082524  -0.121685  0  3.852123  0
C  C80  1  0.30443933  0.98333434  0.05908100  1  0  -0.128647  0  3.624358  0  0  -0.139615  0  3.870105  0  0  -0.14482  0  3.883441  0  -0.018028  0  -0.082468  -0.135884  0  3.860434  0
C  C81  1  0.69555789  0.01666353  0.94092255  1  0  -0.128717  0  3.624351  0  0  -0.139754  0  3.870135  0  0  -0.144968  0  3.883481  0  -0.018954  0  -0.082542  -0.136023  0  3.86047  0
C  C82  1  0.28285464  0.79151187  0.05927104  1  0  0.678002  0  3.846346  0  0  0.626884  0  4.153913  0  0  0.659176  0  4.154113  0  1.509565  0  0.205485  0.604149  0  4.158607  0
C  C83  1  0.71714741  0.20848841  0.94072943  1  0  0.67794  0  3.846363  0  0  0.62678  0  4.153934  0  0  0.659071  0  4.154134  0  1.509534  0  0.205455  0.604047  0  4.158625  0
C  C84  1  0.18605958  0.95045179  0.14457574  1  0  0.690161  0  3.730989  0  0  0.638744  0  4.041399  0  0  0.671513  0  4.032347  0  1.559068  0  0.24476  0.616477  0  4.046789  0
C  C85  1  0.81394080  0.04954608  0.85542652  1  0  0.690122  0  3.731097  0  0  0.638728  0  4.041527  0  0  0.6715  0  4.032473  0  1.559179  0  0.244773  0.616459  0  4.046919  0
C  C86  1  0.47374954  0.60236854  0.43679495  1  0  -0.121826  0  3.606324  0  0  -0.171198  0  3.863203  0  0  -0.171533  0  3.87428  0  -0.014216  0  -0.152699  -0.17054  0  3.854831  0
C  C87  1  0.52625094  0.39763173  0.56320502  1  0  -0.121809  0  3.60641  0  0  -0.171172  0  3.863295  0  0  -0.171502  0  3.874363  0  -0.014362  0  -0.152688  -0.170512  0  3.854918  0
C  C88  1  0.57003438  0.59764461  0.51354439  1  0  -0.115022  0  3.629267  0  0  -0.122966  0  3.872512  0  0  -0.127202  0  3.884779  0  -0.018163  0  -0.082196  -0.119689  0  3.863298  0
C  C89  1  0.42996451  0.40235567  0.48645565  1  0  -0.115097  0  3.629348  0  0  -0.123028  0  3.872587  0  0  -0.127262  0  3.884853  0  -0.018168  0  -0.082184  -0.119749  0  3.863372  0
C  C90  1  0.68362481  0.49181815  0.54606651  1  0  -0.141882  0  3.644203  0  0  -0.153336  0  3.893837  0  0  -0.159035  0  3.907096  0  0.007477  0  -0.085237  -0.149355  0  3.884331  0
C  C91  1  0.31637408  0.50818213  0.45393297  1  0  -0.141909  0  3.644183  0  0  -0.153367  0  3.893852  0  0  -0.159068  0  3.907113  0  0.007912  0  -0.085253  -0.149384  0  3.88434  0
C  C92  1  0.71072069  0.69553296  0.49621605  1  0  0.668271  0  3.842378  0  0  0.618234  0  4.14669  0  0  0.650078  0  4.147488  0  1.532323  0  0.20298  0.595812  0  4.150824  0
C  C93  1  0.28927820  0.30446732  0.50378342  1  0  0.668306  0  3.842302  0  0  0.61826  0  4.146617  0  0  0.650104  0  4.147417  0  1.532578  0  0.203016  0.595838  0  4.15075  0
C  C94  1  0.77279034  0.48056335  0.62380227  1  0  0.717209  0  3.719718  0  0  0.660507  0  4.03163  0  0  0.695247  0  4.020225  0  1.544945  0  0.250228  0.636973  0  4.038506  0
C  C95  1  0.22720693  0.51943612  0.37619918  1  0  0.717174  0  3.719687  0  0  0.66043  0  4.031653  0  0  0.695165  0  4.020254  0  1.544913  0  0.250153  0.636895  0  4.038529  0
O  O96  1  0.81913948  0.45385845  0.14276253  1  0  -0.727026  0  1.993541  0  0  -0.678565  0  2.240632  0  0  -0.713692  0  2.225383  0  -1.198968  0  -0.397319  -0.661149  0  2.248186  0
O  O97  1  0.18085944  0.54614263  0.85723676  1  0  -0.727069  0  1.993562  0  0  -0.678612  0  2.240658  0  0  -0.713732  0  2.225406  0  -1.199091  0  -0.39733  -0.661193  0  2.248218  0
O  O98  1  0.85425938  0.38226572  0.04191367  1  0  -0.782796  0  2.10264  0  0  -0.734044  0  2.380421  0  0  -0.773528  0  2.364515  0  -1.215636  0  -0.435242  -0.715845  0  2.389374  0
O  O99  1  0.14574271  0.61773536  0.95808547  1  0  -0.782884  0  2.102672  0  0  -0.734114  0  2.380436  0  0  -0.773608  0  2.364531  0  -1.215586  0  -0.435282  -0.71591  0  2.38939  0
O  O100  1  0.29511904  0.44615422  0.08755355  1  0  -0.660989  0  1.979766  0  0  -0.604838  0  2.211596  0  0  -0.635884  0  2.202277  0  -1.188543  0  -0.319549  -0.587787  0  2.21766  0
O  O101  1  0.70487827  0.55384606  0.91244599  1  0  -0.660959  0  1.979806  0  0  -0.604801  0  2.211626  0  0  -0.635843  0  2.202304  0  -1.188549  0  -0.319529  -0.587753  0  2.217692  0
O  O102  1  0.21430213  0.49032119  0.19839263  1  0  -0.706593  0  2.102412  0  0  -0.646934  0  2.341535  0  0  -0.681793  0  2.32975  0  -1.186478  0  -0.374045  -0.628046  0  2.348781  0
O  O103  1  0.78569986  0.50967748  0.80160765  1  0  -0.706585  0  2.102403  0  0  -0.646947  0  2.341507  0  0  -0.681801  0  2.329718  0  -1.186495  0  -0.374059  -0.628056  0  2.348739  0
O  O104  1  0.22328639  0.99626150  0.34850103  1  0  -0.68933  0  1.982594  0  0  -0.641169  0  2.222802  0  0  -0.673874  0  2.211646  0  -1.176742  0  -0.384619  -0.623865  0  2.228576  0
O  O105  1  0.77671421  0.00374199  0.65149817  1  0  -0.689197  0  1.982814  0  0  -0.641036  0  2.223018  0  0  -0.67375  0  2.211852  0  -1.176759  0  -0.384517  -0.62373  0  2.228791  0
O  O106  1  0.15190336  0.08252554  0.43917255  1  0  -0.812309  0  2.087522  0  0  -0.759193  0  2.357603  0  0  -0.801184  0  2.344733  0  -1.228096  0  -0.419692  -0.740565  0  2.364957  0
O  O107  1  0.84809557  0.91747554  0.56082616  1  0  -0.812291  0  2.087466  0  0  -0.759182  0  2.357565  0  0  -0.801177  0  2.344682  0  -1.228102  0  -0.419707  -0.740552  0  2.364917  0
O  O108  1  0.71592127  0.02661840  0.40215515  1  0  -0.70286  0  2.032342  0  0  -0.642896  0  2.269104  0  0  -0.676254  0  2.259289  0  -1.195392  0  -0.359575  -0.624683  0  2.274945  0
O  O109  1  0.28408082  0.97338267  0.59784455  1  0  -0.702878  0  2.032411  0  0  -0.642877  0  2.26918  0  0  -0.676248  0  2.259386  0  -1.195402  0  -0.359555  -0.624664  0  2.275022  0
O  O110  1  0.82597917  0.96678774  0.30004654  1  0  -0.684046  0  2.012207  0  0  -0.630309  0  2.243767  0  0  -0.661795  0  2.233161  0  -1.193151  0  -0.33468  -0.612615  0  2.250392  0
O  O111  1  0.17401811  0.03321173  0.69995377  1  0  -0.684046  0  2.012243  0  0  -0.630254  0  2.243819  0  0  -0.66174  0  2.23323  0  -1.193172  0  -0.334674  -0.612562  0  2.250439  0
O  O112  1  0.36729920  0.69812239  0.07655431  1  0  -0.731227  0  2.038324  0  0  -0.67557  0  2.277807  0  0  -0.709237  0  2.265374  0  -1.189342  0  -0.385557  -0.657764  0  2.285273  0
O  O113  1  0.63269966  0.30187708  0.92344650  1  0  -0.731238  0  2.038286  0  0  -0.675588  0  2.277787  0  0  -0.709249  0  2.265355  0  -1.189351  0  -0.385569  -0.657782  0  2.285254  0
O  O114  1  0.08510064  0.79956531  0.05603163  1  0  -0.683435  0  1.914698  0  0  -0.637329  0  2.147569  0  0  -0.66935  0  2.138025  0  -1.169536  0  -0.365819  -0.620409  0  2.153433  0
O  O115  1  0.91490142  0.20043497  0.94396997  1  0  -0.683422  0  1.914688  0  0  -0.637321  0  2.147567  0  0  -0.669337  0  2.138025  0  -1.169561  0  -0.365818  -0.6204  0  2.15343  0
O  O116  1  0.03429145  0.01699833  0.15529045  1  0  -0.548765  0  2.062585  0  0  -0.501442  0  2.282111  0  0  -0.52355  0  2.262703  0  -1.188057  0  -0.327163  -0.486001  0  2.292624  0
O  O117  1  0.96571048  0.98299875  0.84471192  1  0  -0.548677  0  2.062584  0  0  -0.501335  0  2.28215  0  0  -0.523444  0  2.262812  0  -1.188111  0  -0.327152  -0.485895  0  2.292659  0
O  O118  1  0.22986990  0.86843965  0.19809326  1  0  -0.569433  0  1.944802  0  0  -0.520467  0  2.152305  0  0  -0.541122  0  2.140508  0  -1.178063  0  -0.280151  -0.506039  0  2.159772  0
O  O119  1  0.77012412  0.13155742  0.80190891  1  0  -0.56942  0  1.944877  0  0  -0.520486  0  2.152407  0  0  -0.541142  0  2.14061  0  -1.178049  0  -0.280146  -0.506057  0  2.159872  0
O  O120  1  0.63427186  0.78833455  0.46189617  1  0  -0.730935  0  2.030126  0  0  -0.674598  0  2.269552  0  0  -0.708471  0  2.258469  0  -1.198288  0  -0.388617  -0.656443  0  2.276154  0
O  O121  1  0.36572709  0.21166733  0.53810349  1  0  -0.730942  0  2.030045  0  0  -0.674604  0  2.269479  0  0  -0.708477  0  2.258399  0  -1.198507  0  -0.388623  -0.656449  0  2.27608  0
O  O122  1  0.89933949  0.68859923  0.51245279  1  0  -0.655933  0  1.934888  0  0  -0.608835  0  2.170662  0  0  -0.640313  0  2.162163  0  -1.169936  0  -0.358488  -0.591897  0  2.175984  0
O  O123  1  0.10065943  0.31140185  0.48754592  1  0  -0.655946  0  1.934897  0  0  -0.60885  0  2.170677  0  0  -0.64033  0  2.162179  0  -1.169981  0  -0.358518  -0.591909  0  2.175995  0
O  O124  1  0.66534933  0.53096244  0.66898709  1  0  -0.544629  0  2.108174  0  0  -0.492005  0  2.327938  0  0  -0.515543  0  2.309589  0  -1.198348  0  -0.316329  -0.475643  0  2.339585  0
O  O125  1  0.33465114  0.46903784  0.33101231  1  0  -0.544672  0  2.108083  0  0  -0.492015  0  2.327894  0  0  -0.515551  0  2.309546  0  -1.198324  0  -0.316315  -0.475653  0  2.339559  0
O  O126  1  0.92703550  0.42227983  0.64524873  1  0  -0.614803  0  1.957372  0  0  -0.553714  0  2.166383  0  0  -0.576821  0  2.1531  0  -1.196694  0  -0.288625  -0.53762  0  2.174698  0
O  O127  1  0.07296326  0.57771725  0.35475151  1  0  -0.614765  0  1.957338  0  0  -0.553651  0  2.166385  0  0  -0.576749  0  2.153099  0  -1.196692  0  -0.288586  -0.537549  0  2.174697  0
O  O128  1  0.92016856  0.65182252  0.20722488  1  0  -0.892046  0  1.786589  0  0  -0.843005  0  1.958382  0  0  -0.870368  0  1.919225  0  -1.231043  0  -0.62587  -0.830619  0  1.980507  0
O  O129  1  0.07983185  0.34817616  0.79277490  1  0  -0.892025  0  1.786585  0  0  -0.842978  0  1.958377  0  0  -0.870342  0  1.919215  0  -1.231025  0  -0.625852  -0.830591  0  1.9805  0
O  O130  1  0.74611718  0.66015228  0.02145870  1  0  -0.942063  0  1.81863  0  0  -0.890877  0  2.012752  0  0  -0.921519  0  1.973142  0  -1.305462  0  -0.663544  -0.876455  0  2.035874  0
O  O131  1  0.25388326  0.33984720  0.97854146  1  0  -0.942024  0  1.818641  0  0  -0.890842  0  2.012759  0  0  -0.92148  0  1.973145  0  -1.305552  0  -0.663511  -0.876422  0  2.035898  0
O  O132  1  0.25294761  0.83761792  0.51370855  1  0  -0.937193  0  1.816313  0  0  -0.889856  0  2.012113  0  0  -0.919237  0  1.972515  0  -1.293607  0  -0.66443  -0.875886  0  2.035303  0
O  O133  1  0.74705292  0.16238396  0.48628989  1  0  -0.937198  0  1.816324  0  0  -0.889794  0  2.012159  0  0  -0.919178  0  1.972559  0  -1.293613  0  -0.664398  -0.875826  0  2.035349  0
O  O134  1  0.10063818  0.78373956  0.35734047  1  0  -0.936549  0  1.877843  0  0  -0.885293  0  2.071064  0  0  -0.915126  0  2.032419  0  -1.293397  0  -0.662012  -0.87098  0  2.093543  0
O  O135  1  0.89936226  0.21625992  0.64265969  1  0  -0.936527  0  1.877873  0  0  -0.885287  0  2.071102  0  0  -0.915121  0  2.032452  0  -1.293376  0  -0.662032  -0.870984  0  2.093567  0
