# generated using pymatgen
data_CdH9C8NO7
_symmetry_space_group_name_H-M   'P 1'
_cell_length_a   8.17022580
_cell_length_b   8.24329382
_cell_length_c   19.51700000
_cell_angle_alpha   90.00000000
_cell_angle_beta   90.00000000
_cell_angle_gamma   111.50558557
_symmetry_Int_Tables_number   1
_chemical_formula_structural   CdH9C8NO7
_chemical_formula_sum   'Cd4 H36 C32 N4 O28'
_cell_volume   1222.95119022
_cell_formula_units_Z   4
loop_
 _symmetry_equiv_pos_site_id
 _symmetry_equiv_pos_as_xyz
  1  'x, y, z'
loop_
 _atom_site_type_symbol
 _atom_site_label
 _atom_site_symmetry_multiplicity
 _atom_site_fract_x
 _atom_site_fract_y
 _atom_site_fract_z
 _atom_site_occupancy
 _atom_site_hle17_bader_spin_density
 _atom_site_hle17_ddec_charge
 _atom_site_hle17_ddec_spin_density
 _atom_site_hle17_ddec_sum_bond_order
 _atom_site_hle17_magmom
 _atom_site_hse06_10hf_bader_spin_density
 _atom_site_hse06_10hf_ddec_charge
 _atom_site_hse06_10hf_ddec_spin_density
 _atom_site_hse06_10hf_ddec_sum_bond_order
 _atom_site_hse06_10hf_magmom
 _atom_site_hse06_bader_spin_density
 _atom_site_hse06_ddec_charge
 _atom_site_hse06_ddec_spin_density
 _atom_site_hse06_ddec_sum_bond_order
 _atom_site_hse06_magmom
 _atom_site_pbe_bader_charge
 _atom_site_pbe_bader_spin_density
 _atom_site_pbe_cm5_charge
 _atom_site_pbe_ddec_charge
 _atom_site_pbe_ddec_spin_density
 _atom_site_pbe_ddec_sum_bond_order
 _atom_site_pbe_magmom
Cd  Cd0  1  0.30612563  0.80399266  0.78649536  1  0  1.262635  0  1.56465  0  0  1.088505  0  2.006536  0  0  1.148076  0  1.945976  0  1.324576  0  0.76826  1.045526  0  2.048366  0
Cd  Cd1  1  0.69387672  0.69600653  0.28649485  1  0  1.262663  0  1.564596  0  0  1.088548  0  2.006468  0  0  1.148117  0  1.945907  0  1.324583  0  0.768254  1.04557  0  2.048297  0
Cd  Cd2  1  0.69387108  0.19600202  0.21350361  1  0  1.262675  0  1.564571  0  0  1.088547  0  2.006453  0  0  1.148117  0  1.945894  0  1.324598  0  0.768275  1.045569  0  2.048281  0
Cd  Cd3  1  0.30612851  0.30399467  0.71350310  1  0  1.262694  0  1.564601  0  0  1.088587  0  2.006439  0  0  1.148155  0  1.945881  0  1.324489  0  0.768278  1.045611  0  2.048264  0
H  H4  1  0.54929429  0.65218308  0.82464313  1  0  0.435321  0  0.834875  0  0  0.41099  0  0.893244  0  0  0.420251  0  0.879814  0  0.622143  0  0.304505  0.40441  0  0.902789  0
H  H5  1  0.45070513  0.84781480  0.32464364  1  0  0.43534  0  0.834829  0  0  0.411016  0  0.893199  0  0  0.420277  0  0.879769  0  0.622173  0  0.304527  0.404436  0  0.902744  0
H  H6  1  0.45069875  0.34781159  0.17535584  1  0  0.435336  0  0.834855  0  0  0.41101  0  0.893214  0  0  0.420271  0  0.879783  0  0.622289  0  0.30452  0.404429  0  0.90276  0
H  H7  1  0.54930207  0.15218509  0.67535482  1  0  0.435291  0  0.834846  0  0  0.410989  0  0.893234  0  0  0.420236  0  0.879821  0  0.622268  0  0.304515  0.404406  0  0.902786  0
H  H8  1  0.54857904  0.76679423  0.88987908  1  0  0.421451  0  0.890555  0  0  0.387519  0  0.958936  0  0  0.399658  0  0.941623  0  0.626159  0  0.281581  0.378963  0  0.971094  0
H  H9  1  0.45142353  0.73320886  0.38988113  1  0  0.421452  0  0.890545  0  0  0.387549  0  0.958892  0  0  0.399688  0  0.941579  0  0.626125  0  0.281597  0.378993  0  0.97105  0
H  H10  1  0.45142007  0.23320696  0.11011733  1  0  0.421416  0  0.890597  0  0  0.38751  0  0.958953  0  0  0.39965  0  0.941639  0  0.626115  0  0.281566  0.378954  0  0.97111  0
H  H11  1  0.54858293  0.26679233  0.61011733  1  0  0.42155  0  0.890423  0  0  0.387586  0  0.958863  0  0  0.399725  0  0.94155  0  0.626091  0  0.281609  0.379032  0  0.971019  0
H  H12  1  0.07659894  0.88891704  0.68507353  1  0  0.433274  0  0.87038  0  0  0.397273  0  0.942102  0  0  0.409243  0  0.924719  0  0.665422  0  0.285299  0.388802  0  0.954366  0
H  H13  1  0.92339785  0.61107041  0.18507199  1  0  0.433385  0  0.870232  0  0  0.397385  0  0.941949  0  0  0.409357  0  0.924563  0  0.665374  0  0.285324  0.388919  0  0.954203  0
H  H14  1  0.92339484  0.11107633  0.31492852  1  0  0.433259  0  0.870365  0  0  0.397249  0  0.942104  0  0  0.409221  0  0.924719  0  0.665384  0  0.285285  0.38878  0  0.954364  0
H  H15  1  0.07660620  0.38892427  0.81492801  1  0  0.433294  0  0.870327  0  0  0.397296  0  0.942046  0  0  0.409267  0  0.92466  0  0.665368  0  0.285302  0.388827  0  0.954306  0
H  H16  1  0.05594766  0.68990958  0.67591536  1  0  0.421811  0  0.822906  0  0  0.409706  0  0.868622  0  0  0.417145  0  0.860864  0  0.603545  0  0.321102  0.40431  0  0.874387  0
H  H17  1  0.94405744  0.81008048  0.17591382  1  0  0.42194  0  0.822724  0  0  0.409829  0  0.868456  0  0  0.417269  0  0.860694  0  0.604046  0  0.32116  0.404429  0  0.874229  0
H  H18  1  0.94404953  0.31008640  0.32408413  1  0  0.421843  0  0.822839  0  0  0.409736  0  0.868559  0  0  0.417175  0  0.860801  0  0.60358  0  0.321131  0.404339  0  0.874325  0
H  H19  1  0.05594539  0.18991420  0.82408157  1  0  0.42189  0  0.822845  0  0  0.409782  0  0.868564  0  0  0.417221  0  0.860804  0  0.60368  0  0.321166  0.404384  0  0.874333  0
H  H20  1  0.81024737  0.85969837  0.64859917  1  0  0.103014  0  0.934338  0  0  0.113586  0  0.995167  0  0  0.117099  0  0.990783  0  0.141662  0  0.13158  0.111114  0  0.998193  0
H  H21  1  0.18975042  0.64028517  0.14859610  1  0  0.102887  0  0.934442  0  0  0.113535  0  0.995213  0  0  0.117057  0  0.990818  0  0.141536  0  0.131481  0.111064  0  0.998242  0
H  H22  1  0.18975056  0.14029630  0.35140288  1  0  0.102949  0  0.934359  0  0  0.113541  0  0.995185  0  0  0.117057  0  0.9908  0  0.141732  0  0.13153  0.111074  0  0.998216  0
H  H23  1  0.81024866  0.35972255  0.85140134  1  0  0.102914  0  0.934329  0  0  0.113529  0  0.995144  0  0  0.117046  0  0.990759  0  0.141523  0  0.131531  0.111061  0  0.998177  0
H  H24  1  0.92354964  0.23462167  0.48555055  1  0  0.108002  0  0.911245  0  0  0.121018  0  0.965324  0  0  0.1247  0  0.961184  0  0.110013  0  0.115015  0.118261  0  0.968357  0
H  H25  1  0.07645533  0.26537632  0.98554132  1  0  0.108025  0  0.911277  0  0  0.121032  0  0.965353  0  0  0.124729  0  0.961192  0  0.109905  0  0.11501  0.118276  0  0.968385  0
H  H26  1  0.07645779  0.76538213  0.51445663  1  0  0.107994  0  0.911212  0  0  0.121011  0  0.965304  0  0  0.124663  0  0.961194  0  0.109976  0  0.11499  0.118254  0  0.968337  0
H  H27  1  0.92354497  0.73463140  0.01445663  1  0  0.108018  0  0.911283  0  0  0.121041  0  0.965339  0  0  0.124738  0  0.961178  0  0.109849  0  0.115035  0.118286  0  0.968368  0
H  H28  1  0.66299150  0.03014312  0.42194548  1  0  0.127124  0  0.961303  0  0  0.133346  0  1.026106  0  0  0.137751  0  1.024744  0  0.117606  0  0.106509  0.130212  0  1.027347  0
H  H29  1  0.33701859  0.46985878  0.92194087  1  0  0.127102  0  0.961301  0  0  0.133362  0  1.026067  0  0  0.137765  0  1.024708  0  0.117627  0  0.106519  0.130228  0  1.027304  0
H  H30  1  0.33702056  0.96986329  0.57805810  1  0  0.127141  0  0.961268  0  0  0.133408  0  1.026021  0  0  0.137812  0  1.024663  0  0.117663  0  0.106541  0.13027  0  1.027273  0
H  H31  1  0.66298075  0.53014633  0.07805657  1  0  0.127107  0  0.961333  0  0  0.133375  0  1.026083  0  0  0.137773  0  1.024741  0  0.117643  0  0.106509  0.130241  0  1.02732  0
H  H32  1  0.59055098  0.56320884  0.62070656  1  0  0.124935  0  0.915776  0  0  0.142631  0  0.9691  0  0  0.144189  0  0.968018  0  0.108097  0  0.127004  0.141516  0  0.969879  0
H  H33  1  0.40943968  0.93677861  0.12070605  1  0  0.124959  0  0.915774  0  0  0.142632  0  0.969138  0  0  0.144191  0  0.968049  0  0.108089  0  0.126996  0.141514  0  0.969926  0
H  H34  1  0.40945084  0.43678974  0.37929549  1  0  0.124988  0  0.91577  0  0  0.142682  0  0.969092  0  0  0.144239  0  0.968007  0  0.108131  0  0.127029  0.141567  0  0.969872  0
H  H35  1  0.59055016  0.06321737  0.87929702  1  0  0.12503  0  0.915789  0  0  0.142722  0  0.969121  0  0  0.144287  0  0.968037  0  0.108182  0  0.127048  0.141611  0  0.969889  0
H  H36  1  0.41247725  0.56998511  0.57040631  1  0  0.154318  0  0.919279  0  0  0.162641  0  0.982125  0  0  0.167288  0  0.977766  0  0.195084  0  0.131657  0.159262  0  0.985314  0
H  H37  1  0.58751605  0.93001277  0.07040478  1  0  0.15434  0  0.919243  0  0  0.162673  0  0.982075  0  0  0.167324  0  0.977723  0  0.195152  0  0.131674  0.159296  0  0.985267  0
H  H38  1  0.58752213  0.43001347  0.42959625  1  0  0.154349  0  0.919288  0  0  0.162676  0  0.982126  0  0  0.167321  0  0.977763  0  0.195072  0  0.131668  0.159294  0  0.985313  0
H  H39  1  0.41247787  0.06999755  0.92959574  1  0  0.15434  0  0.919228  0  0  0.162665  0  0.982093  0  0  0.167313  0  0.977736  0  0.194808  0  0.131648  0.15928  0  0.985279  0
C  C40  1  0.78571567  0.90192326  0.59808116  1  0  0.100116  0  3.64764  0  0  0.044647  0  3.903125  0  0  0.057853  0  3.917132  0  0.330266  0  0.056884  0.035363  0  3.895077  0
C  C41  1  0.21428064  0.59806289  0.09807757  1  0  0.100402  0  3.647562  0  0  0.044909  0  3.902935  0  0  0.058056  0  3.917041  0  0.330616  0  0.057028  0.035621  0  3.894893  0
C  C42  1  0.21428449  0.09806751  0.40192294  1  0  0.100098  0  3.647481  0  0  0.044631  0  3.902948  0  0  0.057809  0  3.917003  0  0.330376  0  0.056968  0.035336  0  3.894912  0
C  C43  1  0.78571307  0.40194352  0.90191935  1  0  0.100378  0  3.647399  0  0  0.044865  0  3.902856  0  0  0.058026  0  3.916939  0  0.330414  0  0.056926  0.035567  0  3.894825  0
C  C44  1  0.89397233  0.05724690  0.57035661  1  0  -0.146652  0  3.811017  0  0  -0.126005  0  4.063809  0  0  -0.142235  0  4.088189  0  0.11144  0  -0.031805  -0.115531  0  4.0472  0
C  C45  1  0.10602266  0.44274066  0.07035046  1  0  -0.146726  0  3.811393  0  0  -0.126047  0  4.064158  0  0  -0.142271  0  4.088532  0  0.111103  0  -0.031731  -0.115571  0  4.047546  0
C  C46  1  0.10602756  0.94274647  0.42964697  1  0  -0.146587  0  3.8113  0  0  -0.125931  0  4.064067  0  0  -0.142159  0  4.088437  0  0.11139  0  -0.03175  -0.115457  0  4.047456  0
C  C47  1  0.89397104  0.55726575  0.92964544  1  0  -0.14679  0  3.81127  0  0  -0.126138  0  4.064102  0  0  -0.142364  0  4.088474  0  0.111752  0  -0.031765  -0.115661  0  4.047494  0
C  C48  1  0.84474338  0.10702256  0.50637803  1  0  0.032609  0  3.709118  0  0  -0.003169  0  3.97077  0  0  0.007919  0  3.984335  0  -0.060331  0  -0.058381  -0.009842  0  3.961082  0
C  C49  1  0.15525573  0.39297282  0.00637291  1  0  0.032596  0  3.709183  0  0  -0.003197  0  3.970849  0  0  0.007891  0  3.984399  0  -0.060118  0  -0.05842  -0.00987  0  3.961161  0
C  C50  1  0.15525845  0.89297603  0.49362607  1  0  0.032608  0  3.708915  0  0  -0.003178  0  3.970594  0  0  0.007942  0  3.984154  0  -0.06013  0  -0.058387  -0.009852  0  3.960907  0
C  C51  1  0.84473920  0.60703359  0.99362453  1  0  0.032675  0  3.709156  0  0  -0.003103  0  3.970809  0  0  0.007984  0  3.984355  0  -0.060152  0  -0.058367  -0.009772  0  3.96111  0
C  C52  1  0.70172845  0.99582878  0.47160527  1  0  -0.243677  0  3.700337  0  0  -0.262099  0  3.970064  0  0  -0.276219  0  3.988536  0  0.005659  0  -0.101803  -0.253215  0  3.957705  0
C  C53  1  0.29827854  0.50417302  0.97160066  1  0  -0.24364  0  3.700308  0  0  -0.262146  0  3.970008  0  0  -0.276265  0  3.988468  0  0.005152  0  -0.101788  -0.253263  0  3.957655  0
C  C54  1  0.29828313  0.00417633  0.52839781  1  0  -0.243713  0  3.700383  0  0  -0.262229  0  3.970053  0  0  -0.276346  0  3.9885  0  0.00526  0  -0.101823  -0.253347  0  3.957698  0
C  C55  1  0.70171735  0.49583600  0.02839678  1  0  -0.243575  0  3.700235  0  0  -0.262105  0  3.969976  0  0  -0.276224  0  3.988433  0  0.005154  0  -0.101757  -0.253221  0  3.957627  0
C  C56  1  0.59401357  0.82965825  0.49913870  1  0  0.507999  0  3.820815  0  0  0.464009  0  4.103223  0  0  0.491747  0  4.108693  0  1.215323  0  0.225532  0.445744  0  4.09869  0
C  C57  1  0.40598121  0.67033702  0.99913511  1  0  0.507984  0  3.820779  0  0  0.464137  0  4.102955  0  0  0.49188  0  4.108413  0  1.215453  0  0.225638  0.445872  0  4.098424  0
C  C58  1  0.40598143  0.17033512  0.50086386  1  0  0.507863  0  3.820878  0  0  0.464071  0  4.103025  0  0  0.491812  0  4.108489  0  1.215363  0  0.225592  0.445805  0  4.098491  0
C  C59  1  0.59401420  0.32967070  0.00086233  1  0  0.507842  0  3.82082  0  0  0.463964  0  4.103055  0  0  0.491706  0  4.108516  0  1.215102  0  0.22553  0.445698  0  4.098522  0
C  C60  1  0.05283137  0.16470105  0.60931188  1  0  0.646678  0  3.963066  0  0  0.59564  0  4.256802  0  0  0.630036  0  4.253341  0  1.573782  0  0.194861  0.572404  0  4.258152  0
C  C61  1  0.94716948  0.33528912  0.10930676  1  0  0.646492  0  3.963104  0  0  0.595433  0  4.256872  0  0  0.629837  0  4.253401  0  1.573837  0  0.194628  0.572197  0  4.258219  0
C  C62  1  0.94717268  0.83529363  0.39069273  1  0  0.646599  0  3.962962  0  0  0.595579  0  4.256672  0  0  0.629981  0  4.253205  0  1.573362  0  0.19472  0.572342  0  4.258021  0
C  C63  1  0.05283134  0.66471338  0.89069324  1  0  0.64647  0  3.963029  0  0  0.595428  0  4.256786  0  0  0.629831  0  4.253318  0  1.57342  0  0.194596  0.57219  0  4.258135  0
C  C64  1  0.52104257  0.64770816  0.60381257  1  0  -0.178331  0  3.618473  0  0  -0.242222  0  3.869181  0  0  -0.242765  0  3.874213  0  0.239602  0  -0.055053  -0.24158  0  3.865604  0
C  C65  1  0.47895173  0.85228581  0.10381155  1  0  -0.178244  0  3.618213  0  0  -0.242133  0  3.869027  0  0  -0.242663  0  3.87403  0  0.23958  0  -0.055035  -0.241487  0  3.865433  0
C  C66  1  0.47896096  0.35229173  0.39618794  1  0  -0.178495  0  3.618571  0  0  -0.242396  0  3.8693  0  0  -0.242925  0  3.874309  0  0.239573  0  -0.05512  -0.241746  0  3.865712  0
C  C67  1  0.52104005  0.14771539  0.89618743  1  0  -0.17832  0  3.618445  0  0  -0.242266  0  3.869228  0  0  -0.24281  0  3.874249  0  0.239781  0  -0.055086  -0.241614  0  3.865646  0
C  C68  1  0.44749777  0.70939478  0.66612031  1  0  0.686638  0  3.851234  0  0  0.638549  0  4.148183  0  0  0.672054  0  4.143438  0  1.565075  0  0.212619  0.61572  0  4.150461  0
C  C69  1  0.55249679  0.79059658  0.16611928  1  0  0.686554  0  3.850828  0  0  0.638354  0  4.147957  0  0  0.671853  0  4.14322  0  1.565205  0  0.212576  0.615525  0  4.150234  0
C  C70  1  0.55250257  0.29060642  0.33388123  1  0  0.686393  0  3.85163  0  0  0.638359  0  4.148498  0  0  0.671862  0  4.143756  0  1.564943  0  0.212528  0.61553  0  4.150774  0
C  C71  1  0.44749260  0.20939157  0.83387969  1  0  0.686422  0  3.851091  0  0  0.638275  0  4.148138  0  0  0.671778  0  4.143392  0  1.565016  0  0.212467  0.615445  0  4.150414  0
N  N72  1  0.64038160  0.79468295  0.56524825  1  0  -0.109527  0  3.480538  0  0  -0.018004  0  3.698587  0  0  -0.036923  0  3.720849  0  -1.195938  0  -0.230524  -0.005512  0  3.683143  0
N  N73  1  0.35961638  0.70531102  0.06524517  1  0  -0.109792  0  3.480471  0  0  -0.018316  0  3.698532  0  0  -0.037223  0  3.720776  0  -1.195802  0  -0.230662  -0.005825  0  3.683096  0
N  N74  1  0.35962486  0.20531825  0.43475432  1  0  -0.109239  0  3.480149  0  0  -0.017821  0  3.698195  0  0  -0.036733  0  3.720448  0  -1.195872  0  -0.230555  -0.005331  0  3.682755  0
N  N75  1  0.64037707  0.29469800  0.93475227  1  0  -0.109781  0  3.480536  0  0  -0.018231  0  3.698577  0  0  -0.037146  0  3.720828  0  -1.195608  0  -0.230575  -0.005739  0  3.683137  0
O  O76  1  0.55036519  0.76715932  0.83766921  1  0  -0.855539  0  1.818931  0  0  -0.795554  0  2.001387  0  0  -0.81812  0  1.96681  0  -1.22177  0  -0.591068  -0.779637  0  2.025481  0
O  O77  1  0.44964009  0.73284117  0.33767075  1  0  -0.855554  0  1.818904  0  0  -0.795601  0  2.001325  0  0  -0.818166  0  1.966745  0  -1.221756  0  -0.591094  -0.779682  0  2.025423  0
O  O78  1  0.44963444  0.23283666  0.16232874  1  0  -0.85554  0  1.818959  0  0  -0.795574  0  2.001341  0  0  -0.818139  0  1.966763  0  -1.221871  0  -0.591063  -0.779653  0  2.025438  0
O  O79  1  0.55036589  0.26715872  0.66232720  1  0  -0.85562  0  1.818802  0  0  -0.795667  0  2.001271  0  0  -0.818215  0  1.966724  0  -1.221862  0  -0.591134  -0.779747  0  2.025367  0
O  O80  1  0.36132365  0.59211458  0.70978224  1  0  -0.694371  0  2.091116  0  0  -0.610392  0  2.354693  0  0  -0.645625  0  2.342587  0  -1.165578  0  -0.330919  -0.585529  0  2.361987  0
O  O81  1  0.63866868  0.90788069  0.20978122  1  0  -0.694362  0  2.090926  0  0  -0.610334  0  2.354546  0  0  -0.645571  0  2.342451  0  -1.165549  0  -0.330952  -0.585479  0  2.361851  0
O  O82  1  0.63867034  0.40788270  0.29021827  1  0  -0.694253  0  2.091267  0  0  -0.6103  0  2.354814  0  0  -0.645535  0  2.342713  0  -1.165562  0  -0.330886  -0.585444  0  2.362117  0
O  O83  1  0.36132877  0.09211268  0.79021725  1  0  -0.694293  0  2.091096  0  0  -0.610294  0  2.354694  0  0  -0.645523  0  2.342582  0  -1.165668  0  -0.330891  -0.585433  0  2.361989  0
O  O84  1  0.06566729  0.77883688  0.71008505  1  0  -0.823494  0  1.79947  0  0  -0.769483  0  1.97524  0  0  -0.790073  0  1.945777  0  -1.238848  0  -0.581993  -0.75487  0  1.995778  0
O  O85  1  0.93432949  0.72115057  0.21008403  1  0  -0.823733  0  1.799207  0  0  -0.769718  0  1.97498  0  0  -0.790307  0  1.94551  0  -1.239312  0  -0.582073  -0.755105  0  1.995517  0
O  O86  1  0.93432600  0.22115519  0.28991495  1  0  -0.823504  0  1.799394  0  0  -0.769489  0  1.975168  0  0  -0.790079  0  1.945704  0  -1.238807  0  -0.582004  -0.754877  0  1.995703  0
O  O87  1  0.06567063  0.27884671  0.78991392  1  0  -0.82359  0  1.799381  0  0  -0.76958  0  1.97514  0  0  -0.790168  0  1.945674  0  -1.238921  0  -0.58206  -0.754969  0  1.995678  0
O  O88  1  0.09902674  0.08576017  0.65942204  1  0  -0.704377  0  2.085307  0  0  -0.622898  0  2.32837  0  0  -0.656889  0  2.318601  0  -1.170246  0  -0.338918  -0.598875  0  2.334105  0
O  O89  1  0.90097044  0.41422999  0.15941589  1  0  -0.704221  0  2.085203  0  0  -0.622766  0  2.3283  0  0  -0.656748  0  2.318515  0  -1.170447  0  -0.338776  -0.598748  0  2.334036  0
O  O90  1  0.90097512  0.91423190  0.34058206  1  0  -0.704277  0  2.085246  0  0  -0.622804  0  2.328305  0  0  -0.656787  0  2.318516  0  -1.170324  0  -0.338823  -0.598784  0  2.334044  0
O  O91  1  0.09903112  0.58577120  0.84058513  1  0  -0.704193  0  2.085192  0  0  -0.622741  0  2.328296  0  0  -0.656723  0  2.318512  0  -1.170451  0  -0.338769  -0.598722  0  2.334039  0
O  O92  1  0.46314225  0.71818685  0.47018036  1  0  -0.56661  0  1.973571  0  0  -0.51695  0  2.187409  0  0  -0.541112  0  2.181215  0  -1.1529  0  -0.302729  -0.500081  0  2.191016  0
O  O93  1  0.53685884  0.78181886  0.97017677  1  0  -0.566604  0  1.973403  0  0  -0.516965  0  2.187162  0  0  -0.541132  0  2.180967  0  -1.153008  0  -0.302793  -0.500097  0  2.190771  0
O  O94  1  0.53686907  0.28182087  0.52982067  1  0  -0.566649  0  1.973392  0  0  -0.51701  0  2.187139  0  0  -0.541176  0  2.180943  0  -1.153021  0  -0.302759  -0.500135  0  2.190745  0
O  O95  1  0.46313950  0.21819016  0.02981964  1  0  -0.566535  0  1.973559  0  0  -0.5169  0  2.187327  0  0  -0.541064  0  2.18113  0  -1.15292  0  -0.302759  -0.500028  0  2.190933  0
O  O96  1  0.47019003  0.86753600  0.67457908  1  0  -0.628617  0  1.953865  0  0  -0.572904  0  2.185774  0  0  -0.600125  0  2.176458  0  -1.168835  0  -0.309407  -0.553685  0  2.191424  0
O  O97  1  0.52981406  0.63245797  0.17457601  1  0  -0.628536  0  1.953639  0  0  -0.572811  0  2.185622  0  0  -0.600023  0  2.176309  0  -1.168972  0  -0.309339  -0.553592  0  2.191267  0
O  O98  1  0.52982010  0.13246519  0.32542348  1  0  -0.628522  0  1.953948  0  0  -0.572815  0  2.18579  0  0  -0.600035  0  2.176482  0  -1.168719  0  -0.309336  -0.553594  0  2.191435  0
O  O99  1  0.47017433  0.36753410  0.82541938  1  0  -0.628481  0  1.953635  0  0  -0.572722  0  2.185535  0  0  -0.59994  0  2.176222  0  -1.168671  0  -0.309276  -0.553509  0  2.191191  0
O  O100  1  0.13539255  0.32169485  0.59480299  1  0  -0.614725  0  1.876352  0  0  -0.570405  0  2.091347  0  0  -0.594955  0  2.082404  0  -1.180911  0  -0.329816  -0.55327  0  2.096902  0
O  O101  1  0.86461249  0.17829010  0.09479838  1  0  -0.614702  0  1.876214  0  0  -0.570354  0  2.091183  0  0  -0.594912  0  2.082242  0  -1.180588  0  -0.329757  -0.55322  0  2.09674  0
O  O102  1  0.86461740  0.67829591  0.40520059  1  0  -0.614785  0  1.876149  0  0  -0.570458  0  2.091107  0  0  -0.595009  0  2.082157  0  -1.180478  0  -0.329802  -0.553321  0  2.096662  0
O  O103  1  0.13539248  0.82171371  0.90520264  1  0  -0.61469  0  1.876126  0  0  -0.570342  0  2.091096  0  0  -0.594897  0  2.082155  0  -1.180413  0  -0.329745  -0.553205  0  2.096649  0
