# generated using pymatgen
data_SnH14(C2O)3
_symmetry_space_group_name_H-M   'P 1'
_cell_length_a   6.34538633
_cell_length_b   7.82807790
_cell_length_c   9.95130276
_cell_angle_alpha   103.35062245
_cell_angle_beta   104.55059770
_cell_angle_gamma   97.97831191
_symmetry_Int_Tables_number   1
_chemical_formula_structural   SnH14(C2O)3
_chemical_formula_sum   'Sn2 H28 C12 O6'
_cell_volume   455.24003177
_cell_formula_units_Z   2
loop_
 _symmetry_equiv_pos_site_id
 _symmetry_equiv_pos_as_xyz
  1  'x, y, z'
loop_
 _atom_site_type_symbol
 _atom_site_label
 _atom_site_symmetry_multiplicity
 _atom_site_fract_x
 _atom_site_fract_y
 _atom_site_fract_z
 _atom_site_occupancy
 _atom_site_hle17_bader_spin_density
 _atom_site_hle17_ddec_charge
 _atom_site_hle17_ddec_spin_density
 _atom_site_hle17_ddec_sum_bond_order
 _atom_site_hle17_magmom
 _atom_site_hse06_10hf_bader_spin_density
 _atom_site_hse06_10hf_ddec_charge
 _atom_site_hse06_10hf_ddec_spin_density
 _atom_site_hse06_10hf_ddec_sum_bond_order
 _atom_site_hse06_10hf_magmom
 _atom_site_hse06_bader_spin_density
 _atom_site_hse06_ddec_charge
 _atom_site_hse06_ddec_spin_density
 _atom_site_hse06_ddec_sum_bond_order
 _atom_site_hse06_magmom
 _atom_site_pbe_bader_spin_density
 _atom_site_pbe_cm5_charge
 _atom_site_pbe_ddec_charge
 _atom_site_pbe_ddec_spin_density
 _atom_site_pbe_ddec_sum_bond_order
 _atom_site_pbe_magmom
Sn  Sn0  1  0.21218808  0.41775218  0.23724363  1  0  1.384766  0  2.850105  0  0  1.255867  0  3.338756  0  0  1.295053  0  3.322046  0  0  0.526162  1.229008  0  3.349573  0
Sn  Sn1  1  0.79489653  0.57302214  0.76145455  1  0  1.387778  0  2.846653  0  0  1.2566  0  3.338121  0  0  1.295736  0  3.321543  0  0  0.52311  1.229786  0  3.349187  0
H  H2  1  0.14204814  0.85850671  0.88228499  1  0  0.142096  0  1.011824  0  0  0.157399  0  1.076844  0  0  0.160027  0  1.077036  0  0  0.079274  0.155472  0  1.076839  0
H  H3  1  0.16576989  0.70284928  0.99051697  1  0  0.159932  0  0.995503  0  0  0.179622  0  1.048609  0  0  0.182141  0  1.049671  0  0  0.088968  0.177725  0  1.048048  0
H  H4  1  0.97964516  0.85357110  0.00419316  1  0  0.154457  0  0.995073  0  0  0.170944  0  1.055239  0  0  0.173924  0  1.055397  0  0  0.083473  0.168757  0  1.055284  0
H  H5  1  0.68353382  0.97587032  0.83285416  1  0  0.084706  0  0.947975  0  0  0.094866  0  1.01528  0  0  0.097117  0  1.013819  0  0  0.107509  0.093312  0  1.016306  0
H  H6  1  0.50914032  0.08603478  0.92318753  1  0  0.071894  0  0.940069  0  0  0.083699  0  1.006719  0  0  0.085139  0  1.005863  0  0  0.105299  0.082684  0  1.007435  0
H  H7  1  0.66928981  0.01399941  0.50321572  1  0  0.087191  0  0.944507  0  0  0.096764  0  1.010058  0  0  0.099154  0  1.00828  0  0  0.106827  0.095164  0  1.011334  0
H  H8  1  0.85631842  0.90485332  0.42615486  1  0  0.079061  0  0.938525  0  0  0.091559  0  1.003828  0  0  0.092809  0  1.003536  0  0  0.107531  0.090761  0  1.004022  0
H  H9  1  0.91346052  0.59003128  0.33558255  1  0  0.150601  0  0.999218  0  0  0.169903  0  1.054263  0  0  0.172085  0  1.055746  0  0  0.084094  0.168227  0  1.053514  0
H  H10  1  0.92427279  0.62883901  0.16701651  1  0  0.160411  0  0.996949  0  0  0.179983  0  1.050713  0  0  0.182601  0  1.051931  0  0  0.088582  0.178123  0  1.049984  0
H  H11  1  0.14124808  0.75048864  0.32903554  1  0  0.155334  0  1.007648  0  0  0.168623  0  1.073151  0  0  0.171852  0  1.072896  0  0  0.084233  0.166266  0  1.073432  0
H  H12  1  0.71761247  0.29878310  0.52328891  1  0  0.148154  0  1.013781  0  0  0.163918  0  1.077877  0  0  0.166636  0  1.077962  0  0  0.085067  0.161859  0  1.07802  0
H  H13  1  0.98084981  0.30439658  0.64627758  1  0  0.156869  0  0.987546  0  0  0.176324  0  1.042205  0  0  0.178619  0  1.043483  0  0  0.087374  0.174632  0  1.041441  0
H  H14  1  0.95794944  0.45854970  0.53766370  1  0  0.148275  0  0.999577  0  0  0.169867  0  1.052225  0  0  0.172099  0  1.053571  0  0  0.086885  0.168113  0  1.051547  0
H  H15  1  0.35460995  0.56533746  0.66899892  1  0  0.153633  0  1.003682  0  0  0.172048  0  1.060726  0  0  0.17495  0  1.061167  0  0  0.08598  0.169904  0  1.060685  0
H  H16  1  0.45838845  0.68648544  0.85635638  1  0  0.145548  0  1.005883  0  0  0.163933  0  1.06533  0  0  0.165797  0  1.067477  0  0  0.082652  0.162566  0  1.063947  0
H  H17  1  0.40291569  0.44606826  0.80347520  1  0  0.16081  0  1.004536  0  0  0.177426  0  1.061458  0  0  0.180575  0  1.061772  0  0  0.087587  0.175071  0  1.061398  0
H  H18  1  0.49851274  0.55130899  0.10921494  1  0  0.162877  0  0.99708  0  0  0.180193  0  1.053182  0  0  0.183343  0  1.053443  0  0  0.088615  0.177846  0  1.0532  0
H  H19  1  0.33375141  0.33889503  0.99258577  1  0  0.154126  0  0.99447  0  0  0.172073  0  1.050673  0  0  0.17493  0  1.050947  0  0  0.085752  0.170008  0  1.050661  0
H  H20  1  0.56573055  0.34842057  0.14354045  1  0  0.148399  0  1.002924  0  0  0.166558  0  1.061663  0  0  0.168892  0  1.063047  0  0  0.084305  0.164866  0  1.060785  0
H  H21  1  0.04815690  0.19103436  0.37189703  1  0  0.142833  0  1.017294  0  0  0.159832  0  1.081146  0  0  0.161789  0  1.082781  0  0  0.080989  0.158478  0  1.079948  0
H  H22  1  0.33387522  0.28928879  0.46950049  1  0  0.157807  0  1.002217  0  0  0.177106  0  1.056936  0  0  0.179573  0  1.057909  0  0  0.087918  0.175382  0  1.056266  0
H  H23  1  0.26253968  0.10666668  0.30766681  1  0  0.157335  0  0.993793  0  0  0.174777  0  1.052012  0  0  0.177481  0  1.052453  0  0  0.085383  0.172859  0  1.051828  0
H  H24  1  0.23804631  0.05134454  0.55622428  1  0  0.089349  0  0.965992  0  0  0.108193  0  1.030373  0  0  0.108618  0  1.03083  0  0  0.099737  0.107756  0  1.030179  0
H  H25  1  0.18923720  0.04070204  0.72424216  1  0  0.074785  0  0.943931  0  0  0.090236  0  1.012306  0  0  0.092275  0  1.010067  0  0  0.090717  0.088654  0  1.014051  0
H  H26  1  0.32247480  0.88014946  0.63757809  1  0  0.075814  0  0.942527  0  0  0.094876  0  1.005879  0  0  0.095839  0  1.005691  0  0  0.093041  0.094053  0  1.006138  0
H  H27  1  0.47546508  0.92655831  0.10701801  1  0  0.086249  0  0.959895  0  0  0.105355  0  1.024282  0  0  0.105837  0  1.024222  0  0  0.099301  0.104895  0  1.02443  0
H  H28  1  0.76358787  0.93454358  0.19239523  1  0  0.076037  0  0.949609  0  0  0.091994  0  1.018759  0  0  0.093508  0  1.017423  0  0  0.092169  0.090801  0  1.019819  0
H  H29  1  0.62856142  0.10313904  0.26617032  1  0  0.069706  0  0.950854  0  0  0.088941  0  1.016392  0  0  0.089892  0  1.015938  0  0  0.092627  0.088124  0  1.016854  0
C  C30  1  0.05269176  0.77119749  0.93053814  1  0  -0.720289  0  3.515668  0  0  -0.758652  0  3.744092  0  0  -0.772492  0  3.749988  0  0  -0.339868  -0.749018  0  3.740219  0
C  C31  1  0.82312253  0.24899368  0.95290308  1  0  0.684567  0  3.843545  0  0  0.630997  0  4.144652  0  0  0.664828  0  4.135634  0  0  0.232474  0.608049  0  4.150137  0
C  C32  1  0.62420987  0.10232504  0.85779996  1  0  -0.083993  0  3.685285  0  0  -0.13747  0  3.946237  0  0  -0.135669  0  3.94753  0  0  -0.068967  -0.13887  0  3.945471  0
C  C33  1  0.65060827  0.74066388  0.50519465  1  0  0.680055  0  3.851365  0  0  0.62463  0  4.157213  0  0  0.658467  0  4.148252  0  0  0.228611  0.601774  0  4.162648  0
C  C34  1  0.68299550  0.88784947  0.43166237  1  0  -0.087282  0  3.679967  0  0  -0.13873  0  3.937461  0  0  -0.137279  0  3.939457  0  0  -0.071152  -0.139949  0  3.936125  0
C  C35  1  0.02384035  0.62261167  0.27220948  1  0  -0.714852  0  3.504049  0  0  -0.756896  0  3.735265  0  0  -0.770678  0  3.741217  0  0  -0.3356  -0.747305  0  3.731369  0
C  C36  1  0.87355472  0.38512123  0.59716745  1  0  -0.708034  0  3.528964  0  0  -0.754354  0  3.764463  0  0  -0.767376  0  3.770528  0  0  -0.334076  -0.74533  0  3.760704  0
C  C37  1  0.46134785  0.56678459  0.77465609  1  0  -0.718106  0  3.510524  0  0  -0.759  0  3.741561  0  0  -0.773098  0  3.747952  0  0  -0.336189  -0.749206  0  3.737422  0
C  C38  1  0.42962719  0.41302463  0.10375488  1  0  -0.712113  0  3.506701  0  0  -0.753322  0  3.73853  0  0  -0.767078  0  3.743994  0  0  -0.333199  -0.743821  0  3.734954  0
C  C39  1  0.21544333  0.22758163  0.36214669  1  0  -0.72625  0  3.510125  0  0  -0.766101  0  3.737391  0  0  -0.779768  0  3.743933  0  0  -0.343074  -0.75657  0  3.732659  0
C  C40  1  0.30571343  0.02159182  0.65887680  1  0  -0.089014  0  3.665653  0  0  -0.18068  0  3.931186  0  0  -0.175383  0  3.93466  0  0  -0.147468  -0.183951  0  3.928706  0
C  C41  1  0.60483056  0.95926857  0.21085593  1  0  -0.089505  0  3.676489  0  0  -0.183472  0  3.944305  0  0  -0.177718  0  3.947157  0  0  -0.147712  -0.187153  0  3.9423  0
O  O42  1  0.78095197  0.78034084  0.63476623  1  0  -0.636419  0  2.01726  0  0  -0.566812  0  2.261057  0  0  -0.594701  0  2.254618  0  0  -0.289232  -0.547648  0  2.264879  0
O  O43  1  0.51606353  0.14201090  0.72935308  1  0  -0.254022  0  2.312468  0  0  -0.178937  0  2.559131  0  0  -0.193771  0  2.562464  0  0  -0.230452  -0.168589  0  2.55652  0
O  O44  1  0.51251544  0.59400994  0.44423850  1  0  -0.63328  0  2.053325  0  0  -0.56203  0  2.294484  0  0  -0.588477  0  2.287962  0  0  -0.275488  -0.543447  0  2.298283  0
O  O45  1  0.88285773  0.39061698  0.92053169  1  0  -0.631761  0  2.057587  0  0  -0.559352  0  2.295639  0  0  -0.586012  0  2.289159  0  0  -0.274224  -0.540834  0  2.299604  0
O  O46  1  0.53071731  0.84771969  0.29183621  1  0  -0.256963  0  2.321531  0  0  -0.18041  0  2.56507  0  0  -0.195273  0  2.568536  0  0  -0.229909  -0.169965  0  2.562372  0
O  O47  1  0.92359879  0.21372474  0.06930584  1  0  -0.629575  0  2.009956  0  0  -0.558889  0  2.249208  0  0  -0.586813  0  2.243155  0  0  -0.285635  -0.539321  0  2.252533  0
