# generated using pymatgen
data_UTlH12C21I3O8
_symmetry_space_group_name_H-M   'P 1'
_cell_length_a   8.02013870
_cell_length_b   10.66683472
_cell_length_c   15.64074374
_cell_angle_alpha   74.11288905
_cell_angle_beta   84.69930164
_cell_angle_gamma   77.96608849
_symmetry_Int_Tables_number   1
_chemical_formula_structural   UTlH12C21I3O8
_chemical_formula_sum   'U2 Tl2 H24 C42 I6 O16'
_cell_volume   1257.77925659
_cell_formula_units_Z   2
loop_
 _symmetry_equiv_pos_site_id
 _symmetry_equiv_pos_as_xyz
  1  'x, y, z'
loop_
 _atom_site_type_symbol
 _atom_site_label
 _atom_site_symmetry_multiplicity
 _atom_site_fract_x
 _atom_site_fract_y
 _atom_site_fract_z
 _atom_site_occupancy
 _atom_site_hle17_bader_spin_density
 _atom_site_hle17_ddec_charge
 _atom_site_hle17_ddec_spin_density
 _atom_site_hle17_ddec_sum_bond_order
 _atom_site_hle17_magmom
 _atom_site_hse06_10hf_bader_spin_density
 _atom_site_hse06_10hf_ddec_charge
 _atom_site_hse06_10hf_ddec_spin_density
 _atom_site_hse06_10hf_ddec_sum_bond_order
 _atom_site_hse06_10hf_magmom
 _atom_site_hse06_bader_spin_density
 _atom_site_hse06_ddec_charge
 _atom_site_hse06_ddec_spin_density
 _atom_site_hse06_ddec_sum_bond_order
 _atom_site_hse06_magmom
 _atom_site_pbe_bader_spin_density
 _atom_site_pbe_cm5_charge
 _atom_site_pbe_ddec_charge
 _atom_site_pbe_ddec_spin_density
 _atom_site_pbe_ddec_sum_bond_order
 _atom_site_pbe_magmom
U  U0  1  0.17157982  0.48239883  0.19771596  1  0  2.4188  0  4.132643  0  0  2.477172  0  4.774719  0  0  2.586688  0  4.74348  0  0  2.126524  2.400963  0  4.797294  0
U  U1  1  0.82842274  0.51759574  0.80228580  1  0  2.418795  0  4.132149  0  0  2.477177  0  4.774138  0  0  2.586678  0  4.742969  0  0  2.126413  2.400957  0  4.796748  0
Tl  Tl2  1  0.66403519  0.57908337  0.06658519  1  0  0.872254  0  0.734365  0  0  0.777366  0  1.021209  0  0  0.810487  0  0.993785  0  0  0.474776  0.752022  0  1.041738  0
Tl  Tl3  1  0.33596100  0.42092206  0.93340966  1  0  0.87226  0  0.734374  0  0  0.777403  0  1.021159  0  0  0.810495  0  0.993783  0  0  0.474803  0.752068  0  1.04169  0
H  H4  1  0.85122476  0.82181492  0.93339396  1  0  0.092953  0  0.951731  0  0  0.102597  0  1.017568  0  0  0.10598  0  1.014493  0  0  0.105715  0.100332  0  1.019567  0
H  H5  1  0.14877934  0.17819934  0.06659433  1  0  0.092945  0  0.951826  0  0  0.102623  0  1.017629  0  0  0.10599  0  1.014588  0  0  0.105739  0.100342  0  1.019656  0
H  H6  1  0.64749797  0.30486203  0.16979152  1  0  0.072628  0  0.981502  0  0  0.082507  0  1.052959  0  0  0.084682  0  1.0515  0  0  0.098186  0.081004  0  1.054081  0
H  H7  1  0.35250149  0.69514546  0.83020853  1  0  0.072648  0  0.981554  0  0  0.082486  0  1.053038  0  0  0.084664  0  1.051575  0  0  0.098135  0.080984  0  1.054157  0
H  H8  1  0.44314969  0.15365030  0.22431516  1  0  0.099237  0  0.946804  0  0  0.110724  0  1.004335  0  0  0.114007  0  1.002112  0  0  0.103718  0.108347  0  1.005959  0
H  H9  1  0.55684878  0.84635610  0.77567875  1  0  0.099185  0  0.946837  0  0  0.110767  0  1.004266  0  0  0.113991  0  1.002112  0  0  0.103694  0.108386  0  1.005888  0
H  H10  1  0.96102470  0.09734670  0.39412821  1  0  0.086875  0  1.016624  0  0  0.090115  0  1.097197  0  0  0.094679  0  1.092963  0  0  0.084715  0.086829  0  1.100216  0
H  H11  1  0.03897500  0.90263890  0.60587222  1  0  0.08693  0  1.016566  0  0  0.0901  0  1.097234  0  0  0.094661  0  1.092991  0  0  0.084763  0.086812  0  1.100253  0
H  H12  1  0.05410441  0.16594777  0.78458475  1  0  0.119103  0  0.951055  0  0  0.130582  0  1.010924  0  0  0.134266  0  1.007601  0  0  0.108827  0.12797  0  1.013381  0
H  H13  1  0.94591966  0.83406156  0.21540995  1  0  0.119114  0  0.951176  0  0  0.13062  0  1.011  0  0  0.134302  0  1.00768  0  0  0.108836  0.128  0  1.013451  0
H  H14  1  0.64821906  0.63705798  0.29353463  1  0  0.078073  0  1.005191  0  0  0.083151  0  1.082078  0  0  0.086853  0  1.078671  0  0  0.087273  0.080441  0  1.084505  0
H  H15  1  0.35179191  0.36292764  0.70646910  1  0  0.078023  0  1.005198  0  0  0.083065  0  1.082143  0  0  0.086758  0  1.078743  0  0  0.087268  0.080358  0  1.08458  0
H  H16  1  0.52596141  0.27187025  0.46160831  1  0  0.098696  0  0.981965  0  0  0.103852  0  1.05729  0  0  0.107778  0  1.054259  0  0  0.092637  0.101111  0  1.059158  0
H  H17  1  0.47403386  0.72812336  0.53839398  1  0  0.098808  0  0.981908  0  0  0.103915  0  1.057253  0  0  0.107847  0  1.054213  0  0  0.092677  0.101166  0  1.059132  0
H  H18  1  0.84475265  0.64239337  0.40603703  1  0  0.084694  0  0.973657  0  0  0.091753  0  1.0411  0  0  0.095017  0  1.039132  0  0  0.094216  0.089748  0  1.042106  0
H  H19  1  0.15524829  0.35759229  0.59396717  1  0  0.084678  0  0.973535  0  0  0.091785  0  1.040925  0  0  0.095052  0  1.038948  0  0  0.094246  0.089747  0  1.04197  0
H  H20  1  0.88244309  0.46256216  0.54682885  1  0  0.106926  0  0.954057  0  0  0.118227  0  1.016009  0  0  0.120965  0  1.014333  0  0  0.107522  0.116359  0  1.017068  0
H  H21  1  0.11754966  0.53743152  0.45317802  1  0  0.106919  0  0.954114  0  0  0.118229  0  1.016055  0  0  0.120966  0  1.014382  0  0  0.107509  0.116357  0  1.017114  0
H  H22  1  0.35218822  0.86165990  0.98612909  1  0  0.089861  0  0.988721  0  0  0.096306  0  1.061782  0  0  0.1001  0  1.058703  0  0  0.094493  0.093557  0  1.064052  0
H  H23  1  0.64780074  0.13835478  0.01388350  1  0  0.089969  0  0.988711  0  0  0.096376  0  1.06185  0  0  0.10017  0  1.058772  0  0  0.094564  0.093644  0  1.064099  0
H  H24  1  0.82080264  0.03751918  0.81755580  1  0  0.080018  0  0.976622  0  0  0.091535  0  1.040143  0  0  0.094632  0  1.038488  0  0  0.087731  0.089348  0  1.041398  0
H  H25  1  0.17922048  0.96249408  0.18243563  1  0  0.080133  0  0.976428  0  0  0.091612  0  1.040012  0  0  0.094714  0  1.038348  0  0  0.087767  0.089422  0  1.041269  0
H  H26  1  0.49762730  0.97058500  0.36229938  1  0  0.06979  0  1.029466  0  0  0.07307  0  1.110125  0  0  0.076934  0  1.106904  0  0  0.077113  0.070308  0  1.112337  0
H  H27  1  0.50236509  0.02941543  0.63769342  1  0  0.069839  0  1.029482  0  0  0.073119  0  1.110105  0  0  0.076983  0  1.106885  0  0  0.077097  0.070353  0  1.112322  0
C  C28  1  0.95395457  0.87798370  0.91916877  1  0  -0.044422  0  3.697  0  0  -0.073321  0  3.945622  0  0  -0.070844  0  3.964396  0  0  -0.071884  -0.075024  0  3.932871  0
C  C29  1  0.04604653  0.12203259  0.08082119  1  0  -0.044684  0  3.697002  0  0  -0.0736  0  3.945621  0  0  -0.071123  0  3.96439  0  0  -0.072035  -0.075284  0  3.932879  0
C  C30  1  0.57450806  0.45524534  0.37149195  1  0  -0.06363  0  3.766355  0  0  -0.033308  0  3.987824  0  0  -0.043045  0  4.011368  0  0  -0.018226  -0.027378  0  3.972057  0
C  C31  1  0.42550556  0.54475012  0.62850464  1  0  -0.06355  0  3.766072  0  0  -0.03336  0  3.987744  0  0  -0.043095  0  4.011283  0  0  -0.018199  -0.027426  0  3.971981  0
C  C32  1  0.21827493  0.01991942  0.88273668  1  0  0.03193  0  3.674354  0  0  0.059892  0  3.930763  0  0  0.05879  0  3.957238  0  0  -0.043142  0.060401  0  3.912777  0
C  C33  1  0.78173979  0.98008708  0.11726668  1  0  0.031881  0  3.674418  0  0  0.059835  0  3.930873  0  0  0.058732  0  3.957347  0  0  -0.043121  0.060341  0  3.91289  0
C  C34  1  0.67215937  0.22528749  0.23046246  1  0  -0.053601  0  3.721339  0  0  -0.081821  0  3.970765  0  0  -0.080324  0  3.991724  0  0  -0.081594  -0.082859  0  3.956585  0
C  C35  1  0.32783974  0.77471099  0.76953424  1  0  -0.053528  0  3.721297  0  0  -0.081699  0  3.970691  0  0  -0.080196  0  3.991623  0  0  -0.081488  -0.082741  0  3.956507  0
C  C36  1  0.55779973  0.13950422  0.26082964  1  0  -0.05448  0  3.743462  0  0  -0.066098  0  3.995992  0  0  -0.069294  0  4.016037  0  0  -0.087651  -0.063963  0  3.982382  0
C  C37  1  0.44219367  0.86049723  0.73916483  1  0  -0.05436  0  3.743386  0  0  -0.066075  0  3.995877  0  0  -0.069218  0  4.015929  0  0  -0.087616  -0.063934  0  3.982261  0
C  C38  1  0.81731079  0.21011669  0.27843166  1  0  -0.067641  0  3.763604  0  0  -0.037611  0  3.985806  0  0  -0.047437  0  4.009606  0  0  -0.020909  -0.031391  0  3.970141  0
C  C39  1  0.18268254  0.78987984  0.72156632  1  0  -0.067747  0  3.763725  0  0  -0.037669  0  3.985842  0  0  -0.047498  0  4.009646  0  0  -0.020897  -0.031445  0  3.970166  0
C  C40  1  0.44619140  0.45851858  0.30842274  1  0  0.634068  0  3.882629  0  0  0.594195  0  4.180483  0  0  0.631047  0  4.174135  0  0  0.206078  0.569194  0  4.183549  0
C  C41  1  0.55381362  0.54147097  0.69157604  1  0  0.634144  0  3.882357  0  0  0.594229  0  4.180351  0  0  0.631078  0  4.173992  0  0  0.206064  0.56923  0  4.183419  0
C  C42  1  0.84876947  0.10722940  0.35678844  1  0  -0.092503  0  3.730033  0  0  -0.124151  0  3.973477  0  0  -0.123495  0  3.994303  0  0  -0.091646  -0.124201  0  3.959644  0
C  C43  1  0.15122977  0.89275813  0.64320781  1  0  -0.092514  0  3.730039  0  0  -0.124176  0  3.97366  0  0  -0.12351  0  3.994478  0  0  -0.091729  -0.124222  0  3.959822  0
C  C44  1  0.06948494  0.07108778  0.83493565  1  0  -0.069402  0  3.688939  0  0  -0.094853  0  3.935839  0  0  -0.094234  0  3.955854  0  0  -0.080348  -0.095142  0  3.922322  0
C  C45  1  0.93053332  0.92891963  0.16506289  1  0  -0.069274  0  3.688999  0  0  -0.094766  0  3.935908  0  0  -0.09414  0  3.955913  0  0  -0.080343  -0.09505  0  3.922368  0
C  C46  1  0.10352321  0.82917933  0.96697456  1  0  -0.054017  0  3.748075  0  0  -0.023167  0  3.967897  0  0  -0.032449  0  3.991021  0  0  -0.011904  -0.017174  0  3.952429  0
C  C47  1  0.89646510  0.17083809  0.03302218  1  0  -0.053778  0  3.747978  0  0  -0.02295  0  3.96786  0  0  -0.032234  0  3.990974  0  0  -0.011906  -0.016966  0  3.952408  0
C  C48  1  0.66669171  0.55794319  0.35477598  1  0  -0.056752  0  3.720832  0  0  -0.084782  0  3.966502  0  0  -0.082733  0  3.985375  0  0  -0.08198  -0.085144  0  3.953436  0
C  C49  1  0.33331604  0.44204542  0.64522733  1  0  -0.056823  0  3.720561  0  0  -0.084793  0  3.966325  0  0  -0.082733  0  3.985205  0  0  -0.081954  -0.085156  0  3.953268  0
C  C50  1  0.71248234  0.35412679  0.51049646  1  0  0.033744  0  3.665497  0  0  0.063095  0  3.923347  0  0  0.062357  0  3.948304  0  0  -0.042314  0.063269  0  3.906475  0
C  C51  1  0.28751495  0.64586884  0.48950854  1  0  0.033585  0  3.665652  0  0  0.062837  0  3.923655  0  0  0.062097  0  3.948615  0  0  -0.042373  0.063015  0  3.90677  0
C  C52  1  0.59779298  0.35154150  0.44977761  1  0  -0.083325  0  3.704074  0  0  -0.113282  0  3.943708  0  0  -0.112663  0  3.965242  0  0  -0.084024  -0.112925  0  3.929037  0
C  C53  1  0.40219955  0.64845312  0.55022526  1  0  -0.083312  0  3.704151  0  0  -0.113136  0  3.943851  0  0  -0.112515  0  3.965378  0  0  -0.084075  -0.112778  0  3.929171  0
C  C54  1  0.12625103  0.70364780  0.03907621  1  0  0.634914  0  3.903427  0  0  0.595166  0  4.196685  0  0  0.63154  0  4.190305  0  0  0.208359  0.570281  0  4.20012  0
C  C55  1  0.87374465  0.29635975  0.96092656  1  0  0.634779  0  3.903857  0  0  0.59501  0  4.197146  0  0  0.631393  0  4.190752  0  0  0.208284  0.570131  0  4.200588  0
C  C56  1  0.73361003  0.02167546  0.38597204  1  0  0.003942  0  3.695199  0  0  0.036244  0  3.94883  0  0  0.034372  0  3.974848  0  0  -0.05582  0.037177  0  3.931293  0
C  C57  1  0.26637448  0.97831607  0.61402285  1  0  0.00431  0  3.694902  0  0  0.03651  0  3.948637  0  0  0.034637  0  3.974656  0  0  -0.055662  0.037443  0  3.931108  0
C  C58  1  0.77707693  0.56032896  0.41769552  1  0  -0.047685  0  3.74331  0  0  -0.055231  0  3.991068  0  0  -0.059174  0  4.01167  0  0  -0.082881  -0.052958  0  3.976944  0
C  C59  1  0.22292962  0.43966462  0.58230688  1  0  -0.047504  0  3.743187  0  0  -0.055063  0  3.990865  0  0  -0.059007  0  4.011469  0  0  -0.082847  -0.052762  0  3.976768  0
C  C60  1  0.93669894  0.30363603  0.24951640  1  0  0.642656  0  3.866843  0  0  0.604379  0  4.159878  0  0  0.641412  0  4.153173  0  0  0.20977  0.579268  0  4.163077  0
C  C61  1  0.06330213  0.69635954  0.75048524  1  0  0.642633  0  3.867095  0  0  0.604338  0  4.160138  0  0  0.641375  0  4.153429  0  0  0.209699  0.579224  0  4.163327  0
C  C62  1  0.79979916  0.45907825  0.49644554  1  0  -0.080463  0  3.716371  0  0  -0.10805  0  3.96809  0  0  -0.107302  0  3.988064  0  0  -0.086219  -0.108632  0  3.954472  0
C  C63  1  0.20019430  0.54091248  0.50356315  1  0  -0.080509  0  3.716336  0  0  -0.108078  0  3.968102  0  0  -0.107333  0  3.988081  0  0  -0.086222  -0.108652  0  3.954466  0
C  C64  1  0.23674183  0.90051779  0.94838409  1  0  -0.099322  0  3.741175  0  0  -0.127699  0  3.979783  0  0  -0.127524  0  4.001351  0  0  -0.08747  -0.127361  0  3.965172  0
C  C65  1  0.76325938  0.09949281  0.05162423  1  0  -0.099641  0  3.741445  0  0  -0.128008  0  3.980094  0  0  -0.127829  0  4.001655  0  0  -0.08767  -0.127679  0  3.965487  0
C  C66  1  0.93806014  0.99835025  0.85405845  1  0  -0.054738  0  3.732855  0  0  -0.063186  0  3.982662  0  0  -0.067649  0  4.004346  0  0  -0.08473  -0.060097  0  3.967865  0
C  C67  1  0.06194997  0.00166503  0.14593256  1  0  -0.054602  0  3.73258  0  0  -0.063031  0  3.982385  0  0  -0.067488  0  4.004054  0  0  -0.084503  -0.059938  0  3.967577  0
C  C68  1  0.58781494  0.03718490  0.33853116  1  0  -0.089608  0  3.779763  0  0  -0.112826  0  4.028862  0  0  -0.113074  0  4.049855  0  0  -0.100329  -0.112509  0  4.014863  0
C  C69  1  0.41217644  0.96281452  0.66146060  1  0  -0.090041  0  3.779698  0  0  -0.113231  0  4.028889  0  0  -0.113472  0  4.049859  0  0  -0.100445  -0.112915  0  4.014895  0
I  I70  1  0.75770100  0.19695299  0.62656644  1  0  0.004062  0  1.381021  0  0  -0.005242  0  1.685675  0  0  -0.010044  0  1.678369  0  0  0.119859  -0.002347  0  1.690819  0
I  I71  1  0.24227126  0.80304781  0.37344579  1  0  0.004006  0  1.381138  0  0  -0.005242  0  1.685797  0  0  -0.01005  0  1.678496  0  0  0.119812  -0.002358  0  1.690934  0
I  I72  1  0.77146487  0.86998113  0.50513476  1  0  0.068126  0  1.457947  0  0  0.051925  0  1.779701  0  0  0.050607  0  1.769815  0  0  0.149873  0.053314  0  1.785392  0
I  I73  1  0.22852172  0.13001737  0.49486124  1  0  0.068101  0  1.457786  0  0  0.051925  0  1.779607  0  0  0.050599  0  1.769719  0  0  0.149882  0.05332  0  1.785296  0
I  I74  1  0.42444880  0.12121191  0.85399807  1  0  0.009685  0  1.407169  0  0  0.011994  0  1.714455  0  0  0.006278  0  1.70471  0  0  0.169856  0.016356  0  1.721099  0
I  I75  1  0.57557025  0.87878176  0.14601267  1  0  0.009632  0  1.407058  0  0  0.01195  0  1.714345  0  0  0.006236  0  1.704588  0  0  0.169842  0.0163  0  1.720995  0
O  O76  1  0.91263600  0.40107337  0.17862749  1  0  -0.685005  0  2.015644  0  0  -0.651762  0  2.278687  0  0  -0.687198  0  2.275652  0  0  -0.349939  -0.626029  0  2.279243  0
O  O77  1  0.08736160  0.59892619  0.82137418  1  0  -0.684985  0  2.015894  0  0  -0.651751  0  2.278954  0  0  -0.687176  0  2.275906  0  0  -0.349909  -0.62602  0  2.27951  0
O  O78  1  0.06764061  0.29054859  0.29433190  1  0  -0.594929  0  1.966151  0  0  -0.567839  0  2.212347  0  0  -0.599158  0  2.208388  0  0  -0.34267  -0.5457  0  2.214035  0
O  O79  1  0.93235497  0.70944899  0.70567025  1  0  -0.594965  0  1.966067  0  0  -0.567844  0  2.212232  0  0  -0.599157  0  2.208276  0  0  -0.342687  -0.545703  0  2.213915  0
O  O80  1  0.33492395  0.38387403  0.33105251  1  0  -0.602491  0  1.991142  0  0  -0.577518  0  2.24802  0  0  -0.609932  0  2.245859  0  0  -0.346683  -0.554587  0  2.248398  0
O  O81  1  0.66508526  0.61610847  0.66894232  1  0  -0.602503  0  1.991118  0  0  -0.577487  0  2.247944  0  0  -0.609941  0  2.245882  0  0  -0.34667  -0.554557  0  2.248324  0
O  O82  1  0.29532619  0.37359742  0.13254377  1  0  -0.800602  0  1.616505  0  0  -0.793088  0  1.912594  0  0  -0.818619  0  1.902528  0  0  -0.761369  -0.77655  0  1.920298  0
O  O83  1  0.70465047  0.62641116  0.86745843  1  0  -0.800643  0  1.61616  0  0  -0.79315  0  1.912264  0  0  -0.818695  0  1.902228  0  0  -0.761243  -0.776602  0  1.919973  0
O  O84  1  0.01130884  0.63224639  0.06121867  1  0  -0.669524  0  1.994359  0  0  -0.634855  0  2.249545  0  0  -0.667566  0  2.245712  0  0  -0.329242  -0.611381  0  2.251817  0
O  O85  1  0.98867490  0.36776916  0.93878440  1  0  -0.669471  0  1.99461  0  0  -0.634788  0  2.249798  0  0  -0.667492  0  2.245965  0  0  -0.329258  -0.611316  0  2.252071  0
O  O86  1  0.04633637  0.59746572  0.25576807  1  0  -0.707904  0  1.596725  0  0  -0.716084  0  1.893434  0  0  -0.73737  0  1.883141  0  0  -0.761605  -0.702924  0  1.900974  0
O  O87  1  0.95368259  0.40251791  0.74423695  1  0  -0.707954  0  1.596536  0  0  -0.716127  0  1.893232  0  0  -0.737406  0  1.88295  0  0  -0.761624  -0.70297  0  1.90079  0
O  O88  1  0.26530776  0.66614662  0.08162650  1  0  -0.681334  0  2.048859  0  0  -0.646938  0  2.305625  0  0  -0.680913  0  2.304826  0  0  -0.350752  -0.622908  0  2.30564  0
O  O89  1  0.73468457  0.33385401  0.91837905  1  0  -0.681311  0  2.048973  0  0  -0.646882  0  2.305702  0  0  -0.680869  0  2.304933  0  0  -0.350677  -0.622833  0  2.305675  0
O  O90  1  0.43941641  0.53961618  0.23006427  1  0  -0.679621  0  2.029664  0  0  -0.653076  0  2.299286  0  0  -0.687348  0  2.295988  0  0  -0.351939  -0.628356  0  2.300406  0
O  O91  1  0.56058298  0.46038637  0.76993802  1  0  -0.679655  0  2.029564  0  0  -0.65307  0  2.299201  0  0  -0.687331  0  2.295904  0  0  -0.351909  -0.628352  0  2.300328  0
