# generated using pymatgen
data_Ag2HC5O4
_symmetry_space_group_name_H-M   'P 1'
_cell_length_a   6.38481204
_cell_length_b   11.83266089
_cell_length_c   14.57227576
_cell_angle_alpha   89.99962135
_cell_angle_beta   89.99899722
_cell_angle_gamma   89.99984186
_symmetry_Int_Tables_number   1
_chemical_formula_structural   Ag2HC5O4
_chemical_formula_sum   'Ag16 H8 C40 O32'
_cell_volume   1100.92546231
_cell_formula_units_Z   8
loop_
 _symmetry_equiv_pos_site_id
 _symmetry_equiv_pos_as_xyz
  1  'x, y, z'
loop_
 _atom_site_type_symbol
 _atom_site_label
 _atom_site_symmetry_multiplicity
 _atom_site_fract_x
 _atom_site_fract_y
 _atom_site_fract_z
 _atom_site_occupancy
 _atom_site_hle17_bader_spin_density
 _atom_site_hle17_ddec_charge
 _atom_site_hle17_ddec_spin_density
 _atom_site_hle17_ddec_sum_bond_order
 _atom_site_hle17_magmom
 _atom_site_hse06_10hf_bader_spin_density
 _atom_site_hse06_10hf_ddec_charge
 _atom_site_hse06_10hf_ddec_spin_density
 _atom_site_hse06_10hf_ddec_sum_bond_order
 _atom_site_hse06_10hf_magmom
 _atom_site_hse06_bader_spin_density
 _atom_site_hse06_ddec_charge
 _atom_site_hse06_ddec_spin_density
 _atom_site_hse06_ddec_sum_bond_order
 _atom_site_hse06_magmom
 _atom_site_pbe_bader_spin_density
 _atom_site_pbe_cm5_charge
 _atom_site_pbe_ddec_charge
 _atom_site_pbe_ddec_spin_density
 _atom_site_pbe_ddec_sum_bond_order
 _atom_site_pbe_magmom
Ag  Ag0  1  0.11437254  0.94739330  0.53144316  1  0  0.75408  0  1.254563  0  0  0.65651  0  1.671979  0  0  0.68345  0  1.619695  0  0  0.473337  0.636838  0  1.70889  0
Ag  Ag1  1  0.88562877  0.44739639  0.46856118  1  0  0.754079  0  1.254464  0  0  0.656489  0  1.67187  0  0  0.683437  0  1.619588  0  0  0.473344  0.636831  0  1.708808  0
Ag  Ag2  1  0.61434851  0.44739289  0.96855482  1  0  0.75411  0  1.254589  0  0  0.65652  0  1.672014  0  0  0.683463  0  1.619731  0  0  0.473366  0.636844  0  1.708934  0
Ag  Ag3  1  0.38563871  0.94739342  0.03144540  1  0  0.754102  0  1.254521  0  0  0.656524  0  1.671911  0  0  0.683466  0  1.619639  0  0  0.473362  0.636858  0  1.708837  0
Ag  Ag4  1  0.41346803  0.65495685  0.50204725  1  0  0.73857  0  1.231983  0  0  0.63867  0  1.646496  0  0  0.667825  0  1.593346  0  0  0.466345  0.617553  0  1.683927  0
Ag  Ag5  1  0.58653633  0.15495931  0.49795867  1  0  0.738555  0  1.232049  0  0  0.638629  0  1.646614  0  0  0.667812  0  1.593428  0  0  0.466287  0.61749  0  1.684012  0
Ag  Ag6  1  0.91346005  0.15494606  0.99794863  1  0  0.738606  0  1.23197  0  0  0.63868  0  1.646531  0  0  0.667869  0  1.593325  0  0  0.466332  0.617532  0  1.683963  0
Ag  Ag7  1  0.08654431  0.65494644  0.00204974  1  0  0.73857  0  1.231947  0  0  0.638632  0  1.646482  0  0  0.667825  0  1.593289  0  0  0.466327  0.617496  0  1.683893  0
Ag  Ag8  1  0.46739015  0.47777244  0.34668263  1  0  0.55406  0  1.44636  0  0  0.424516  0  1.923129  0  0  0.465693  0  1.856617  0  0  0.400515  0.395875  0  1.969038  0
Ag  Ag9  1  0.53260632  0.97777788  0.65332153  1  0  0.554054  0  1.446362  0  0  0.424517  0  1.92312  0  0  0.465691  0  1.856609  0  0  0.400493  0.395875  0  1.969011  0
Ag  Ag10  1  0.96738865  0.97777619  0.15331834  1  0  0.554038  0  1.44634  0  0  0.424525  0  1.923003  0  0  0.465699  0  1.856495  0  0  0.400515  0.395875  0  1.968881  0
Ag  Ag11  1  0.03261094  0.47777751  0.84668308  1  0  0.554031  0  1.446402  0  0  0.424505  0  1.923113  0  0  0.46568  0  1.856605  0  0  0.400505  0.395854  0  1.968991  0
Ag  Ag12  1  0.49668503  0.55000966  0.16193287  1  0  0.598098  0  1.436366  0  0  0.488258  0  1.898394  0  0  0.521453  0  1.838816  0  0  0.423194  0.465591  0  1.939226  0
Ag  Ag13  1  0.50329794  0.05001880  0.83806881  1  0  0.598146  0  1.436353  0  0  0.48835  0  1.898358  0  0  0.521535  0  1.838781  0  0  0.42321  0.465689  0  1.939184  0
Ag  Ag14  1  0.99669124  0.05002129  0.33806951  1  0  0.598116  0  1.436326  0  0  0.488286  0  1.89835  0  0  0.521478  0  1.838771  0  0  0.423181  0.465607  0  1.939168  0
Ag  Ag15  1  0.00331052  0.55002239  0.66193492  1  0  0.598155  0  1.436272  0  0  0.488313  0  1.898259  0  0  0.521502  0  1.838679  0  0  0.423198  0.465658  0  1.939097  0
H  H16  1  0.55474761  0.80337960  0.14022499  1  0  0.105664  0  1.002223  0  0  0.110036  0  1.07255  0  0  0.11511  0  1.067712  0  0  0.098002  0.106351  0  1.076205  0
H  H17  1  0.44526227  0.30337597  0.85977806  1  0  0.105683  0  1.002278  0  0  0.110085  0  1.072565  0  0  0.115157  0  1.067731  0  0  0.098018  0.106401  0  1.076216  0
H  H18  1  0.05472979  0.30338082  0.35976776  1  0  0.105671  0  1.002316  0  0  0.110084  0  1.072595  0  0  0.115158  0  1.06775  0  0  0.098054  0.106403  0  1.076258  0
H  H19  1  0.94525190  0.80339250  0.64022638  1  0  0.105675  0  1.002236  0  0  0.110025  0  1.072611  0  0  0.115095  0  1.067778  0  0  0.098023  0.106339  0  1.07626  0
H  H20  1  0.88709904  0.69423398  0.14314530  1  0  0.098727  0  0.99799  0  0  0.102443  0  1.073659  0  0  0.107626  0  1.068252  0  0  0.093983  0.098528  0  1.077924  0
H  H21  1  0.11291139  0.19422919  0.85685903  1  0  0.098651  0  0.998179  0  0  0.102378  0  1.07381  0  0  0.107557  0  1.068412  0  0  0.093951  0.098464  0  1.078068  0
H  H22  1  0.38708916  0.19423776  0.35685439  1  0  0.098698  0  0.998018  0  0  0.102388  0  1.073662  0  0  0.107615  0  1.068212  0  0  0.093963  0.098482  0  1.077916  0
H  H23  1  0.61289778  0.69424907  0.64314170  1  0  0.098644  0  0.99818  0  0  0.102294  0  1.073929  0  0  0.107519  0  1.068483  0  0  0.093986  0.09839  0  1.078186  0
C  C24  1  0.56059916  0.84113553  0.28439864  1  0  -0.050661  0  3.696983  0  0  -0.039325  0  3.932756  0  0  -0.04424  0  3.952156  0  0  -0.011923  -0.036397  0  3.920167  0
C  C25  1  0.43939799  0.34112715  0.71560421  1  0  -0.050571  0  3.696893  0  0  -0.039199  0  3.932793  0  0  -0.044112  0  3.952195  0  0  -0.011812  -0.036272  0  3.920202  0
C  C26  1  0.06058238  0.34112016  0.21559592  1  0  -0.050589  0  3.697004  0  0  -0.039193  0  3.932787  0  0  -0.044118  0  3.952183  0  0  -0.011816  -0.036257  0  3.920198  0
C  C27  1  0.93940381  0.84112731  0.78439801  1  0  -0.050298  0  3.697067  0  0  -0.039012  0  3.933006  0  0  -0.043926  0  3.952399  0  0  -0.011695  -0.036078  0  3.920401  0
C  C28  1  0.63964628  0.79203103  0.20419960  1  0  -0.093527  0  3.77659  0  0  -0.111811  0  4.028772  0  0  -0.112754  0  4.045491  0  0  -0.099988  -0.111301  0  4.01797  0
C  C29  1  0.36036366  0.29202466  0.79579940  1  0  -0.093506  0  3.777141  0  0  -0.111824  0  4.029336  0  0  -0.112766  0  4.046059  0  0  -0.099982  -0.111325  0  4.018541  0
C  C30  1  0.13964353  0.29202516  0.29579461  1  0  -0.093476  0  3.776805  0  0  -0.111772  0  4.028919  0  0  -0.112727  0  4.045692  0  0  -0.099908  -0.111261  0  4.018084  0
C  C31  1  0.86034604  0.79203729  0.70419890  1  0  -0.093617  0  3.776853  0  0  -0.111796  0  4.028885  0  0  -0.112745  0  4.045626  0  0  -0.100012  -0.111326  0  4.01819  0
C  C32  1  0.82172694  0.72818979  0.20627287  1  0  -0.081568  0  3.769983  0  0  -0.099531  0  4.020633  0  0  -0.100795  0  4.037718  0  0  -0.096232  -0.09873  0  4.009709  0
C  C33  1  0.17829742  0.22818541  0.79373196  1  0  -0.081661  0  3.770166  0  0  -0.099649  0  4.020932  0  0  -0.100903  0  4.03798  0  0  -0.09626  -0.098857  0  4.01002  0
C  C34  1  0.32171801  0.22818478  0.29372371  1  0  -0.081604  0  3.770198  0  0  -0.09955  0  4.020859  0  0  -0.100823  0  4.037894  0  0  -0.096277  -0.098787  0  4.009981  0
C  C35  1  0.67827502  0.72819295  0.70627357  1  0  -0.081614  0  3.770603  0  0  -0.099408  0  4.021241  0  0  -0.100712  0  4.038282  0  0  -0.096193  -0.098636  0  4.010359  0
C  C36  1  0.92207286  0.70378658  0.28934537  1  0  -0.045568  0  3.6902  0  0  -0.033195  0  3.92445  0  0  -0.037893  0  3.944332  0  0  -0.00909  -0.030292  0  3.911293  0
C  C37  1  0.07793283  0.20377964  0.71066234  1  0  -0.04541  0  3.689981  0  0  -0.03306  0  3.924283  0  0  -0.03776  0  3.944188  0  0  -0.009118  -0.030149  0  3.911111  0
C  C38  1  0.42206097  0.20377633  0.21065401  1  0  -0.045476  0  3.690147  0  0  -0.033006  0  3.924268  0  0  -0.037794  0  3.944313  0  0  -0.009127  -0.030066  0  3.911052  0
C  C39  1  0.57793688  0.70378567  0.78933929  1  0  -0.045335  0  3.690281  0  0  -0.033247  0  3.92485  0  0  -0.03793  0  3.944747  0  0  -0.009192  -0.030341  0  3.911677  0
C  C40  1  0.83686579  0.74590955  0.37147826  1  0  -0.083699  0  3.691449  0  0  -0.077667  0  3.932581  0  0  -0.080899  0  3.950462  0  0  -0.007417  -0.075794  0  3.921083  0
C  C41  1  0.16314595  0.24589047  0.62852785  1  0  -0.083891  0  3.691384  0  0  -0.077674  0  3.932328  0  0  -0.080901  0  3.950194  0  0  -0.007515  -0.075798  0  3.920829  0
C  C42  1  0.33684777  0.24588898  0.12851949  1  0  -0.084144  0  3.691693  0  0  -0.077985  0  3.932763  0  0  -0.081199  0  3.950636  0  0  -0.007531  -0.07611  0  3.921244  0
C  C43  1  0.66314047  0.74589837  0.87147496  1  0  -0.083841  0  3.69135  0  0  -0.077757  0  3.932663  0  0  -0.080995  0  3.950529  0  0  -0.007452  -0.075865  0  3.921153  0
C  C44  1  0.66424821  0.82058014  0.36812166  1  0  -0.094805  0  3.715295  0  0  -0.087959  0  3.959904  0  0  -0.090247  0  3.975483  0  0  -0.011208  -0.086682  0  3.949978  0
C  C45  1  0.33575061  0.32057091  0.63187787  1  0  -0.094629  0  3.714949  0  0  -0.087985  0  3.9599  0  0  -0.090284  0  3.975498  0  0  -0.011201  -0.086712  0  3.949972  0
C  C46  1  0.16422066  0.32056038  0.13187152  1  0  -0.094414  0  3.714852  0  0  -0.087816  0  3.959776  0  0  -0.090091  0  3.975326  0  0  -0.011197  -0.086543  0  3.949844  0
C  C47  1  0.83577033  0.82057123  0.86811840  1  0  -0.094762  0  3.715334  0  0  -0.088017  0  3.960125  0  0  -0.090309  0  3.975709  0  0  -0.011313  -0.086741  0  3.950193  0
C  C48  1  0.11940894  0.63517373  0.28447844  1  0  0.655141  0  3.870534  0  0  0.605426  0  4.146651  0  0  0.639743  0  4.144709  0  0  0.207892  0.58216  0  4.146957  0
C  C49  1  0.88059553  0.13517230  0.71552690  1  0  0.655276  0  3.870656  0  0  0.605558  0  4.14677  0  0  0.639867  0  4.144824  0  0  0.207931  0.582283  0  4.147081  0
C  C50  1  0.61940906  0.13516691  0.21552227  1  0  0.655117  0  3.870519  0  0  0.605322  0  4.146714  0  0  0.639655  0  4.144776  0  0  0.207932  0.582041  0  4.147013  0
C  C51  1  0.38058914  0.63517067  0.78447758  1  0  0.655087  0  3.870592  0  0  0.605553  0  4.146525  0  0  0.639862  0  4.144577  0  0  0.207999  0.582283  0  4.146831  0
C  C52  1  0.92052977  0.71064233  0.46404147  1  0  0.682605  0  3.870839  0  0  0.627425  0  4.157122  0  0  0.663241  0  4.150044  0  0  0.210793  0.602619  0  4.161259  0
C  C53  1  0.07948527  0.21063764  0.53595728  1  0  0.682406  0  3.870982  0  0  0.627197  0  4.157314  0  0  0.663001  0  4.15024  0  0  0.210639  0.602388  0  4.161458  0
C  C54  1  0.42053423  0.21063263  0.03595513  1  0  0.682583  0  3.870995  0  0  0.627352  0  4.157342  0  0  0.663168  0  4.150266  0  0  0.210826  0.60253  0  4.161476  0
C  C55  1  0.57948238  0.71062958  0.96404293  1  0  0.682393  0  3.871096  0  0  0.627201  0  4.157379  0  0  0.66301  0  4.1503  0  0  0.210673  0.602381  0  4.161526  0
C  C56  1  0.61449077  0.88651935  0.45382346  1  0  0.670546  0  3.897067  0  0  0.614207  0  4.183578  0  0  0.650318  0  4.177659  0  0  0.207178  0.589337  0  4.186808  0
C  C57  1  0.38551086  0.38652172  0.54617709  1  0  0.670356  0  3.89722  0  0  0.614078  0  4.183748  0  0  0.650187  0  4.177834  0  0  0.207172  0.589222  0  4.186989  0
C  C58  1  0.11448699  0.38651549  0.04616975  1  0  0.670434  0  3.897151  0  0  0.614097  0  4.183779  0  0  0.650218  0  4.177837  0  0  0.207191  0.589235  0  4.187009  0
C  C59  1  0.88550054  0.88650952  0.95382874  1  0  0.670162  0  3.89745  0  0  0.613932  0  4.18387  0  0  0.650054  0  4.177939  0  0  0.207168  0.589072  0  4.187105  0
C  C60  1  0.36237560  0.90873166  0.27750393  1  0  0.664558  0  3.852736  0  0  0.615412  0  4.126543  0  0  0.65009  0  4.124474  0  0  0.210335  0.591828  0  4.126978  0
C  C61  1  0.63762435  0.40873392  0.72249512  1  0  0.664292  0  3.852733  0  0  0.615103  0  4.126617  0  0  0.649777  0  4.124554  0  0  0.210209  0.591528  0  4.127045  0
C  C62  1  0.86237701  0.40872647  0.22248999  1  0  0.664392  0  3.852842  0  0  0.615324  0  4.126503  0  0  0.650003  0  4.124434  0  0  0.210319  0.591742  0  4.12694  0
C  C63  1  0.13761354  0.90872812  0.77750632  1  0  0.664527  0  3.852653  0  0  0.615375  0  4.126542  0  0  0.650054  0  4.124474  0  0  0.210393  0.591796  0  4.12697  0
O  O64  1  0.21037635  0.63466775  0.20722386  1  0  -0.586905  0  2.128801  0  0  -0.511439  0  2.400935  0  0  -0.543509  0  2.392082  0  0  -0.310627  -0.489138  0  2.406103  0
O  O65  1  0.78962812  0.13466921  0.79277942  1  0  -0.586972  0  2.128785  0  0  -0.511473  0  2.400872  0  0  -0.543542  0  2.392022  0  0  -0.310614  -0.489175  0  2.406042  0
O  O66  1  0.71037810  0.13467467  0.29277547  1  0  -0.586875  0  2.12871  0  0  -0.5114  0  2.40084  0  0  -0.543464  0  2.391988  0  0  -0.310652  -0.489108  0  2.406014  0
O  O67  1  0.28961854  0.63467412  0.70722095  1  0  -0.586982  0  2.128821  0  0  -0.511503  0  2.400786  0  0  -0.543573  0  2.391942  0  0  -0.310692  -0.4892  0  2.405959  0
O  O68  1  0.17937023  0.58338284  0.35704354  1  0  -0.652982  0  2.19353  0  0  -0.57144  0  2.477637  0  0  -0.605351  0  2.466194  0  0  -0.323156  -0.547805  0  2.484664  0
O  O69  1  0.82063136  0.08338209  0.64296482  1  0  -0.65308  0  2.193669  0  0  -0.571584  0  2.47788  0  0  -0.605495  0  2.466444  0  0  -0.323212  -0.547949  0  2.484898  0
O  O70  1  0.67935132  0.08337492  0.14295493  1  0  -0.652996  0  2.193689  0  0  -0.571428  0  2.477809  0  0  -0.605343  0  2.466376  0  0  -0.323174  -0.547783  0  2.484806  0
O  O71  1  0.32064871  0.58338157  0.85704589  1  0  -0.653018  0  2.193876  0  0  -0.571504  0  2.477897  0  0  -0.605416  0  2.466467  0  0  -0.323188  -0.547862  0  2.484909  0
O  O72  1  0.07152662  0.76278831  0.50101137  1  0  -0.627966  0  2.156561  0  0  -0.553129  0  2.443512  0  0  -0.583134  0  2.427949  0  0  -0.320961  -0.531824  0  2.45361  0
O  O73  1  0.92850695  0.26278349  0.49898915  1  0  -0.627696  0  2.156606  0  0  -0.55284  0  2.443555  0  0  -0.582879  0  2.428082  0  0  -0.320744  -0.531549  0  2.453665  0
O  O74  1  0.57152017  0.26278681  0.99899342  1  0  -0.627855  0  2.156702  0  0  -0.553019  0  2.44371  0  0  -0.583026  0  2.42816  0  0  -0.320965  -0.531723  0  2.453819  0
O  O75  1  0.42849618  0.76278077  0.00101397  1  0  -0.627788  0  2.156665  0  0  -0.552924  0  2.443593  0  0  -0.582961  0  2.428116  0  0  -0.320813  -0.531625  0  2.453709  0
O  O76  1  0.82454517  0.62852208  0.50307921  1  0  -0.683254  0  2.190388  0  0  -0.601955  0  2.486779  0  0  -0.634889  0  2.470505  0  0  -0.329327  -0.578475  0  2.497134  0
O  O77  1  0.17546402  0.12852094  0.49692205  1  0  -0.683241  0  2.190421  0  0  -0.601942  0  2.486833  0  0  -0.634871  0  2.470561  0  0  -0.329361  -0.578452  0  2.497154  0
O  O78  1  0.32454852  0.12851797  0.99690172  1  0  -0.683232  0  2.190242  0  0  -0.601936  0  2.486699  0  0  -0.634876  0  2.470425  0  0  -0.329348  -0.578497  0  2.497148  0
O  O79  1  0.67547007  0.62851407  0.00308513  1  0  -0.68321  0  2.190366  0  0  -0.601892  0  2.486787  0  0  -0.634822  0  2.470507  0  0  -0.329334  -0.57843  0  2.497188  0
O  O80  1  0.50870887  0.84192819  0.51852562  1  0  -0.62433  0  2.142872  0  0  -0.536584  0  2.417879  0  0  -0.571883  0  2.406101  0  0  -0.310719  -0.511618  0  2.424949  0
O  O81  1  0.49128515  0.34191655  0.48147243  1  0  -0.624395  0  2.14299  0  0  -0.536667  0  2.418016  0  0  -0.571977  0  2.406261  0  0  -0.310709  -0.511667  0  2.425028  0
O  O82  1  0.00873006  0.34190814  0.98146208  1  0  -0.624472  0  2.142829  0  0  -0.536694  0  2.417833  0  0  -0.572005  0  2.40605  0  0  -0.310732  -0.511693  0  2.424826  0
O  O83  1  0.99127022  0.84191547  0.01852842  1  0  -0.624212  0  2.143174  0  0  -0.536496  0  2.418132  0  0  -0.5718  0  2.406352  0  0  -0.310623  -0.511505  0  2.425145  0
O  O84  1  0.70186026  0.98290503  0.45879669  1  0  -0.654361  0  2.194866  0  0  -0.576862  0  2.491941  0  0  -0.61003  0  2.476721  0  0  -0.322229  -0.553276  0  2.501423  0
O  O85  1  0.29813305  0.48289996  0.54120677  1  0  -0.654171  0  2.195056  0  0  -0.576681  0  2.492108  0  0  -0.609842  0  2.476886  0  0  -0.322202  -0.553113  0  2.501637  0
O  O86  1  0.20187078  0.48288431  0.04119944  1  0  -0.654274  0  2.195342  0  0  -0.576698  0  2.492319  0  0  -0.609902  0  2.477181  0  0  -0.322262  -0.553111  0  2.501777  0
O  O87  1  0.79811940  0.98288857  0.95880127  1  0  -0.654244  0  2.195029  0  0  -0.576777  0  2.492068  0  0  -0.609953  0  2.476859  0  0  -0.322339  -0.553182  0  2.501529  0
O  O88  1  0.28531773  0.94861509  0.35110896  1  0  -0.600674  0  2.126485  0  0  -0.525918  0  2.399994  0  0  -0.55822  0  2.390368  0  0  -0.31057  -0.503476  0  2.405777  0
O  O89  1  0.71466949  0.44861022  0.64889331  1  0  -0.600478  0  2.126547  0  0  -0.525693  0  2.400043  0  0  -0.557983  0  2.390413  0  0  -0.310444  -0.503262  0  2.40584  0
O  O90  1  0.78529545  0.44859444  0.14888397  1  0  -0.600509  0  2.126444  0  0  -0.525765  0  2.399884  0  0  -0.558063  0  2.390256  0  0  -0.310502  -0.503321  0  2.405668  0
O  O91  1  0.21467454  0.94860975  0.85111418  1  0  -0.600691  0  2.126314  0  0  -0.525909  0  2.399821  0  0  -0.55821  0  2.390194  0  0  -0.310566  -0.503464  0  2.405606  0
O  O92  1  0.28220252  0.91906784  0.19758876  1  0  -0.641759  0  2.19218  0  0  -0.55612  0  2.476439  0  0  -0.590716  0  2.464753  0  0  -0.328081  -0.531883  0  2.483526  0
O  O93  1  0.71780364  0.41907018  0.80241435  1  0  -0.641728  0  2.191984  0  0  -0.556087  0  2.476321  0  0  -0.590686  0  2.46464  0  0  -0.328148  -0.53184  0  2.483398  0
O  O94  1  0.78221172  0.41906623  0.30240984  1  0  -0.64183  0  2.192059  0  0  -0.556222  0  2.476285  0  0  -0.59082  0  2.464594  0  0  -0.328184  -0.531988  0  2.483386  0
O  O95  1  0.21778974  0.91906756  0.69759053  1  0  -0.641813  0  2.192081  0  0  -0.556201  0  2.476425  0  0  -0.590799  0  2.464737  0  0  -0.328206  -0.531957  0  2.483513  0
