# generated using pymatgen
data_NaH12C14(NO)3
_symmetry_space_group_name_H-M   'P 1'
_cell_length_a   8.14817406
_cell_length_b   10.40957860
_cell_length_c   15.56900000
_cell_angle_alpha   93.30120045
_cell_angle_beta   90.00000000
_cell_angle_gamma   90.00000000
_symmetry_Int_Tables_number   1
_chemical_formula_structural   NaH12C14(NO)3
_chemical_formula_sum   'Na4 H48 C56 N12 O12'
_cell_volume   1318.35661488
_cell_formula_units_Z   4
loop_
 _symmetry_equiv_pos_site_id
 _symmetry_equiv_pos_as_xyz
  1  'x, y, z'
loop_
 _atom_site_type_symbol
 _atom_site_label
 _atom_site_symmetry_multiplicity
 _atom_site_fract_x
 _atom_site_fract_y
 _atom_site_fract_z
 _atom_site_occupancy
 _atom_site_hle17_bader_spin_density
 _atom_site_hle17_ddec_charge
 _atom_site_hle17_ddec_spin_density
 _atom_site_hle17_ddec_sum_bond_order
 _atom_site_hle17_magmom
 _atom_site_hse06_10hf_bader_spin_density
 _atom_site_hse06_10hf_ddec_charge
 _atom_site_hse06_10hf_ddec_spin_density
 _atom_site_hse06_10hf_ddec_sum_bond_order
 _atom_site_hse06_10hf_magmom
 _atom_site_hse06_bader_spin_density
 _atom_site_hse06_ddec_charge
 _atom_site_hse06_ddec_spin_density
 _atom_site_hse06_ddec_sum_bond_order
 _atom_site_hse06_magmom
 _atom_site_pbe_bader_charge
 _atom_site_pbe_bader_spin_density
 _atom_site_pbe_cm5_charge
 _atom_site_pbe_ddec_charge
 _atom_site_pbe_ddec_spin_density
 _atom_site_pbe_ddec_sum_bond_order
 _atom_site_pbe_magmom
Na  Na0  1  0.34164710  0.31964997  0.67967303  1  0  0.839887  0  0.438675  0  0  0.761041  0  0.625606  0  0  0.776961  0  0.600592  0  0.87216  0  0.724341  0.749768  0  0.643082  0
Na  Na1  1  0.84164746  0.18035075  0.82032941  1  0  0.839908  0  0.438654  0  0  0.761042  0  0.625619  0  0  0.776964  0  0.600592  0  0.872129  0  0.724347  0.749768  0  0.643086  0
Na  Na2  1  0.65835241  0.68034954  0.32032920  1  0  0.839895  0  0.438672  0  0  0.761027  0  0.625631  0  0  0.776953  0  0.600607  0  0.87213  0  0.724337  0.749757  0  0.643101  0
Na  Na3  1  0.15835572  0.81965261  0.17967104  1  0  0.839865  0  0.438738  0  0  0.761016  0  0.625668  0  0  0.776937  0  0.600649  0  0.872158  0  0.724347  0.749746  0  0.643144  0
H  H4  1  0.03725497  0.48585275  0.32959709  1  0  0.096972  0  0.939155  0  0  0.108728  0  0.999342  0  0  0.110772  0  0.998462  0  0.073034  0  0.111326  0.107238  0  1.000045  0
H  H5  1  0.53727375  0.01414316  0.17040516  1  0  0.096901  0  0.939261  0  0  0.108703  0  0.999412  0  0  0.110737  0  0.998529  0  0.073104  0  0.111247  0.107201  0  1.00012  0
H  H6  1  0.96273103  0.51414965  0.67040396  1  0  0.096943  0  0.939266  0  0  0.108706  0  0.99945  0  0  0.110738  0  0.99857  0  0.07311  0  0.111266  0.107203  0  1.000158  0
H  H7  1  0.46273189  0.98585539  0.82958997  1  0  0.096901  0  0.939121  0  0  0.108673  0  0.999322  0  0  0.110719  0  0.998434  0  0.072964  0  0.111265  0.107183  0  1.000026  0
H  H8  1  0.02234488  0.25528311  0.36438793  1  0  0.10039  0  0.976089  0  0  0.113258  0  1.036891  0  0  0.115256  0  1.037873  0  0.084286  0  0.103008  0.111831  0  1.036347  0
H  H9  1  0.52235016  0.24471183  0.13561621  1  0  0.100425  0  0.976006  0  0  0.113252  0  1.03689  0  0  0.115244  0  1.037889  0  0.084471  0  0.102998  0.111832  0  1.03632  0
H  H10  1  0.97764971  0.74471929  0.63561506  1  0  0.100411  0  0.976052  0  0  0.113246  0  1.036918  0  0  0.115244  0  1.037898  0  0.084539  0  0.103005  0.111823  0  1.036358  0
H  H11  1  0.47764812  0.75528672  0.86438212  1  0  0.100453  0  0.975979  0  0  0.113275  0  1.036858  0  0  0.115262  0  1.03787  0  0.084453  0  0.103009  0.111855  0  1.036286  0
H  H12  1  0.26332034  0.12031594  0.54185892  1  0  0.130819  0  0.959193  0  0  0.153017  0  1.017299  0  0  0.155063  0  1.015896  0  0.063563  0  0.101523  0.151364  0  1.018226  0
H  H13  1  0.76330966  0.37968766  0.95814748  1  0  0.130876  0  0.959271  0  0  0.153108  0  1.017278  0  0  0.155153  0  1.015897  0  0.063722  0  0.101542  0.151445  0  1.01824  0
H  H14  1  0.73667057  0.87968549  0.45814338  1  0  0.130849  0  0.959246  0  0  0.153064  0  1.017289  0  0  0.155114  0  1.015912  0  0.063461  0  0.101534  0.15141  0  1.018242  0
H  H15  1  0.23668984  0.62031763  0.04185369  1  0  0.13086  0  0.959248  0  0  0.153069  0  1.017311  0  0  0.155115  0  1.015907  0  0.063608  0  0.10153  0.151417  0  1.018237  0
H  H16  1  0.04562863  0.12934378  0.54092962  1  0  0.120078  0  0.947156  0  0  0.144047  0  1.004979  0  0  0.14486  0  1.005935  0  0.053118  0  0.098521  0.143507  0  1.004272  0
H  H17  1  0.54561795  0.37065502  0.95907467  1  0  0.120117  0  0.947026  0  0  0.14406  0  1.004902  0  0  0.144875  0  1.005854  0  0.053076  0  0.098494  0.14352  0  1.004193  0
H  H18  1  0.95436719  0.87065574  0.45907261  1  0  0.120085  0  0.947198  0  0  0.144042  0  1.005041  0  0  0.144858  0  1.005994  0  0.053195  0  0.098485  0.143502  0  1.004334  0
H  H19  1  0.45438033  0.62934931  0.04092710  1  0  0.120095  0  0.947046  0  0  0.144036  0  1.00491  0  0  0.14485  0  1.005864  0  0.053081  0  0.098505  0.143497  0  1.004203  0
H  H20  1  0.15222306  0.08158344  0.44493121  1  0  0.116223  0  0.959717  0  0  0.135856  0  1.024391  0  0  0.137645  0  1.023403  0  0.058699  0  0.09235  0.13439  0  1.025083  0
H  H21  1  0.65221484  0.41841054  0.05507611  1  0  0.116193  0  0.959802  0  0  0.135885  0  1.024437  0  0  0.13768  0  1.02343  0  0.058628  0  0.092341  0.134422  0  1.025115  0
H  H22  1  0.84777030  0.91841319  0.55507220  1  0  0.116204  0  0.959719  0  0  0.135853  0  1.024396  0  0  0.137647  0  1.02339  0  0.058661  0  0.09235  0.134387  0  1.025077  0
H  H23  1  0.34778467  0.58158897  0.94492676  1  0  0.116224  0  0.95982  0  0  0.13588  0  1.024454  0  0  0.137674  0  1.023461  0  0.058556  0  0.092365  0.134413  0  1.025149  0
H  H24  1  0.14086469  0.70674215  0.36702203  1  0  0.095799  0  0.966023  0  0  0.103757  0  1.034858  0  0  0.106976  0  1.033037  0  0.100263  0  0.106563  0.101393  0  1.036254  0
H  H25  1  0.64087978  0.79325520  0.13297996  1  0  0.095765  0  0.966026  0  0  0.10375  0  1.034838  0  0  0.106972  0  1.033021  0  0.100185  0  0.106557  0.101386  0  1.036241  0
H  H26  1  0.85912622  0.29325640  0.63298080  1  0  0.095837  0  0.966027  0  0  0.103797  0  1.034855  0  0  0.107017  0  1.033041  0  0.100177  0  0.106575  0.101433  0  1.036258  0
H  H27  1  0.35912218  0.20674624  0.86701914  1  0  0.095804  0  0.966033  0  0  0.103791  0  1.034848  0  0  0.107012  0  1.033023  0  0.100173  0  0.106568  0.101426  0  1.036245  0
H  H28  1  0.47421054  0.89454072  0.59680384  1  0  0.105267  0  0.958399  0  0  0.114379  0  1.020941  0  0  0.117924  0  1.017605  0  0.123705  0  0.106879  0.111861  0  1.023284  0
H  H29  1  0.97421581  0.60546048  0.90319187  1  0  0.105294  0  0.958358  0  0  0.114413  0  1.020846  0  0  0.117951  0  1.017556  0  0.123435  0  0.106882  0.111887  0  1.023248  0
H  H30  1  0.52579510  0.10545302  0.40319431  1  0  0.105258  0  0.958332  0  0  0.114388  0  1.020811  0  0  0.117927  0  1.017524  0  0.123653  0  0.106889  0.111862  0  1.023213  0
H  H31  1  0.02578983  0.39454192  0.09680598  1  0  0.105271  0  0.958377  0  0  0.11439  0  1.020918  0  0  0.117933  0  1.017581  0  0.123669  0  0.106871  0.111872  0  1.023266  0
H  H32  1  0.61373382  0.80557008  0.72156124  1  0  0.110762  0  0.94589  0  0  0.122523  0  1.003092  0  0  0.125856  0  1.002381  0  0.088009  0  0.105304  0.12013  0  1.003772  0
H  H33  1  0.11373100  0.69443015  0.77843187  1  0  0.110807  0  0.945921  0  0  0.122533  0  1.003139  0  0  0.125862  0  1.002454  0  0.088451  0  0.105347  0.120138  0  1.003838  0
H  H34  1  0.38627673  0.19442366  0.27843435  1  0  0.11074  0  0.945963  0  0  0.12252  0  1.00313  0  0  0.12585  0  1.002444  0  0.087882  0  0.105336  0.120125  0  1.003829  0
H  H35  1  0.88626727  0.30556840  0.22156390  1  0  0.110765  0  0.945913  0  0  0.122512  0  1.003126  0  0  0.125843  0  1.002419  0  0.088502  0  0.105327  0.12012  0  1.003805  0
H  H36  1  0.50275190  0.52949947  0.81785346  1  0  0.122101  0  0.947959  0  0  0.146676  0  1.005046  0  0  0.148069  0  1.004158  0  0.061655  0  0.101052  0.145605  0  1.005807  0
H  H37  1  0.00274295  0.97050461  0.68214493  1  0  0.122227  0  0.947863  0  0  0.146833  0  1.004919  0  0  0.148226  0  1.004016  0  0.061573  0  0.101181  0.145761  0  1.005665  0
H  H38  1  0.49724883  0.47050582  0.18214578  1  0  0.122109  0  0.947925  0  0  0.146686  0  1.005037  0  0  0.148079  0  1.004136  0  0.061623  0  0.101086  0.145619  0  1.005778  0
H  H39  1  0.99724551  0.02949394  0.31785405  1  0  0.122108  0  0.947958  0  0  0.146687  0  1.005046  0  0  0.148077  0  1.004162  0  0.061658  0  0.101085  0.145619  0  1.005801  0
H  H40  1  0.68547996  0.62010016  0.80261030  1  0  0.112708  0  0.967081  0  0  0.131244  0  1.032195  0  0  0.132252  0  1.033149  0  0.027486  0  0.089235  0.130457  0  1.031607  0
H  H41  1  0.18547468  0.87990392  0.69738617  1  0  0.112756  0  0.96704  0  0  0.131303  0  1.032159  0  0  0.132309  0  1.033109  0  0.027539  0  0.089257  0.130515  0  1.031566  0
H  H42  1  0.31452200  0.37990321  0.19739015  1  0  0.11274  0  0.967027  0  0  0.131271  0  1.032162  0  0  0.132279  0  1.03311  0  0.027542  0  0.089264  0.130484  0  1.03157  0
H  H43  1  0.81451868  0.12009559  0.30260836  1  0  0.112751  0  0.967038  0  0  0.13128  0  1.032166  0  0  0.132287  0  1.03312  0  0.027131  0  0.08925  0.130492  0  1.031579  0
H  H44  1  0.65952936  0.46456104  0.75078452  1  0  0.126984  0  0.957145  0  0  0.146616  0  1.022022  0  0  0.148463  0  1.021097  0  0.079265  0  0.102348  0.145365  0  1.022478  0
H  H45  1  0.15952286  0.03544257  0.74921161  1  0  0.127027  0  0.957086  0  0  0.146661  0  1.021951  0  0  0.148503  0  1.021043  0  0.079236  0  0.102388  0.145413  0  1.022414  0
H  H46  1  0.34047751  0.53543944  0.24921968  1  0  0.12697  0  0.957177  0  0  0.146601  0  1.022051  0  0  0.14845  0  1.021131  0  0.079225  0  0.102357  0.145352  0  1.022512  0
H  H47  1  0.84047296  0.96455694  0.25078227  1  0  0.126973  0  0.957166  0  0  0.146634  0  1.022016  0  0  0.148481  0  1.021091  0  0.079217  0  0.102364  0.145383  0  1.022472  0
H  H48  1  0.30151050  0.85683301  0.46485810  1  0  0.09851  0  0.955477  0  0  0.109341  0  1.017194  0  0  0.111708  0  1.016853  0  0.083076  0  0.105406  0.107881  0  1.016869  0
H  H49  1  0.80151577  0.64316145  0.03514057  1  0  0.098525  0  0.95537  0  0  0.109376  0  1.017092  0  0  0.111747  0  1.016718  0  0.08336  0  0.105392  0.107923  0  1.016737  0
H  H50  1  0.69848901  0.14315881  0.53514319  1  0  0.098499  0  0.955413  0  0  0.109355  0  1.017139  0  0  0.111711  0  1.016793  0  0.08332  0  0.105398  0.107902  0  1.016785  0
H  H51  1  0.19848987  0.35683902  0.96486106  1  0  0.098499  0  0.955435  0  0  0.109294  0  1.017191  0  0  0.111679  0  1.016831  0  0.083339  0  0.105364  0.107833  0  1.016866  0
C  C52  1  0.25970481  0.49178887  0.51583759  1  0  0.141825  0  3.751257  0  0  0.139377  0  3.993616  0  0  0.143858  0  4.014058  0  0.510913  0  0.1165  0.136243  0  3.979924  0
C  C53  1  0.75970886  0.00820800  0.98416534  1  0  0.141849  0  3.751289  0  0  0.139372  0  3.993708  0  0  0.143853  0  4.01415  0  0.510852  0  0.116493  0.136238  0  3.980017  0
C  C54  1  0.74028978  0.50820872  0.48416649  1  0  0.142017  0  3.751171  0  0  0.139566  0  3.993607  0  0  0.144051  0  4.014045  0  0.510807  0  0.116516  0.13643  0  3.979919  0
C  C55  1  0.24029433  0.99179152  0.01583496  1  0  0.142087  0  3.751055  0  0  0.139621  0  3.993476  0  0  0.144104  0  4.013915  0  0.510882  0  0.116571  0.136486  0  3.979787  0
C  C56  1  0.18558268  0.54037963  0.44146140  1  0  0.021105  0  3.789774  0  0  0.035043  0  4.022234  0  0  0.032261  0  4.046888  0  -0.002878  0  -0.004792  0.036707  0  4.005614  0
C  C57  1  0.68558796  0.95961579  0.05853730  1  0  0.021095  0  3.789846  0  0  0.03495  0  4.022473  0  0  0.032168  0  4.047127  0  -0.002382  0  -0.004794  0.036613  0  4.005854  0
C  C58  1  0.81441314  0.45961796  0.55853691  1  0  0.021091  0  3.789943  0  0  0.034948  0  4.022542  0  0  0.032167  0  4.047195  0  -0.002521  0  -0.004767  0.036612  0  4.005923  0
C  C59  1  0.31441523  0.04038373  0.94145914  1  0  0.021097  0  3.789698  0  0  0.035011  0  4.02224  0  0  0.032231  0  4.046891  0  -0.002613  0  -0.004728  0.036673  0  4.005625  0
C  C60  1  0.09672965  0.45232795  0.38693116  1  0  -0.037216  0  3.705275  0  0  -0.060873  0  3.958992  0  0  -0.058262  0  3.977171  0  -0.104977  0  -0.065587  -0.062262  0  3.946386  0
C  C61  1  0.59673738  0.04766604  0.11307102  1  0  -0.0371  0  3.705389  0  0  -0.060756  0  3.959081  0  0  -0.058146  0  3.977286  0  -0.105591  0  -0.065491  -0.06215  0  3.946508  0
C  C62  1  0.90326617  0.54766868  0.61307032  1  0  -0.037138  0  3.705266  0  0  -0.060757  0  3.958946  0  0  -0.058148  0  3.977154  0  -0.105204  0  -0.065513  -0.062151  0  3.946374  0
C  C63  1  0.40326213  0.95233155  0.88692600  1  0  -0.037085  0  3.705264  0  0  -0.06076  0  3.958976  0  0  -0.058148  0  3.977152  0  -0.105251  0  -0.065536  -0.062151  0  3.946372  0
C  C64  1  0.08803813  0.32511170  0.40609245  1  0  -0.174121  0  3.718425  0  0  -0.19434  0  3.966007  0  0  -0.201822  0  3.988476  0  -0.028044  0  -0.089825  -0.189391  0  3.950707  0
C  C65  1  0.58803849  0.17488420  0.09391044  1  0  -0.174153  0  3.718407  0  0  -0.194363  0  3.966031  0  0  -0.201845  0  3.988493  0  -0.028259  0  -0.089851  -0.189407  0  3.950732  0
C  C66  1  0.91195769  0.67488973  0.59390921  1  0  -0.174103  0  3.718296  0  0  -0.194313  0  3.965855  0  0  -0.201793  0  3.988319  0  -0.028491  0  -0.089807  -0.18936  0  3.950554  0
C  C67  1  0.41196101  0.82511627  0.90608861  1  0  -0.174209  0  3.718475  0  0  -0.194377  0  3.966101  0  0  -0.201862  0  3.988564  0  -0.028307  0  -0.089838  -0.18942  0  3.950801  0
C  C68  1  0.16556593  0.28432383  0.48107609  1  0  0.326683  0  3.749989  0  0  0.339121  0  3.994049  0  0  0.347915  0  4.013295  0  0.598053  0  0.129451  0.333274  0  3.980767  0
C  C69  1  0.66556507  0.21566919  0.01892348  1  0  0.32652  0  3.750093  0  0  0.338981  0  3.994117  0  0  0.347774  0  4.013359  0  0.598261  0  0.129436  0.333132  0  3.980836  0
C  C70  1  0.83442498  0.71567279  0.51892346  1  0  0.326404  0  3.750277  0  0  0.338886  0  3.994291  0  0  0.347679  0  4.013539  0  0.598395  0  0.129368  0.333041  0  3.980999  0
C  C71  1  0.33443689  0.78432648  0.98107346  1  0  0.326634  0  3.749896  0  0  0.339029  0  3.994  0  0  0.347823  0  4.013242  0  0.598189  0  0.129416  0.333183  0  3.980715  0
C  C72  1  0.15713950  0.14604171  0.50321938  1  0  -0.383397  0  3.694  0  0  -0.466694  0  3.922073  0  0  -0.469859  0  3.929781  0  -0.068501  0  -0.237199  -0.464147  0  3.916545  0
C  C73  1  0.65713127  0.35395901  0.99678434  1  0  -0.383428  0  3.693879  0  0  -0.466802  0  3.921884  0  0  -0.46998  0  3.929605  0  -0.068539  0  -0.237178  -0.464247  0  3.91637  0
C  C74  1  0.84285387  0.85396358  0.49678179  1  0  -0.383331  0  3.693983  0  0  -0.466663  0  3.922  0  0  -0.46985  0  3.929725  0  -0.06846  0  -0.237155  -0.464115  0  3.91648  0
C  C75  1  0.34286946  0.64604147  0.00321600  1  0  -0.383405  0  3.693884  0  0  -0.466685  0  3.921924  0  0  -0.469863  0  3.929641  0  -0.06834  0  -0.237162  -0.46414  0  3.916398  0
C  C76  1  0.20168813  0.67308070  0.42400399  1  0  -0.10378  0  3.760325  0  0  -0.128766  0  4.02202  0  0  -0.131618  0  4.044808  0  -0.06712  0  -0.083986  -0.126688  0  4.006467  0
C  C77  1  0.70169709  0.82691760  0.07599932  1  0  -0.103698  0  3.760231  0  0  -0.128682  0  4.021963  0  0  -0.131529  0  4.044719  0  -0.067023  0  -0.083961  -0.126599  0  4.006385  0
C  C78  1  0.79830892  0.32692073  0.57600152  1  0  -0.103875  0  3.760324  0  0  -0.128845  0  4.022072  0  0  -0.131693  0  4.044827  0  -0.06732  0  -0.084056  -0.126761  0  4.006492  0
C  C79  1  0.29830487  0.17308287  0.92400231  1  0  -0.103832  0  3.760358  0  0  -0.128833  0  4.022047  0  0  -0.131689  0  4.044841  0  -0.067046  0  -0.084006  -0.126755  0  4.006495  0
C  C80  1  0.35303247  0.57953072  0.57317304  1  0  0.142468  0  3.747952  0  0  0.137394  0  3.992621  0  0  0.141957  0  4.012665  0  0.486348  0  0.115181  0.134459  0  3.97902  0
C  C81  1  0.85303897  0.92047048  0.92682717  1  0  0.142375  0  3.748147  0  0  0.137405  0  3.99275  0  0  0.141972  0  4.012791  0  0.486194  0  0.115222  0.134468  0  3.979154  0
C  C82  1  0.64696703  0.42046880  0.42682919  1  0  0.142456  0  3.748258  0  0  0.137328  0  3.993018  0  0  0.141893  0  4.01306  0  0.486319  0  0.115223  0.134393  0  3.979417  0
C  C83  1  0.14696790  0.07953288  0.07317200  1  0  0.142373  0  3.748125  0  0  0.137267  0  3.992834  0  0  0.141831  0  4.012877  0  0.486303  0  0.115196  0.134332  0  3.979236  0
C  C84  1  0.36636797  0.71097028  0.55319741  1  0  0.020644  0  3.795484  0  0  0.03483  0  4.029302  0  0  0.032321  0  4.053516  0  -0.016105  0  -0.005633  0.036275  0  4.013047  0
C  C85  1  0.86637447  0.78902803  0.94680012  1  0  0.020693  0  3.795254  0  0  0.034772  0  4.029193  0  0  0.032262  0  4.0534  0  -0.015884  0  -0.005694  0.036218  0  4.012933  0
C  C86  1  0.63363399  0.28902731  0.44680218  1  0  0.020534  0  3.795303  0  0  0.034761  0  4.02913  0  0  0.032254  0  4.053334  0  -0.015844  0  -0.005688  0.036209  0  4.012869  0
C  C87  1  0.13362871  0.21097437  0.05319709  1  0  0.020607  0  3.795517  0  0  0.034852  0  4.029264  0  0  0.032342  0  4.053482  0  -0.015816  0  -0.00564  0.036297  0  4.013009  0
C  C88  1  0.46049335  0.79304062  0.60933048  1  0  -0.0428  0  3.703313  0  0  -0.06442  0  3.950706  0  0  -0.062053  0  3.968127  0  -0.036626  0  -0.068454  -0.065731  0  3.93875  0
C  C89  1  0.96049617  0.70696058  0.89066394  1  0  -0.042835  0  3.703126  0  0  -0.064415  0  3.950505  0  0  -0.062048  0  3.96796  0  -0.036919  0  -0.068416  -0.06573  0  3.938579  0
C  C90  1  0.53951719  0.20695409  0.39066514  1  0  -0.042673  0  3.702952  0  0  -0.064309  0  3.95032  0  0  -0.061945  0  3.967777  0  -0.037295  0  -0.068392  -0.065626  0  3.938396  0
C  C91  1  0.03950456  0.29304182  0.10933133  1  0  -0.042851  0  3.703286  0  0  -0.064495  0  3.950682  0  0  -0.062125  0  3.9681  0  -0.036739  0  -0.068465  -0.065808  0  3.938728  0
C  C92  1  0.53628825  0.74387347  0.67954421  1  0  -0.17707  0  3.710382  0  0  -0.194728  0  3.956548  0  0  -0.202357  0  3.977844  0  -0.045727  0  -0.089834  -0.189729  0  3.942265  0
C  C93  1  0.03629034  0.75612869  0.82045025  1  0  -0.17711  0  3.710345  0  0  -0.194749  0  3.956471  0  0  -0.202379  0  3.977795  0  -0.045684  0  -0.08989  -0.18976  0  3.9422  0
C  C94  1  0.46371493  0.25612220  0.32045273  1  0  -0.177065  0  3.710518  0  0  -0.194793  0  3.956629  0  0  -0.202424  0  3.97795  0  -0.044777  0  -0.089892  -0.189797  0  3.942365  0
C  C95  1  0.96370794  0.24387179  0.17954430  1  0  -0.177035  0  3.710342  0  0  -0.19467  0  3.956501  0  0  -0.202295  0  3.977803  0  -0.046251  0  -0.089827  -0.189686  0  3.942202  0
C  C96  1  0.51650099  0.61221740  0.69512907  1  0  0.321215  0  3.746144  0  0  0.33254  0  3.9922  0  0  0.34143  0  4.011002  0  0.49503  0  0.125489  0.326578  0  3.979357  0
C  C97  1  0.01650063  0.88778283  0.80486724  1  0  0.321269  0  3.745996  0  0  0.332655  0  3.991981  0  0  0.341531  0  4.010799  0  0.494848  0  0.125596  0.326718  0  3.979097  0
C  C98  1  0.48350464  0.38777826  0.30486915  1  0  0.321072  0  3.746331  0  0  0.332598  0  3.992119  0  0  0.341478  0  4.01093  0  0.495011  0  0.12547  0.326638  0  3.979269  0
C  C99  1  0.98350010  0.11221765  0.19512924  1  0  0.321243  0  3.746084  0  0  0.33257  0  3.99214  0  0  0.341444  0  4.010967  0  0.494781  0  0.125537  0.326656  0  3.979226  0
C  C100  1  0.59640233  0.55449681  0.77070812  1  0  -0.384325  0  3.70191  0  0  -0.467776  0  3.934791  0  0  -0.470266  0  3.94131  0  -0.076119  0  -0.238666  -0.465779  0  3.930153  0
C  C101  1  0.09639583  0.94550631  0.72928959  1  0  -0.384589  0  3.70196  0  0  -0.468095  0  3.934815  0  0  -0.470577  0  3.941329  0  -0.076145  0  -0.238898  -0.466103  0  3.930161  0
C  C102  1  0.40360208  0.44550367  0.22929350  1  0  -0.384298  0  3.701937  0  0  -0.46782  0  3.934779  0  0  -0.470305  0  3.941292  0  -0.076044  0  -0.238738  -0.465824  0  3.930129  0
C  C103  1  0.90359876  0.05449417  0.27070626  1  0  -0.384387  0  3.701894  0  0  -0.467888  0  3.934809  0  0  -0.470374  0  3.941336  0  -0.075716  0  -0.238768  -0.465904  0  3.930152  0
C  C104  1  0.28876285  0.75557155  0.47812551  1  0  -0.106914  0  3.755855  0  0  -0.129498  0  4.012451  0  0  -0.132626  0  4.035612  0  -0.00881  0  -0.086187  -0.127303  0  3.996369  0
C  C105  1  0.78877672  0.74442580  0.02187584  1  0  -0.107013  0  3.755556  0  0  -0.129594  0  4.012254  0  0  -0.132706  0  4.035357  0  -0.009273  0  -0.08618  -0.127389  0  3.996116  0
C  C106  1  0.71123297  0.24442316  0.52187718  1  0  -0.106935  0  3.755518  0  0  -0.129557  0  4.012154  0  0  -0.132663  0  4.035279  0  -0.009147  0  -0.086179  -0.12735  0  3.996013  0
C  C107  1  0.21123506  0.25557468  0.97812515  1  0  -0.106868  0  3.755798  0  0  -0.129425  0  4.012383  0  0  -0.132569  0  4.035546  0  -0.009239  0  -0.086161  -0.127229  0  3.996297  0
N  N108  1  0.24713758  0.36623732  0.53458703  1  0  -0.447239  0  3.091817  0  0  -0.411648  0  3.355082  0  0  -0.425296  0  3.369726  0  -1.265851  0  -0.385211  -0.402507  0  3.345225  0
N  N109  1  0.74713917  0.13376147  0.96541533  1  0  -0.447148  0  3.091887  0  0  -0.411542  0  3.355135  0  0  -0.425187  0  3.369773  0  -1.265774  0  -0.385181  -0.402398  0  3.345271  0
N  N110  1  0.75285579  0.63376123  0.46541516  1  0  -0.447221  0  3.091976  0  0  -0.41162  0  3.355222  0  0  -0.425267  0  3.369863  0  -1.265809  0  -0.385186  -0.402477  0  3.345359  0
N  N111  1  0.25286401  0.86623997  0.03458440  1  0  -0.447399  0  3.091721  0  0  -0.411777  0  3.355006  0  0  -0.425423  0  3.369646  0  -1.265671  0  -0.385281  -0.402637  0  3.34515  0
N  N112  1  0.42635564  0.53346490  0.64334045  1  0  -0.447846  0  3.106176  0  0  -0.410811  0  3.369929  0  0  -0.424395  0  3.384581  0  -1.225843  0  -0.394458  -0.401595  0  3.359889  0
N  N113  1  0.92635969  0.96653341  0.85665964  1  0  -0.447801  0  3.106148  0  0  -0.41082  0  3.369899  0  0  -0.424398  0  3.384539  0  -1.225545  0  -0.394519  -0.401611  0  3.359833  0
N  N114  1  0.57364509  0.46652595  0.35666080  1  0  -0.447741  0  3.106405  0  0  -0.410753  0  3.370134  0  0  -0.424332  0  3.384774  0  -1.226043  0  -0.394435  -0.401538  0  3.360077  0
N  N115  1  0.07364472  0.03346803  0.14333945  1  0  -0.447815  0  3.106249  0  0  -0.41077  0  3.370014  0  0  -0.424348  0  3.384672  0  -1.225571  0  -0.39449  -0.40157  0  3.359957  0
N  N116  1  0.07790703  0.37295479  0.79835071  1  0  0.679896  0  4.202475  0  0  0.728476  0  4.479554  0  0  0.741736  0  4.505613  0  0.806182  0  0.049263  0.709776  0  4.475648  0
N  N117  1  0.57790984  0.12704689  0.70165177  1  0  0.679753  0  4.202262  0  0  0.714404  0  4.49896  0  0  0.741647  0  4.505354  0  0.806089  0  0.049303  0.709852  0  4.475196  0
N  N118  1  0.92209616  0.62705145  0.20165307  1  0  0.679685  0  4.202221  0  0  0.714359  0  4.498904  0  0  0.741603  0  4.505295  0  0.806117  0  0.04932  0.709848  0  4.475098  0
N  N119  1  0.42208966  0.87295359  0.29834986  1  0  0.679868  0  4.202236  0  0  0.72856  0  4.479166  0  0  0.741749  0  4.505322  0  0.806092  0  0.049267  0.709861  0  4.47526  0
O  O120  1  0.20062163  0.44700189  0.80113550  1  0  -0.476477  0  1.732479  0  0  -0.474051  0  1.941213  0  0  -0.482202  0  1.940178  0  -0.55165  0  -0.216278  -0.465204  0  1.946076  0
O  O121  1  0.70062323  0.05300075  0.69886508  1  0  -0.476481  0  1.732492  0  0  -0.469324  0  1.946758  0  0  -0.48219  0  1.940146  0  -0.551652  0  -0.216312  -0.465243  0  1.94598  0
O  O122  1  0.79938400  0.55300244  0.19886884  1  0  -0.476438  0  1.732419  0  0  -0.469303  0  1.946706  0  0  -0.482176  0  1.940101  0  -0.551617  0  -0.216342  -0.465234  0  1.945923  0
O  O123  1  0.29937873  0.94700165  0.30113597  1  0  -0.476473  0  1.732456  0  0  -0.474079  0  1.941165  0  0  -0.482207  0  1.940162  0  -0.551671  0  -0.216297  -0.465232  0  1.946027  0
O  O124  1  0.07806534  0.27284803  0.74604500  1  0  -0.559111  0  1.727844  0  0  -0.549326  0  1.946572  0  0  -0.558848  0  1.942502  0  -0.606854  0  -0.28892  -0.539273  0  1.953075  0
O  O125  1  0.57806448  0.22714980  0.75395989  1  0  -0.559058  0  1.727742  0  0  -0.544569  0  1.951805  0  0  -0.558782  0  1.94234  0  -0.606884  0  -0.288921  -0.539261  0  1.952856  0
O  O126  1  0.92194030  0.72715533  0.25395866  1  0  -0.55904  0  1.727723  0  0  -0.544548  0  1.951768  0  0  -0.558757  0  1.942301  0  -0.607016  0  -0.288935  -0.539254  0  1.95281  0
O  O127  1  0.42193257  0.77285068  0.24604173  1  0  -0.559144  0  1.727835  0  0  -0.549395  0  1.946509  0  0  -0.558897  0  1.942469  0  -0.606841  0  -0.288945  -0.539344  0  1.953013  0
O  O128  1  0.95426656  0.39477382  0.84607240  1  0  -0.490022  0  1.761998  0  0  -0.484378  0  1.974674  0  0  -0.493661  0  1.972873  0  -0.559762  0  -0.228721  -0.474494  0  1.979694  0
O  O129  1  0.45427110  0.10523171  0.65392765  1  0  -0.489975  0  1.762023  0  0  -0.479677  0  1.980257  0  0  -0.493649  0  1.972891  0  -0.559614  0  -0.228724  -0.47454  0  1.979659  0
O  O130  1  0.04573172  0.60523916  0.15392521  1  0  -0.489949  0  1.762023  0  0  -0.479665  0  1.98025  0  0  -0.493633  0  1.972881  0  -0.559575  0  -0.228715  -0.474543  0  1.979639  0
O  O131  1  0.54572840  0.89476588  0.34607515  1  0  -0.489969  0  1.761887  0  0  -0.484367  0  1.974505  0  0  -0.493631  0  1.972745  0  -0.559658  0  -0.228673  -0.474485  0  1.979531  0
