# generated using pymatgen
data_DyCd2H19C20N6Cl2O13
_symmetry_space_group_name_H-M   'P 1'
_cell_length_a   7.35165085
_cell_length_b   12.49849285
_cell_length_c   17.24841894
_cell_angle_alpha   68.79427781
_cell_angle_beta   87.07249300
_cell_angle_gamma   81.37648723
_symmetry_Int_Tables_number   1
_chemical_formula_structural   DyCd2H19C20N6Cl2O13
_chemical_formula_sum   'Dy2 Cd4 H38 C40 N12 Cl4 O26'
_cell_volume   1460.83614644
_cell_formula_units_Z   2
loop_
 _symmetry_equiv_pos_site_id
 _symmetry_equiv_pos_as_xyz
  1  'x, y, z'
loop_
 _atom_site_type_symbol
 _atom_site_label
 _atom_site_symmetry_multiplicity
 _atom_site_fract_x
 _atom_site_fract_y
 _atom_site_fract_z
 _atom_site_occupancy
 _atom_site_hle17_bader_spin_density
 _atom_site_hle17_ddec_charge
 _atom_site_hle17_ddec_spin_density
 _atom_site_hle17_ddec_sum_bond_order
 _atom_site_hle17_magmom
 _atom_site_hse06_10hf_bader_spin_density
 _atom_site_hse06_10hf_ddec_charge
 _atom_site_hse06_10hf_ddec_spin_density
 _atom_site_hse06_10hf_ddec_sum_bond_order
 _atom_site_hse06_10hf_magmom
 _atom_site_hse06_bader_spin_density
 _atom_site_hse06_ddec_charge
 _atom_site_hse06_ddec_spin_density
 _atom_site_hse06_ddec_sum_bond_order
 _atom_site_hse06_magmom
 _atom_site_pbe_bader_charge
 _atom_site_pbe_bader_spin_density
 _atom_site_pbe_cm5_charge
 _atom_site_pbe_ddec_charge
 _atom_site_pbe_ddec_spin_density
 _atom_site_pbe_ddec_sum_bond_order
 _atom_site_pbe_magmom
Dy  Dy0  1  0.77466562  0.58837170  0.77423991  1  0  2.322136  0  1.679017  0  0  2.18855  0  2.142758  0  0  2.30073  0  1.974364  0  2.192773  0  1.519012  2.155002  0  2.174529  0
Dy  Dy1  1  0.27486982  0.36224357  0.22602898  1  0  2.322543  0  1.679349  0  0  2.18972  0  2.142014  0  0  2.301184  0  1.974703  0  2.200554  0  1.519704  2.156862  0  2.172811  0
Cd  Cd2  1  0.81396357  0.02067452  0.90492008  1  0  1.104241  0  1.803068  0  0  0.929948  0  2.26768  0  0  0.982322  0  2.217627  0  1.231628  0  0.693872  0.892547  0  2.302007  0
Cd  Cd3  1  0.31376049  0.92553174  0.09470605  1  0  1.10399  0  1.803352  0  0  0.929644  0  2.268056  0  0  0.982035  0  2.218009  0  1.231984  0  0.693026  0.892244  0  2.302352  0
Cd  Cd4  1  0.55650605  0.83499314  0.47298538  1  0  1.11491  0  1.740989  0  0  0.932314  0  2.208232  0  0  0.98457  0  2.157045  0  1.21408  0  0.716529  0.895213  0  2.243186  0
Cd  Cd5  1  0.05619580  0.30871658  0.52699616  1  0  1.115208  0  1.739845  0  0  0.932633  0  2.206706  0  0  0.984882  0  2.155578  0  1.214876  0  0.716492  0.895539  0  2.241604  0
H  H6  1  0.26848060  0.32839913  0.83334266  1  0  0.085805  0  0.909442  0  0  0.099209  0  0.961567  0  0  0.101983  0  0.95916  0  0.095602  0  0.125369  0.097168  0  0.963327  0
H  H7  1  0.76838309  0.16252166  0.16676023  1  0  0.084784  0  0.910028  0  0  0.098279  0  0.962232  0  0  0.101037  0  0.959824  0  0.091177  0  0.12558  0.096277  0  0.963971  0
H  H8  1  0.37950825  0.77753608  0.84463579  1  0  0.089556  0  0.925626  0  0  0.099492  0  0.984825  0  0  0.102801  0  0.981491  0  0.119005  0  0.123248  0.097036  0  0.987428  0
H  H9  1  0.87927475  0.62194184  0.15497642  1  0  0.088653  0  0.925573  0  0  0.09911  0  0.984375  0  0  0.102438  0  0.981005  0  0.116183  0  0.122918  0.096649  0  0.986977  0
H  H10  1  0.34794934  0.48360269  0.57972378  1  0  0.09015  0  0.962357  0  0  0.095595  0  1.029604  0  0  0.09876  0  1.026651  0  0.124482  0  0.103466  0.093269  0  1.031778  0
H  H11  1  0.84784615  0.06287903  0.42073870  1  0  0.090194  0  0.962018  0  0  0.094891  0  1.029956  0  0  0.098108  0  1.026935  0  0.128716  0  0.103404  0.092578  0  1.032118  0
H  H12  1  0.20366219  0.86864814  0.60183037  1  0  0.081593  0  0.957858  0  0  0.087608  0  1.025948  0  0  0.090731  0  1.022919  0  0.129746  0  0.105573  0.085377  0  1.028045  0
H  H13  1  0.70478242  0.47000508  0.39735856  1  0  0.081329  0  0.959732  0  0  0.087643  0  1.027583  0  0  0.090702  0  1.024626  0  0.123571  0  0.10498  0.085471  0  1.029605  0
H  H14  1  0.86045227  0.70846439  0.55461784  1  0  0.424339  0  0.850207  0  0  0.394228  0  0.927498  0  0  0.405173  0  0.91274  0  0.629489  0  0.297012  0.386408  0  0.936877  0
H  H15  1  0.35909154  0.26294155  0.44549396  1  0  0.423718  0  0.852874  0  0  0.393643  0  0.92983  0  0  0.404615  0  0.913896  0  0.633603  0  0.29675  0.385799  0  0.939187  0
H  H16  1  0.82832284  0.61363077  0.52007968  1  0  0.426807  0  0.871464  0  0  0.392874  0  0.941892  0  0  0.405228  0  0.924032  0  0.665257  0  0.286973  0.384154  0  0.95444  0
H  H17  1  0.32735361  0.13361613  0.47991784  1  0  0.427548  0  0.869816  0  0  0.393523  0  0.94055  0  0  0.405907  0  0.922659  0  0.661871  0  0.287755  0.38479  0  0.953102  0
H  H18  1  0.53317475  0.30285383  0.57183040  1  0  0.118482  0  0.951312  0  0  0.126136  0  1.014656  0  0  0.129614  0  1.013338  0  0.117373  0  0.104494  0.1236  0  1.015797  0
H  H19  1  0.03322995  0.87421411  0.42855746  1  0  0.117961  0  0.952511  0  0  0.124871  0  1.016968  0  0  0.128326  0  1.015676  0  0.126918  0  0.103938  0.122403  0  1.018  0
H  H20  1  0.24454109  0.96990547  0.85032900  1  0  0.123082  0  0.957581  0  0  0.12918  0  1.024353  0  0  0.132787  0  1.022486  0  0.125472  0  0.105393  0.126621  0  1.025787  0
H  H21  1  0.74407640  0.82000198  0.14932024  1  0  0.123185  0  0.956311  0  0  0.129521  0  1.022926  0  0  0.133116  0  1.021123  0  0.135594  0  0.105187  0.126945  0  1.024367  0
H  H22  1  0.05288558  0.06420636  0.59721056  1  0  0.102575  0  0.967325  0  0  0.111217  0  1.033001  0  0  0.114502  0  1.031515  0  0.105756  0  0.100574  0.108823  0  1.034257  0
H  H23  1  0.55452521  0.66086501  0.40208000  1  0  0.102107  0  0.96658  0  0  0.11051  0  1.032555  0  0  0.113762  0  1.031058  0  0.074972  0  0.100867  0.108178  0  1.03377  0
H  H24  1  0.44047259  0.14045085  0.83647113  1  0  0.11447  0  0.995941  0  0  0.121656  0  1.062281  0  0  0.125285  0  1.060307  0  0.155031  0  0.098127  0.118997  0  1.063961  0
H  H25  1  0.94066208  0.97783584  0.16350557  1  0  0.115831  0  0.994566  0  0  0.122491  0  1.061775  0  0  0.126122  0  1.059852  0  0.161172  0  0.098259  0.119836  0  1.063409  0
H  H26  1  0.94695014  0.40315808  0.94733172  1  0  0.438092  0  0.841531  0  0  0.411497  0  0.897387  0  0  0.420788  0  0.883724  0  0.622733  0  0.31078  0.404664  0  0.907587  0
H  H27  1  0.44678473  0.35089840  0.05250838  1  0  0.43776  0  0.840137  0  0  0.411207  0  0.897359  0  0  0.420499  0  0.883678  0  0.634709  0  0.310239  0.40436  0  0.907595  0
H  H28  1  0.09584186  0.48403316  0.91225456  1  0  0.419764  0  0.846281  0  0  0.396932  0  0.907465  0  0  0.405132  0  0.895312  0  0.604551  0  0.314706  0.390664  0  0.91693  0
H  H29  1  0.59525912  0.39673957  0.08805636  1  0  0.42096  0  0.845412  0  0  0.39743  0  0.907055  0  0  0.405655  0  0.894867  0  0.633814  0  0.314679  0.391124  0  0.916579  0
H  H30  1  0.55769737  0.08824205  0.58799205  1  0  0.332763  0  0.855065  0  0  0.309976  0  0.922527  0  0  0.318624  0  0.915056  0  0.556951  0  0.324788  0.303801  0  0.927979  0
H  H31  1  0.05826857  0.67641937  0.41210350  1  0  0.332374  0  0.855977  0  0  0.309996  0  0.922821  0  0  0.318638  0  0.915334  0  0.550856  0  0.324297  0.303809  0  0.928269  0
H  H32  1  0.46434909  0.62272270  0.67062071  1  0  0.426311  0  0.862135  0  0  0.396225  0  0.931903  0  0  0.406029  0  0.91779  0  0.6242  0  0.287148  0.38921  0  0.942173  0
H  H33  1  0.96547869  0.29255432  0.32922528  1  0  0.426361  0  0.861038  0  0  0.396193  0  0.931592  0  0  0.405982  0  0.917499  0  0.634032  0  0.28754  0.3892  0  0.941831  0
H  H34  1  0.39992566  0.70443217  0.72401795  1  0  0.363624  0  0.979909  0  0  0.322053  0  1.061024  0  0  0.333912  0  1.045011  0  0.618795  0  0.277586  0.313621  0  1.072659  0
H  H35  1  0.90060181  0.42769695  0.27569720  1  0  0.363457  0  0.980316  0  0  0.322503  0  1.060396  0  0  0.334354  0  1.044382  0  0.6209  0  0.277682  0.314074  0  1.072044  0
H  H36  1  0.17539805  0.50924042  0.73290565  1  0  0.399748  0  0.921465  0  0  0.353914  0  1.009066  0  0  0.366599  0  0.991472  0  0.638631  0  0.28478  0.345215  0  1.021171  0
H  H37  1  0.67578274  0.24197925  0.26764028  1  0  0.399281  0  0.922448  0  0  0.353639  0  1.009697  0  0  0.366322  0  0.992129  0  0.63106  0  0.28439  0.344947  0  1.021777  0
H  H38  1  0.16239081  0.62172887  0.75856434  1  0  0.443014  0  0.825268  0  0  0.418421  0  0.886367  0  0  0.427863  0  0.8726  0  0.612802  0  0.318332  0.411868  0  0.896041  0
H  H39  1  0.66202884  0.38030909  0.24210773  1  0  0.442261  0  0.826395  0  0  0.417439  0  0.888189  0  0  0.426874  0  0.874443  0  0.623336  0  0.317374  0.410888  0  0.897864  0
H  H40  1  0.57266240  0.51652953  0.94546753  1  0  0.471921  0  0.80722  0  0  0.444434  0  0.861593  0  0  0.455187  0  0.846001  0  0.67227  0  0.306007  0.437142  0  0.872172  0
H  H41  1  0.07267220  0.46160982  0.05442694  1  0  0.472153  0  0.8076  0  0  0.444476  0  0.862111  0  0  0.455289  0  0.846469  0  0.667745  0  0.305971  0.437143  0  0.87274  0
H  H42  1  0.67467257  0.62554475  0.92450229  1  0  0.446356  0  0.809236  0  0  0.427922  0  0.861267  0  0  0.436947  0  0.848197  0  0.6328  0  0.330639  0.421484  0  0.870804  0
H  H43  1  0.17437587  0.54965507  0.07577703  1  0  0.447036  0  0.807394  0  0  0.427777  0  0.861505  0  0  0.436873  0  0.848316  0  0.645462  0  0.33052  0.421307  0  0.871056  0
C  C44  1  0.74465921  0.91738126  0.76074927  1  0  0.00699  0  3.732537  0  0  -0.00072  0  3.993993  0  0  -0.001701  0  4.014683  0  0.447744  0  0.089786  -0.000177  0  3.980068  0
C  C45  1  0.24436707  0.67821482  0.23967686  1  0  0.007401  0  3.732048  0  0  0.000507  0  3.992319  0  0  -0.000632  0  4.013238  0  0.509222  0  0.089788  0.00116  0  3.978239  0
C  C46  1  0.89820609  0.26235523  0.78286222  1  0  0.008825  0  3.729485  0  0  0.001437  0  3.988406  0  0  0.000734  0  4.008726  0  0.436911  0  0.081491  0.001892  0  3.974476  0
C  C47  1  0.39855759  0.04503833  0.21690260  1  0  0.010406  0  3.728421  0  0  0.002002  0  3.988454  0  0  0.001344  0  4.008799  0  0.489199  0  0.081227  0.002428  0  3.974523  0
C  C48  1  0.69915914  0.93535836  0.67854099  1  0  0.011094  0  3.654779  0  0  -0.005306  0  3.920246  0  0  -0.008494  0  3.93985  0  0.381649  0  0.091965  -0.00325  0  3.907143  0
C  C49  1  0.19921170  0.61400594  0.32176327  1  0  0.011021  0  3.654252  0  0  -0.004913  0  3.918551  0  0  -0.008175  0  3.938309  0  0.314733  0  0.09199  -0.002842  0  3.905323  0
C  C50  1  0.32914014  0.31932848  0.77654532  1  0  0.140787  0  3.684439  0  0  0.110411  0  3.93781  0  0  0.117055  0  3.953646  0  0.472795  0  0.055534  0.10618  0  3.92667  0
C  C51  1  0.82919130  0.09639436  0.22359806  1  0  0.142342  0  3.683048  0  0  0.112242  0  3.936578  0  0  0.118909  0  3.952381  0  0.495958  0  0.055898  0.107973  0  3.925491  0
C  C52  1  0.91919919  0.32153578  0.69707039  1  0  -0.009556  0  3.764915  0  0  -0.020746  0  4.027886  0  0  -0.024564  0  4.050648  0  0.4287  0  0.070672  -0.018303  0  4.012362  0
C  C53  1  0.41982025  0.01804121  0.30278956  1  0  -0.010703  0  3.764911  0  0  -0.020431  0  4.027089  0  0  -0.024311  0  4.04994  0  0.374904  0  0.070721  -0.017949  0  4.011502  0
C  C54  1  0.60077121  0.09397712  0.70780029  1  0  0.348235  0  3.707818  0  0  0.311852  0  3.976872  0  0  0.325889  0  3.990682  0  0.989836  0  0.230835  0.302726  0  3.967055  0
C  C55  1  0.10080988  0.80195743  0.29242607  1  0  0.349127  0  3.705712  0  0  0.313129  0  3.974742  0  0  0.327106  0  3.988531  0  0.997948  0  0.230284  0.304017  0  3.964926  0
C  C56  1  0.30725406  0.84449244  0.79115716  1  0  0.139461  0  3.6836  0  0  0.106751  0  3.940071  0  0  0.113961  0  3.955245  0  0.476076  0  0.0538  0.102063  0  3.929654  0
C  C57  1  0.80724069  0.63535622  0.20836635  1  0  0.140362  0  3.68234  0  0  0.106998  0  3.939137  0  0  0.114206  0  3.954363  0  0.423533  0  0.05402  0.102315  0  3.928662  0
C  C58  1  0.04389350  0.14163762  0.72876558  1  0  0.326071  0  3.808651  0  0  0.294859  0  4.07796  0  0  0.307218  0  4.095297  0  0.959089  0  0.201885  0.286601  0  4.065892  0
C  C59  1  0.54436732  0.86998524  0.27094870  1  0  0.326011  0  3.80722  0  0  0.295299  0  4.075679  0  0  0.307827  0  4.092795  0  0.97748  0  0.202456  0.287067  0  4.063532  0
C  C60  1  0.85383589  0.44070069  0.64113273  1  0  0.680148  0  3.915174  0  0  0.630448  0  4.208882  0  0  0.666218  0  4.200908  0  1.575752  0  0.219391  0.60642  0  4.214555  0
C  C61  1  0.35456716  0.08113327  0.35876204  1  0  0.680855  0  3.913788  0  0  0.629899  0  4.208985  0  0  0.665675  0  4.201057  0  1.583867  0  0.219277  0.60588  0  4.214601  0
C  C62  1  0.80760758  0.29332257  0.85282699  1  0  0.694187  0  3.884591  0  0  0.646407  0  4.179564  0  0  0.681869  0  4.17024  0  1.606409  0  0.223096  0.622477  0  4.186221  0
C  C63  1  0.30790866  0.14628038  0.14684328  1  0  0.69261  0  3.884698  0  0  0.644284  0  4.181313  0  0  0.679711  0  4.172056  0  1.608033  0  0.221812  0.62037  0  4.187946  0
C  C64  1  0.84560769  0.81719054  0.82865361  1  0  0.686108  0  3.909373  0  0  0.636186  0  4.208764  0  0  0.671596  0  4.199471  0  1.624368  0  0.217423  0.61244  0  4.215107  0
C  C65  1  0.34438957  0.64568683  0.17189348  1  0  0.68536  0  3.909526  0  0  0.634745  0  4.209481  0  0  0.670199  0  4.200242  0  1.634897  0  0.218015  0.610985  0  4.215774  0
C  C66  1  0.37283184  0.40548273  0.63512771  1  0  0.127734  0  3.680189  0  0  0.095695  0  3.9393  0  0  0.101789  0  3.955318  0  0.480878  0  0.043795  0.09182  0  3.928242  0
C  C67  1  0.87280175  0.04043109  0.36524886  1  0  0.127959  0  3.681697  0  0  0.09696  0  3.940181  0  0  0.103014  0  3.956195  0  0.466669  0  0.043964  0.093069  0  3.929121  0
C  C68  1  0.13720593  0.03324683  0.72386577  1  0  0.048465  0  3.7704  0  0  0.061842  0  4.007768  0  0  0.065111  0  4.027392  0  -0.008436  0  0.010748  0.059752  0  3.994439  0
C  C69  1  0.63773332  0.75673896  0.27564318  1  0  0.048212  0  3.769548  0  0  0.061254  0  4.006757  0  0  0.064467  0  4.026345  0  0.002836  0  0.00988  0.059155  0  3.993425  0
C  C70  1  0.50175054  0.20603366  0.70395657  1  0  0.037703  0  3.774282  0  0  0.052259  0  4.013395  0  0  0.053828  0  4.034725  0  -0.057246  0  0.009545  0.051267  0  3.998856  0
C  C71  1  0.00184340  0.91021914  0.29623427  1  0  0.038757  0  3.772605  0  0  0.053165  0  4.011793  0  0  0.054747  0  4.033094  0  -0.056799  0  0.010961  0.052152  0  3.997296  0
C  C72  1  0.20878527  0.89601981  0.65493927  1  0  0.131158  0  3.699486  0  0  0.099001  0  3.953467  0  0  0.105497  0  3.970339  0  0.395696  0  0.042328  0.094857  0  3.941667  0
C  C73  1  0.70976243  0.55050725  0.34436583  1  0  0.129175  0  3.70228  0  0  0.096569  0  3.956513  0  0  0.103083  0  3.973513  0  0.424268  0  0.042157  0.092395  0  3.944649  0
C  C74  1  0.47446106  0.30415350  0.63086493  1  0  -0.146238  0  3.685011  0  0  -0.168542  0  3.941086  0  0  -0.174838  0  3.961089  0  -0.011033  0  -0.085124  -0.164375  0  3.927623  0
C  C75  1  0.97447247  0.93486285  0.36945798  1  0  -0.145766  0  3.685655  0  0  -0.167468  0  3.941372  0  0  -0.173728  0  3.9614  0  -0.051028  0  -0.085028  -0.163367  0  3.927933  0
C  C76  1  0.23099347  0.95120972  0.79411526  1  0  -0.121357  0  3.667051  0  0  -0.142695  0  3.9199  0  0  -0.148205  0  3.938339  0  -0.017835  0  -0.076773  -0.139236  0  3.907617  0
C  C77  1  0.73089435  0.74503654  0.20543368  1  0  -0.120872  0  3.664936  0  0  -0.141835  0  3.916524  0  0  -0.147361  0  3.934994  0  0.050831  0  -0.075498  -0.138352  0  3.904214  0
C  C78  1  0.12848762  0.00488574  0.65255879  1  0  -0.145979  0  3.702698  0  0  -0.164142  0  3.950218  0  0  -0.171131  0  3.971322  0  0.024473  0  -0.086778  -0.15954  0  3.936003  0
C  C79  1  0.62962957  0.65697476  0.34680037  1  0  -0.14413  0  3.702161  0  0  -0.162067  0  3.949951  0  0  -0.168967  0  3.971084  0  0.045148  0  -0.08682  -0.15757  0  3.935749  0
C  C80  1  0.42671669  0.21472060  0.77828084  1  0  -0.126202  0  3.677304  0  0  -0.149324  0  3.928127  0  0  -0.155142  0  3.948205  0  0.008157  0  -0.077658  -0.145598  0  3.914745  0
C  C81  1  0.92689011  0.99360971  0.22180025  1  0  -0.127363  0  3.67543  0  0  -0.150562  0  3.927203  0  0  -0.156436  0  3.947317  0  0.019474  0  -0.07826  -0.146799  0  3.913799  0
C  C82  1  0.72513424  0.86502977  0.62459983  1  0  0.662971  0  3.938286  0  0  0.6135  0  4.234653  0  0  0.649388  0  4.226687  0  1.614321  0  0.218791  0.589378  0  4.240459  0
C  C83  1  0.22483998  0.48969413  0.37563390  1  0  0.664361  0  3.93668  0  0  0.614902  0  4.232473  0  0  0.650828  0  4.224479  0  1.613631  0  0.219145  0.590775  0  4.238276  0
N  N84  1  0.97576761  0.14962021  0.80107975  1  0  -0.457068  0  3.196136  0  0  -0.393179  0  3.465914  0  0  -0.414496  0  3.484275  0  -1.179704  0  -0.353545  -0.378274  0  3.45286  0
N  N85  1  0.47598504  0.95060674  0.19860145  1  0  -0.45698  0  3.198675  0  0  -0.39275  0  3.468704  0  0  -0.41415  0  3.48697  0  -1.215014  0  -0.353085  -0.377821  0  3.455647  0
N  N86  1  0.01021935  0.24323010  0.66433784  1  0  -0.471851  0  3.256742  0  0  -0.398541  0  3.537365  0  0  -0.42156  0  3.557937  0  -1.207832  0  -0.362795  -0.382499  0  3.522809  0
N  N87  1  0.51083879  0.90687037  0.33549505  1  0  -0.471716  0  3.254226  0  0  -0.398822  0  3.534616  0  0  -0.421891  0  3.55521  0  -1.202786  0  -0.363172  -0.382805  0  3.520033  0
N  N88  1  0.30074924  0.41323355  0.70656916  1  0  -0.30246  0  3.180163  0  0  -0.238168  0  3.426895  0  0  -0.251749  0  3.441939  0  -1.225593  0  -0.304611  -0.228712  0  3.415983  0
N  N89  1  0.80075466  0.11992308  0.29370167  1  0  -0.303052  0  3.183907  0  0  -0.239266  0  3.430604  0  0  -0.252917  0  3.445713  0  -1.231656  0  -0.305577  -0.22977  0  3.419668  0
N  N90  1  0.29474304  0.81699755  0.72328928  1  0  -0.321927  0  3.24148  0  0  -0.252872  0  3.485818  0  0  -0.267676  0  3.501073  0  -1.250473  0  -0.316476  -0.242721  0  3.475163  0
N  N91  1  0.79518741  0.53989377  0.27610521  1  0  -0.321178  0  3.240327  0  0  -0.252314  0  3.484761  0  0  -0.267198  0  3.500132  0  -1.290286  0  -0.315995  -0.242109  0  3.474046  0
N  N92  1  0.61132177  0.04814530  0.64692519  1  0  -0.316417  0  3.38112  0  0  -0.25856  0  3.61835  0  0  -0.273748  0  3.632561  0  -1.256814  0  -0.354973  -0.248408  0  3.608803  0
N  N93  1  0.11152934  0.69523140  0.35325795  1  0  -0.317739  0  3.381457  0  0  -0.260331  0  3.617823  0  0  -0.275309  0  3.631673  0  -1.26067  0  -0.354593  -0.250213  0  3.608419  0
N  N94  1  0.68363327  0.01609744  0.77672256  1  0  -0.425024  0  3.177838  0  0  -0.370048  0  3.446233  0  0  -0.389587  0  3.465452  0  -1.17341  0  -0.330758  -0.356475  0  3.432647  0
N  N95  1  0.18336178  0.79295091  0.22363959  1  0  -0.425479  0  3.172089  0  0  -0.371701  0  3.440496  0  0  -0.391063  0  3.459731  0  -1.167567  0  -0.330514  -0.358273  0  3.426974  0
Cl  Cl96  1  0.32559281  0.70548128  0.53918417  1  0  -0.597049  0  0.845897  0  0  -0.527593  0  1.094197  0  0  -0.543878  0  1.069012  0  -0.653531  0  -0.302251  -0.515876  0  1.111744  0
Cl  Cl97  1  0.82533985  0.24476145  0.46065185  1  0  -0.597643  0  0.844888  0  0  -0.527949  0  1.092814  0  0  -0.544157  0  1.067555  0  -0.655474  0  -0.302835  -0.516225  0  1.110316  0
Cl  Cl98  1  0.99246714  0.92626018  0.03925263  1  0  -0.563839  0  1.036681  0  0  -0.497129  0  1.325496  0  0  -0.517076  0  1.298525  0  -0.613599  0  -0.288783  -0.482734  0  1.343976  0
Cl  Cl99  1  0.49347433  0.96460197  0.96107538  1  0  -0.565649  0  1.028567  0  0  -0.499369  0  1.316059  0  0  -0.519247  0  1.289162  0  -0.615352  0  -0.290604  -0.485019  0  1.334484  0
O  O100  1  0.86680876  0.71688027  0.82231332  1  0  -0.793804  0  2.080584  0  0  -0.742708  0  2.346897  0  0  -0.779263  0  2.329471  0  -1.214033  0  -0.444643  -0.724179  0  2.355819  0
O  O101  1  0.36595075  0.53893640  0.17847126  1  0  -0.793498  0  2.081013  0  0  -0.742175  0  2.347358  0  0  -0.778628  0  2.330004  0  -1.208835  0  -0.444827  -0.723772  0  2.356236  0
O  O102  1  0.80522176  0.39750649  0.85184401  1  0  -0.811707  0  2.062063  0  0  -0.754997  0  2.31873  0  0  -0.792938  0  2.299996  0  -1.213168  0  -0.440144  -0.735908  0  2.328324  0
O  O103  1  0.30584518  0.24931965  0.14807825  1  0  -0.811376  0  2.062837  0  0  -0.754435  0  2.319688  0  0  -0.792281  0  2.301099  0  -1.220679  0  -0.439396  -0.735446  0  2.329194  0
O  O104  1  0.74404221  0.21450084  0.91129688  1  0  -0.579976  0  1.92537  0  0  -0.526362  0  2.14829  0  0  -0.551866  0  2.136521  0  -1.138036  0  -0.307787  -0.508209  0  2.155278  0
O  O105  1  0.24400833  0.12624639  0.08811329  1  0  -0.579596  0  1.921368  0  0  -0.525828  0  2.14418  0  0  -0.551291  0  2.132473  0  -1.135246  0  -0.307762  -0.507689  0  2.151116  0
O  O106  1  0.83522773  0.69916787  0.50187313  1  0  -0.834962  0  1.865033  0  0  -0.772921  0  2.075261  0  0  -0.795506  0  2.04127  0  -1.275832  0  -0.576765  -0.756596  0  2.09753  0
O  O107  1  0.33426369  0.20088566  0.49816937  1  0  -0.835219  0  1.866597  0  0  -0.773329  0  2.076783  0  0  -0.795959  0  2.041569  0  -1.273336  0  -0.577131  -0.757026  0  2.099261  0
O  O108  1  0.86592500  0.46422912  0.56272846  1  0  -0.625796  0  1.978709  0  0  -0.556887  0  2.208308  0  0  -0.584867  0  2.196691  0  -1.169113  0  -0.311946  -0.537072  0  2.21521  0
O  O109  1  0.36625781  0.02616349  0.43716742  1  0  -0.626719  0  1.977995  0  0  -0.557096  0  2.208028  0  0  -0.585118  0  2.196477  0  -1.170153  0  -0.31239  -0.537207  0  2.214801  0
O  O110  1  0.02677107  0.44880355  0.96261778  1  0  -0.825205  0  1.784977  0  0  -0.776858  0  1.923197  0  0  -0.793623  0  1.893913  0  -1.216007  0  -0.566557  -0.765581  0  1.94449  0
O  O111  1  0.52708295  0.41143372  0.03732190  1  0  -0.826354  0  1.780403  0  0  -0.777555  0  1.919421  0  0  -0.794275  0  1.890071  0  -1.256492  0  -0.566799  -0.766264  0  1.940791  0
O  O112  1  0.47779548  0.62434680  0.72667791  1  0  -0.943286  0  1.943758  0  0  -0.892267  0  2.157295  0  0  -0.92371  0  2.12192  0  -1.276915  0  -0.673189  -0.877122  0  2.17866  0
O  O113  1  0.97835205  0.35026093  0.27323699  1  0  -0.942409  0  1.945097  0  0  -0.891957  0  2.158899  0  0  -0.923177  0  2.123425  0  -1.287787  0  -0.672446  -0.876968  0  2.180247  0
O  O114  1  0.67625018  0.92091273  0.54903780  1  0  -0.613336  0  2.008409  0  0  -0.545837  0  2.25946  0  0  -0.573536  0  2.24715  0  -1.154648  0  -0.32311  -0.526276  0  2.266797  0
O  O115  1  0.17567891  0.47015914  0.45103392  1  0  -0.614705  0  2.009276  0  0  -0.547004  0  2.260547  0  0  -0.574794  0  2.248226  0  -1.14857  0  -0.323318  -0.527377  0  2.267875  0
O  O116  1  0.09540385  0.55781678  0.76384146  1  0  -0.941928  0  1.90371  0  0  -0.891148  0  2.122591  0  0  -0.9201  0  2.082578  0  -1.267346  0  -0.650152  -0.877391  0  2.146165  0
O  O117  1  0.59515812  0.32163278  0.23675660  1  0  -0.942742  0  1.905477  0  0  -0.89204  0  2.125066  0  0  -0.920867  0  2.084872  0  -1.270112  0  -0.650722  -0.878415  0  2.148693  0
O  O118  1  0.78637673  0.51623407  0.67212593  1  0  -0.76232  0  2.100658  0  0  -0.70541  0  2.361344  0  0  -0.741896  0  2.346572  0  -1.210233  0  -0.435426  -0.686998  0  2.368638  0
O  O119  1  0.28743221  0.18781894  0.32775139  1  0  -0.762426  0  2.097679  0  0  -0.705358  0  2.359375  0  0  -0.741708  0  2.344519  0  -1.219035  0  -0.435668  -0.687116  0  2.366768  0
O  O120  1  0.78967125  0.75777828  0.65344539  1  0  -0.751798  0  2.084438  0  0  -0.696065  0  2.334804  0  0  -0.730613  0  2.319902  0  -1.209208  0  -0.384251  -0.678628  0  2.342879  0
O  O121  1  0.28934658  0.41115238  0.34697456  1  0  -0.75166  0  2.084411  0  0  -0.696355  0  2.334962  0  0  -0.730758  0  2.31984  0  -1.201883  0  -0.383646  -0.679066  0  2.343152  0
O  O122  1  0.90276017  0.83611262  0.88916742  1  0  -0.585825  0  1.976942  0  0  -0.532229  0  2.21064  0  0  -0.55792  0  2.199282  0  -1.140749  0  -0.310777  -0.514006  0  2.217357  0
O  O123  1  0.40042361  0.72495767  0.11118335  1  0  -0.58617  0  1.978558  0  0  -0.532249  0  2.212684  0  0  -0.558  0  2.201365  0  -1.154961  0  -0.311137  -0.51398  0  2.219355  0
O  O124  1  0.60507496  0.58643553  0.89879427  1  0  -0.91237  0  1.795317  0  0  -0.866031  0  1.970753  0  0  -0.893366  0  1.934315  0  -1.272927  0  -0.627673  -0.852839  0  1.99231  0
O  O125  1  0.10513093  0.48480608  0.10124012  1  0  -0.913905  0  1.794321  0  0  -0.866685  0  1.972313  0  0  -0.894106  0  1.935697  0  -1.280578  0  -0.628472  -0.853501  0  1.993921  0
