# generated using pymatgen
data_CdH4C6INO2
_symmetry_space_group_name_H-M   'P 1'
_cell_length_a   4.14781994
_cell_length_b   13.30585448
_cell_length_c   14.88082415
_cell_angle_alpha   90.00062335
_cell_angle_beta   96.67561409
_cell_angle_gamma   90.00021644
_symmetry_Int_Tables_number   1
_chemical_formula_structural   CdH4C6INO2
_chemical_formula_sum   'Cd4 H16 C24 I4 N4 O8'
_cell_volume   815.70889866
_cell_formula_units_Z   4
loop_
 _symmetry_equiv_pos_site_id
 _symmetry_equiv_pos_as_xyz
  1  'x, y, z'
loop_
 _atom_site_type_symbol
 _atom_site_label
 _atom_site_symmetry_multiplicity
 _atom_site_fract_x
 _atom_site_fract_y
 _atom_site_fract_z
 _atom_site_occupancy
 _atom_site_hle17_bader_spin_density
 _atom_site_hle17_ddec_charge
 _atom_site_hle17_ddec_spin_density
 _atom_site_hle17_ddec_sum_bond_order
 _atom_site_hle17_magmom
 _atom_site_hse06_10hf_bader_charge
 _atom_site_hse06_10hf_bader_spin_density
 _atom_site_hse06_10hf_ddec_charge
 _atom_site_hse06_10hf_ddec_spin_density
 _atom_site_hse06_10hf_ddec_sum_bond_order
 _atom_site_hse06_10hf_magmom
 _atom_site_hse06_bader_spin_density
 _atom_site_hse06_ddec_charge
 _atom_site_hse06_ddec_spin_density
 _atom_site_hse06_ddec_sum_bond_order
 _atom_site_hse06_magmom
 _atom_site_pbe_bader_spin_density
 _atom_site_pbe_cm5_charge
 _atom_site_pbe_ddec_charge
 _atom_site_pbe_ddec_spin_density
 _atom_site_pbe_ddec_sum_bond_order
 _atom_site_pbe_magmom
Cd  Cd0  1  0.13297404  0.92057310  0.25419893  1  0  0.956086  0  1.854782  0  1.115477  0  0.790267  0  2.299028  0  0  0.845244  0  2.253434  0  0  0.613676  0.75137  0  2.330544  0
Cd  Cd1  1  0.36702229  0.42056922  0.24580029  1  0  0.956074  0  1.854661  0  1.11557  0  0.790265  0  2.298905  0  0  0.845246  0  2.253307  0  0  0.613672  0.751364  0  2.33042  0
Cd  Cd2  1  0.86702358  0.07942800  0.74579830  1  0  0.956073  0  1.854732  0  1.115375  0  0.79027  0  2.298957  0  0  0.845246  0  2.253365  0  0  0.61367  0.751369  0  2.330474  0
Cd  Cd3  1  0.63298261  0.57943489  0.75420053  1  0  0.956128  0  1.854624  0  1.115374  0  0.790363  0  2.298859  0  0  0.845341  0  2.253265  0  0  0.613692  0.75146  0  2.330379  0
H  H4  1  0.91678347  0.79317300  0.70687894  1  0  0.084855  0  0.975239  0  0.153473  0  0.08993  0  1.047477  0  0  0.093208  0  1.043879  0  0  0.099436  0.087377  0  1.050458  0
H  H5  1  0.58321182  0.29316788  0.79311891  1  0  0.084996  0  0.974992  0  0.153479  0  0.090132  0  1.047191  0  0  0.093414  0  1.043583  0  0  0.099481  0.087579  0  1.050174  0
H  H6  1  0.08323114  0.20682810  0.29312220  1  0  0.084931  0  0.975153  0  0.153577  0  0.090003  0  1.047428  0  0  0.093282  0  1.043826  0  0  0.099469  0.087452  0  1.050408  0
H  H7  1  0.41678579  0.70683172  0.20687967  1  0  0.084956  0  0.975089  0  0.153518  0  0.090085  0  1.047296  0  0  0.093366  0  1.043692  0  0  0.099466  0.087531  0  1.050279  0
H  H8  1  0.00147874  0.89671029  0.57042389  1  0  0.124731  0  0.942509  0  0.13553  0  0.130818  0  1.007223  0  0  0.1348  0  1.005254  0  0  0.109927  0.127944  0  1.008724  0
H  H9  1  0.49853927  0.39669904  0.92957485  1  0  0.12475  0  0.942475  0  0.135834  0  0.130844  0  1.007166  0  0  0.134849  0  1.005172  0  0  0.109972  0.12797  0  1.008668  0
H  H10  1  0.99852859  0.10329156  0.42957163  1  0  0.124783  0  0.942427  0  0.135627  0  0.130858  0  1.007137  0  0  0.134822  0  1.005183  0  0  0.109963  0.127985  0  1.00864  0
H  H11  1  0.50145834  0.60330056  0.07042439  1  0  0.124749  0  0.942475  0  0.135817  0  0.130856  0  1.007154  0  0  0.134846  0  1.005173  0  0  0.109952  0.127982  0  1.008657  0
H  H12  1  0.39478330  0.68527252  0.40924973  1  0  0.11101  0  0.976529  0  0.139204  0  0.11758  0  1.044796  0  0  0.121604  0  1.042082  0  0  0.090692  0.114465  0  1.047328  0
H  H13  1  0.10522598  0.18526343  0.09075034  1  0  0.111078  0  0.976467  0  0.139233  0  0.117639  0  1.044758  0  0  0.121668  0  1.042032  0  0  0.090705  0.114508  0  1.047312  0
H  H14  1  0.60521189  0.31472859  0.59074944  1  0  0.111039  0  0.976633  0  0.139175  0  0.117623  0  1.044869  0  0  0.121648  0  1.042156  0  0  0.090702  0.11452  0  1.047383  0
H  H15  1  0.89476436  0.81473392  0.90925337  1  0  0.110972  0  0.976526  0  0.139269  0  0.117558  0  1.044793  0  0  0.121606  0  1.042048  0  0  0.090662  0.114414  0  1.047357  0
H  H16  1  0.33032038  0.59028960  0.55172657  1  0  0.068492  0  0.960244  0  0.10713  0  0.072523  0  1.03422  0  0  0.075504  0  1.03169  0  0  0.099731  0.070386  0  1.035981  0
H  H17  1  0.16969722  0.09028573  0.94826719  1  0  0.068383  0  0.96026  0  0.107124  0  0.072439  0  1.034207  0  0  0.075421  0  1.031676  0  0  0.099723  0.070305  0  1.03597  0
H  H18  1  0.66969423  0.40970849  0.44827120  1  0  0.068459  0  0.960252  0  0.107053  0  0.072503  0  1.034209  0  0  0.075484  0  1.031678  0  0  0.099738  0.070366  0  1.035971  0
H  H19  1  0.83030040  0.90971462  0.05173474  1  0  0.068421  0  0.960256  0  0.107106  0  0.072505  0  1.034184  0  0  0.075492  0  1.031652  0  0  0.099724  0.070368  0  1.035946  0
C  C20  1  0.80121737  0.77292355  0.63987146  1  0  0.127711  0  3.687406  0  0.458108  0  0.095009  0  3.943457  0  0  0.10171  0  3.961756  0  0  0.038742  0.090625  0  3.930973  0
C  C21  1  0.69878729  0.27291862  0.86012650  1  0  0.12743  0  3.687087  0  0.457471  0  0.094586  0  3.943203  0  0  0.101283  0  3.961516  0  0  0.038554  0.0902  0  3.930722  0
C  C22  1  0.19879967  0.22707681  0.36012573  1  0  0.127628  0  3.687199  0  0.457765  0  0.094871  0  3.943252  0  0  0.101571  0  3.961547  0  0  0.038617  0.090484  0  3.930771  0
C  C23  1  0.30120790  0.72708248  0.13987334  1  0  0.127413  0  3.687388  0  0.457577  0  0.09458  0  3.943506  0  0  0.101277  0  3.961813  0  0  0.03854  0.090196  0  3.931022  0
C  C24  1  0.84941491  0.82969436  0.56400584  1  0  -0.109104  0  3.66645  0  -0.047137  0  -0.130524  0  3.912883  0  0  -0.135515  0  3.932687  0  0  -0.073179  -0.127277  0  3.899726  0
C  C25  1  0.65060528  0.32968054  0.93599384  1  0  -0.109115  0  3.666653  0  -0.046981  0  -0.130486  0  3.913118  0  0  -0.135502  0  3.932921  0  0  -0.073203  -0.127238  0  3.899963  0
C  C26  1  0.15059484  0.17030825  0.43599447  1  0  -0.10923  0  3.666544  0  -0.047105  0  -0.130624  0  3.912988  0  0  -0.135603  0  3.932821  0  0  -0.073223  -0.127377  0  3.899833  0
C  C27  1  0.34938991  0.67031680  0.06400734  1  0  -0.109144  0  3.666558  0  -0.046856  0  -0.130539  0  3.913013  0  0  -0.135537  0  3.932824  0  0  -0.073147  -0.127285  0  3.89986  0
C  C28  1  0.70717855  0.79750642  0.47914061  1  0  0.011458  0  3.695086  0  -0.005231  0  0.030342  0  3.924761  0  0  0.028342  0  3.943596  0  0  0.008933  0.031598  0  3.91221  0
C  C29  1  0.79281901  0.29749668  0.02085965  1  0  0.011406  0  3.695192  0  -0.005503  0  0.030293  0  3.924914  0  0  0.028298  0  3.943758  0  0  0.008845  0.031551  0  3.91236  0
C  C30  1  0.29282393  0.20249393  0.52085745  1  0  0.011497  0  3.695188  0  -0.005226  0  0.03043  0  3.924848  0  0  0.028427  0  3.943682  0  0  0.008946  0.031687  0  3.912297  0
C  C31  1  0.20714948  0.70249841  0.97914134  1  0  0.011576  0  3.695074  0  -0.004842  0  0.030472  0  3.924787  0  0  0.028472  0  3.943628  0  0  0.008861  0.031711  0  3.912262  0
C  C32  1  0.51202484  0.71151782  0.47422297  1  0  -0.11463  0  3.708391  0  0.003323  0  -0.136131  0  3.954684  0  0  -0.141172  0  3.975395  0  0  -0.083555  -0.132889  0  3.941023  0
C  C33  1  0.98799551  0.21150835  0.02577720  1  0  -0.114676  0  3.708324  0  0.003318  0  -0.136246  0  3.954733  0  0  -0.141279  0  3.975423  0  0  -0.083566  -0.133  0  3.94111  0
C  C34  1  0.48798734  0.28848178  0.52577809  1  0  -0.114747  0  3.708418  0  0.003176  0  -0.136295  0  3.954766  0  0  -0.141322  0  3.97545  0  0  -0.083596  -0.133063  0  3.9411  0
C  C35  1  0.01198269  0.78848674  0.97422679  1  0  -0.114616  0  3.708325  0  0.002822  0  -0.136169  0  3.954675  0  0  -0.141215  0  3.975353  0  0  -0.083511  -0.132905  0  3.94106  0
C  C36  1  0.47654856  0.65868665  0.55285575  1  0  0.113743  0  3.727133  0  0.460565  0  0.085561  0  3.977306  0  0  0.091091  0  3.997796  0  0  0.037201  0.082008  0  3.963204  0
C  C37  1  0.02346778  0.15868261  0.94714267  1  0  0.113886  0  3.727248  0  0.460417  0  0.085706  0  3.977397  0  0  0.091242  0  3.997882  0  0  0.037204  0.08215  0  3.963295  0
C  C38  1  0.52346847  0.34131295  0.44714278  1  0  0.113894  0  3.727073  0  0.460713  0  0.085703  0  3.977215  0  0  0.091239  0  3.997697  0  0  0.03722  0.082148  0  3.963117  0
C  C39  1  0.97651527  0.84131549  0.05285946  1  0  0.113838  0  3.727202  0  0.460272  0  0.085598  0  3.977351  0  0  0.091123  0  3.997854  0  0  0.037236  0.082047  0  3.963239  0
C  C40  1  0.78351422  0.84691802  0.39330610  1  0  0.644929  0  3.873705  0  1.627985  0  0.595632  0  4.158374  0  0  0.631228  0  4.150128  0  0  0.20264  0.571526  0  4.162918  0
C  C41  1  0.71647690  0.34690624  0.10669374  1  0  0.644946  0  3.873989  0  1.627842  0  0.595617  0  4.158673  0  0  0.631209  0  4.150433  0  0  0.202587  0.571512  0  4.163213  0
C  C42  1  0.21647854  0.15308459  0.60669231  1  0  0.645058  0  3.873696  0  1.627975  0  0.595674  0  4.158461  0  0  0.631273  0  4.150214  0  0  0.202666  0.571568  0  4.163005  0
C  C43  1  0.28351343  0.65308960  0.89330795  1  0  0.644839  0  3.873995  0  1.627608  0  0.595491  0  4.158736  0  0  0.631088  0  4.150494  0  0  0.202618  0.571389  0  4.163277  0
I  I44  1  0.59512972  0.05803990  0.19643307  1  0  -0.449255  0  1.216703  0  -0.467214  0  -0.389635  0  1.568619  0  0  -0.414007  0  1.543804  0  0  -0.158538  -0.372231  0  1.586959  0
I  I45  1  0.90485643  0.55803567  0.30357459  1  0  -0.44923  0  1.216604  0  -0.467246  0  -0.389639  0  1.568532  0  0  -0.414005  0  1.543718  0  0  -0.158561  -0.372235  0  1.586875  0
I  I46  1  0.40487032  0.94196196  0.80357096  1  0  -0.449218  0  1.216592  0  -0.467175  0  -0.389618  0  1.56852  0  0  -0.413991  0  1.543713  0  0  -0.158551  -0.372212  0  1.586855  0
I  I47  1  0.09516546  0.44196919  0.69642409  1  0  -0.449283  0  1.216586  0  -0.467083  0  -0.389716  0  1.568565  0  0  -0.414085  0  1.543752  0  0  -0.158588  -0.372314  0  1.586915  0
N  N48  1  0.62215737  0.68812014  0.63430295  1  0  -0.326314  0  3.292658  0  -1.287762  0  -0.242569  0  3.553901  0  0  -0.264007  0  3.575592  0  0  -0.334937  -0.227818  0  3.53863  0
N  N49  1  0.87788224  0.18811624  0.86569465  1  0  -0.326223  0  3.292466  0  -1.28714  0  -0.242368  0  3.553628  0  0  -0.263811  0  3.57533  0  0  -0.334755  -0.22761  0  3.538358  0
N  N50  1  0.37787666  0.31187946  0.36569680  1  0  -0.326304  0  3.292508  0  -1.287616  0  -0.2425  0  3.553697  0  0  -0.263942  0  3.575394  0  0  -0.334848  -0.227746  0  3.538427  0
N  N51  1  0.12211780  0.81188261  0.13430736  1  0  -0.326174  0  3.292684  0  -1.287226  0  -0.242329  0  3.553883  0  0  -0.263772  0  3.575586  0  0  -0.334811  -0.227575  0  3.538612  0
O  O52  1  0.02822392  0.90609084  0.39934694  1  0  -0.594241  0  1.987427  0  -1.171356  0  -0.524699  0  2.223606  0  0  -0.555329  0  2.215432  0  0  -0.316835  -0.503251  0  2.228298  0
O  O53  1  0.47175759  0.40608378  0.10064897  1  0  -0.594227  0  1.987252  0  -1.171256  0  -0.52467  0  2.223439  0  0  -0.555306  0  2.215279  0  0  -0.316823  -0.503218  0  2.228128  0
O  O54  1  0.97176641  0.09391101  0.60064938  1  0  -0.594258  0  1.987343  0  -1.171332  0  -0.524673  0  2.223545  0  0  -0.555305  0  2.21537  0  0  -0.316857  -0.503224  0  2.228237  0
O  O55  1  0.52823760  0.59391657  0.89935221  1  0  -0.5942  0  1.987367  0  -1.17125  0  -0.524663  0  2.223584  0  0  -0.5553  0  2.215422  0  0  -0.316838  -0.50321  0  2.228271  0
O  O56  1  0.62004311  0.82284686  0.31878209  1  0  -0.649507  0  2.03099  0  -1.222155  0  -0.584145  0  2.284228  0  0  -0.612748  0  2.273958  0  0  -0.333927  -0.563872  0  2.290321  0
O  O57  1  0.87994760  0.32284219  0.18121483  1  0  -0.649478  0  2.031309  0  -1.222127  0  -0.584087  0  2.284549  0  0  -0.612694  0  2.274282  0  0  -0.333833  -0.563814  0  2.290638  0
O  O58  1  0.37994237  0.17715499  0.68121676  1  0  -0.649584  0  2.031165  0  -1.222034  0  -0.584227  0  2.284502  0  0  -0.612835  0  2.274234  0  0  -0.333922  -0.563953  0  2.290596  0
O  O59  1  0.12006459  0.67715891  0.81878422  1  0  -0.649457  0  2.031323  0  -1.222035  0  -0.584076  0  2.284613  0  0  -0.612683  0  2.274354  0  0  -0.333857  -0.563799  0  2.290698  0
