# generated using pymatgen
data_NiH8C8(NO)4
_symmetry_space_group_name_H-M   'P 1'
_cell_length_a   8.36432275
_cell_length_b   8.36432286
_cell_length_c   8.92446472
_cell_angle_alpha   82.94642556
_cell_angle_beta   82.94637626
_cell_angle_gamma   74.21844994
_symmetry_Int_Tables_number   1
_chemical_formula_structural   NiH8C8(NO)4
_chemical_formula_sum   'Ni2 H16 C16 N8 O8'
_cell_volume   593.67144344
_cell_formula_units_Z   2
loop_
 _symmetry_equiv_pos_site_id
 _symmetry_equiv_pos_as_xyz
  1  'x, y, z'
loop_
 _atom_site_type_symbol
 _atom_site_label
 _atom_site_symmetry_multiplicity
 _atom_site_fract_x
 _atom_site_fract_y
 _atom_site_fract_z
 _atom_site_occupancy
 _atom_site_hle17_ddec_charge
 _atom_site_hle17_ddec_spin_density
 _atom_site_hle17_ddec_sum_bond_order
 _atom_site_hle17_magmom
 _atom_site_hse06_10hf_ddec_charge
 _atom_site_hse06_10hf_ddec_spin_density
 _atom_site_hse06_10hf_ddec_sum_bond_order
 _atom_site_hse06_10hf_magmom
 _atom_site_hse06_ddec_charge
 _atom_site_hse06_ddec_spin_density
 _atom_site_hse06_ddec_sum_bond_order
 _atom_site_hse06_magmom
 _atom_site_pbe_cm5_charge
 _atom_site_pbe_ddec_charge
 _atom_site_pbe_ddec_spin_density
 _atom_site_pbe_ddec_sum_bond_order
 _atom_site_pbe_magmom
Ni  Ni0  1  0.15513399  0.84486460  0.75000350  1  0.809252  1.799385  2.130268  1.509  0.807228  1.840122  2.529222  1.625  0.894084  1.906892  2.459053  1.71  0.641909  0.739333  1.762201  2.583719  1.536
Ni  Ni1  1  0.84486985  0.15512921  0.24999972  1  0.809414  -1.799382  2.129819  -1.509  0.807285  -1.840134  2.528926  -1.625  0.894236  -1.906906  2.458581  -1.71  0.641894  0.739449  -1.762222  2.583264  -1.536
H  H2  1  0.37189863  0.66990661  0.03743440  1  0.106356  0.000152  0.949148  0.001  0.114849  0.000245  1.007242  0.001  0.117319  0.000174  1.006391  0.0  0.116921  0.113019  0.000312  1.008061  0.001
H  H3  1  0.33009547  0.62810143  0.46256498  1  0.106325  0.00015  0.949179  0.001  0.11482  0.000245  1.00727  0.001  0.11729  0.000174  1.006419  0.0  0.116905  0.112989  0.000312  1.008089  0.001
H  H4  1  0.62810203  0.33009467  0.96256833  1  0.106333  -0.000153  0.949197  -0.001  0.114822  -0.000245  1.007293  -0.001  0.117292  -0.000174  1.006443  0.0  0.116906  0.112991  -0.000312  1.008111  -0.001
H  H5  1  0.66990311  0.37189860  0.53743142  1  0.106332  -0.000152  0.94918  -0.001  0.114819  -0.000245  1.007278  -0.001  0.117289  -0.000174  1.006428  0.0  0.116903  0.112987  -0.000312  1.008095  -0.001
H  H6  1  0.69152086  0.71105347  0.04027667  1  0.103567  0.000463  0.977466  0.001  0.11079  0.000383  1.042625  0.0  0.113509  0.000289  1.041259  0.0  0.115993  0.108692  0.000471  1.043856  0.0
H  H7  1  0.28894656  0.30848021  0.45972160  1  0.103563  0.000463  0.977452  0.001  0.110788  0.000383  1.04261  0.0  0.113507  0.000289  1.041243  0.0  0.115995  0.10869  0.000471  1.043841  0.0
H  H8  1  0.30847814  0.28895405  0.95972443  1  0.103572  -0.000461  0.977366  -0.001  0.110798  -0.000383  1.042533  0.0  0.113491  -0.000289  1.041195  0.0  0.115991  0.108706  -0.000471  1.043753  0.0
H  H9  1  0.71104655  0.69152230  0.54027401  1  0.103567  -0.000463  0.977416  -0.001  0.110829  -0.000383  1.042534  0.0  0.113522  -0.000289  1.041196  0.0  0.115999  0.108737  -0.000471  1.043754  0.0
H  H10  1  0.49125476  0.94832180  0.63273898  1  0.089621  9.6e-05  0.94802  0.001  0.09645  6.9e-05  1.017376  0.0  0.099604  6.2e-05  1.012292  0.0  0.132721  0.093958  7.5e-05  1.021282  0.001
H  H11  1  0.05168067  0.50874644  0.86726159  1  0.089589  9.6e-05  0.948049  0.001  0.096429  6.9e-05  1.017387  0.0  0.099581  6.2e-05  1.012303  0.0  0.132716  0.093939  7.5e-05  1.021295  0.001
H  H12  1  0.50873735  0.05168444  0.36726529  1  0.089547  -9.7e-05  0.948072  -0.001  0.096398  -6.9e-05  1.017395  0.0  0.099547  -6.2e-05  1.01232  0.0  0.132696  0.093906  -7.5e-05  1.021303  -0.001
H  H13  1  0.94831505  0.49125983  0.13273329  1  0.089517  -9.6e-05  0.948063  -0.001  0.09637  -6.9e-05  1.017381  0.0  0.099518  -6.2e-05  1.012306  0.0  0.132698  0.093879  -7.5e-05  1.02129  -0.001
H  H14  1  0.74534444  0.87415001  0.77965693  1  0.309333  0.0005  0.936592  0.001  0.289748  0.000384  0.997644  0.001  0.299281  0.000258  0.989862  0.0  0.309056  0.28282  0.000501  1.003439  0.001
H  H15  1  0.12585065  0.25465830  0.72034018  1  0.309363  0.0005  0.936607  0.001  0.289757  0.000384  0.997675  0.001  0.299306  0.000258  0.989866  0.0  0.309066  0.282832  0.000501  1.003467  0.001
H  H16  1  0.25465095  0.12585750  0.22034122  1  0.309456  -0.0005  0.93652  -0.001  0.289708  -0.000384  0.997802  -0.001  0.299269  -0.000258  0.989978  0.0  0.309071  0.282767  -0.000501  1.003595  -0.001
H  H17  1  0.87414026  0.74534794  0.27965414  1  0.309494  -0.000499  0.93648  -0.001  0.28975  -0.000384  0.997765  -0.001  0.299306  -0.000258  0.989947  0.0  0.309062  0.282805  -0.000501  1.003559  -0.001
C  C18  1  0.44417398  0.73352854  0.95357884  1  -0.019632  -0.001728  3.750329  -0.002  -0.046846  -0.000208  4.018657  -0.001  -0.044735  -0.000654  4.040399  -0.001  -0.008798  -0.048614  7.3e-05  4.004128  0.0
C  C19  1  0.26647461  0.55582679  0.54642051  1  -0.019639  -0.001721  3.750406  -0.002  -0.046855  -0.000207  4.018735  -0.001  -0.044744  -0.000654  4.040475  -0.001  -0.008834  -0.048626  7.3e-05  4.004202  0.0
C  C20  1  0.55582448  0.26647648  0.04642484  1  -0.019724  0.001761  3.750457  0.003  -0.046939  0.000207  4.018796  0.001  -0.044827  0.000654  4.040533  0.001  -0.008893  -0.048713  -7.2e-05  4.004275  0.0
C  C21  1  0.73352331  0.44417573  0.45357455  1  -0.019642  0.001737  3.750418  0.002  -0.046841  0.000207  4.018756  0.001  -0.04473  0.000652  4.040494  0.001  -0.008873  -0.048616  -7.2e-05  4.004236  0.0
C  C22  1  0.60234040  0.75245266  0.95622050  1  -0.011519  0.003814  3.705252  0.004  -0.046714  0.001741  3.96047  0.002  -0.045173  0.001593  3.979175  0.002  -0.003234  -0.047668  0.00195  3.948278  0.002
C  C23  1  0.24755038  0.39766053  0.54377880  1  -0.011518  0.003813  3.705285  0.004  -0.04672  0.00174  3.960503  0.002  -0.045179  0.001593  3.979209  0.002  -0.003239  -0.047673  0.00195  3.94831  0.002
C  C24  1  0.39765706  0.24755611  0.04378175  1  -0.011502  -0.003852  3.70516  -0.005  -0.046673  -0.00174  3.960354  -0.002  -0.045105  -0.001594  3.979078  -0.002  -0.003217  -0.047658  -0.001949  3.94814  -0.002
C  C25  1  0.75244513  0.60234199  0.45621766  1  -0.011575  -0.003824  3.705197  -0.005  -0.046784  -0.001741  3.960391  -0.002  -0.045215  -0.001593  3.979113  -0.002  -0.003266  -0.047777  -0.001949  3.948171  -0.002
C  C26  1  0.98930334  0.91493888  0.03892431  1  0.5333  -0.001105  3.876775  -0.002  0.493628  -0.00026  4.179532  -0.001  0.526474  -0.000182  4.172802  0.0  0.210308  0.469743  -0.000458  4.183629  -0.001
C  C27  1  0.08506114  0.01069591  0.46107749  1  0.532838  -0.001105  3.877114  -0.002  0.493176  -0.000259  4.179864  -0.001  0.526021  -0.000182  4.173139  0.0  0.210106  0.469289  -0.000458  4.183956  -0.001
C  C28  1  0.01070042  0.08504618  0.96107208  1  0.533119  0.001106  3.87682  0.002  0.493429  0.00026  4.179638  0.001  0.526273  0.000183  4.172914  0.0  0.210256  0.469545  0.000459  4.183732  0.001
C  C29  1  0.91495659  0.98929546  0.53892891  1  0.533247  0.001106  3.876695  0.002  0.493521  0.00026  4.179588  0.001  0.526366  0.000184  4.172862  0.0  0.210232  0.469635  0.000459  4.18368  0.001
C  C30  1  0.50041058  0.87697598  0.74257631  1  0.202962  -0.006736  3.677108  -0.008  0.147932  -0.001984  3.956075  -0.002  0.163418  -0.002412  3.967654  -0.003  0.135721  0.13734  -0.001829  3.94842  -0.002
C  C31  1  0.12302715  0.49958866  0.75742437  1  0.203002  -0.006746  3.677174  -0.008  0.147962  -0.001984  3.956139  -0.002  0.163451  -0.002413  3.96772  -0.003  0.135706  0.137368  -0.00183  3.94849  -0.002
C  C32  1  0.49958087  0.12303275  0.25742663  1  0.202992  0.006758  3.677405  0.008  0.147971  0.001983  3.956353  0.002  0.163461  0.002412  3.967948  0.003  0.135707  0.137352  0.00183  3.948691  0.002
C  C33  1  0.87696770  0.50041635  0.24257188  1  0.20313  0.006742  3.677233  0.008  0.148117  0.001983  3.956186  0.002  0.163611  0.002412  3.967778  0.003  0.135753  0.137488  0.00183  3.948523  0.002
N  N34  1  0.38228828  0.81178533  0.81925624  1  -0.350469  0.057642  3.344787  0.087  -0.319116  0.037513  3.659209  0.057  -0.348941  0.030876  3.679551  0.048  -0.363166  -0.297517  0.042354  3.645185  0.063
N  N35  1  0.18821770  0.61771381  0.68074527  1  -0.350405  0.057647  3.344771  0.087  -0.319042  0.037515  3.659182  0.057  -0.348868  0.030876  3.679525  0.048  -0.363087  -0.297442  0.042356  3.645157  0.063
N  N36  1  0.61771270  0.18821471  0.18074772  1  -0.35039  -0.057661  3.344865  -0.087  -0.319023  -0.037514  3.659303  -0.057  -0.348863  -0.030876  3.679634  -0.048  -0.363051  -0.297429  -0.042354  3.645264  -0.063
N  N37  1  0.81178449  0.38228624  0.31925183  1  -0.350482  -0.057648  3.344896  -0.087  -0.319137  -0.037513  3.659361  -0.057  -0.348977  -0.030873  3.67969  -0.048  -0.363099  -0.297544  -0.042352  3.645325  -0.063
N  N38  1  0.63509383  0.84327832  0.82216964  1  -0.284173  0.001203  3.47355  0.002  -0.217549  0.000968  3.707266  0.002  -0.233061  0.000644  3.72015  0.001  -0.381896  -0.207445  0.001255  3.699231  0.002
N  N39  1  0.15672289  0.36490683  0.67782991  1  -0.284198  0.001206  3.473549  0.002  -0.217549  0.000968  3.707284  0.002  -0.233073  0.000644  3.720151  0.001  -0.381881  -0.207452  0.001255  3.699257  0.002
N  N40  1  0.36489816  0.15673292  0.17783295  1  -0.2842  -0.001204  3.473663  -0.002  -0.217507  -0.000968  3.707509  -0.002  -0.23305  -0.000644  3.720371  -0.001  -0.381873  -0.207335  -0.001255  3.699416  -0.002
N  N41  1  0.84326616  0.63510191  0.32216433  1  -0.284263  -0.001202  3.47345  -0.002  -0.21757  -0.000968  3.707294  -0.002  -0.233109  -0.000644  3.720163  -0.001  -0.381845  -0.207373  -0.001255  3.699179  -0.002
O  O42  1  0.04482916  0.78718014  0.96660015  1  -0.531554  0.043134  2.042578  0.068  -0.508788  0.030065  2.300543  0.048  -0.542019  0.02407  2.290759  0.039  -0.295001  -0.482642  0.034992  2.30648  0.055
O  O43  1  0.21282179  0.95516890  0.53340543  1  -0.531328  0.04314  2.042665  0.068  -0.508547  0.030067  2.300587  0.048  -0.541783  0.024072  2.290817  0.039  -0.294854  -0.4824  0.034997  2.306518  0.055
O  O44  1  0.95518332  0.21281745  0.03339717  1  -0.531527  -0.043146  2.042359  -0.068  -0.508724  -0.030067  2.300322  -0.048  -0.541972  -0.024072  2.290531  -0.039  -0.29497  -0.482583  -0.034996  2.306242  -0.055
O  O45  1  0.78718153  0.04480865  0.46660868  1  -0.531556  -0.04314  2.042143  -0.068  -0.508751  -0.030064  2.300115  -0.048  -0.542  -0.024069  2.290329  -0.039  -0.294954  -0.482611  -0.034992  2.306036  -0.055
O  O46  1  0.91584466  0.91681883  0.17224207  1  -0.552539  -0.035025  2.168366  -0.055  -0.518051  -0.026798  2.417902  -0.043  -0.552785  -0.022309  2.411477  -0.036  -0.289613  -0.491413  -0.030182  2.421526  -0.047
O  O47  1  0.08318703  0.08415222  0.32775937  1  -0.552376  -0.035021  2.168422  -0.055  -0.517855  -0.026797  2.417906  -0.043  -0.552589  -0.022307  2.411485  -0.036  -0.289565  -0.49122  -0.03018  2.42153  -0.047
O  O48  1  0.08415615  0.08316372  0.82775943  1  -0.552308  0.035025  2.168511  0.055  -0.517912  0.026801  2.418061  0.043  -0.552629  0.022311  2.411653  0.036  -0.289563  -0.491268  0.030185  2.421696  0.047
O  O49  1  0.91684494  0.91583547  0.67224134  1  -0.552276  0.035029  2.168487  0.055  -0.517884  0.026802  2.418055  0.043  -0.552597  0.022313  2.411652  0.036  -0.289519  -0.491238  0.030187  2.421687  0.047
