# generated using pymatgen
data_CdH26C26N4O5
_symmetry_space_group_name_H-M   'P 1'
_cell_length_a   9.53759271
_cell_length_b   11.65189469
_cell_length_c   27.25729214
_cell_angle_alpha   89.99997694
_cell_angle_beta   90.00013045
_cell_angle_gamma   114.14169422
_symmetry_Int_Tables_number   1
_chemical_formula_structural   CdH26C26N4O5
_chemical_formula_sum   'Cd4 H104 C104 N16 O20'
_cell_volume   2764.19334060
_cell_formula_units_Z   4
loop_
 _symmetry_equiv_pos_site_id
 _symmetry_equiv_pos_as_xyz
  1  'x, y, z'
loop_
 _atom_site_type_symbol
 _atom_site_label
 _atom_site_symmetry_multiplicity
 _atom_site_fract_x
 _atom_site_fract_y
 _atom_site_fract_z
 _atom_site_occupancy
 _atom_site_pbe_bader_charge
 _atom_site_pbe_bader_spin_density
 _atom_site_pbe_cm5_charge
 _atom_site_pbe_ddec_charge
 _atom_site_pbe_ddec_spin_density
 _atom_site_pbe_ddec_sum_bond_order
 _atom_site_pbe_magmom
Cd  Cd0  1  0.36171121  0.00019274  0.50001166  1  1.228183  0  0.76622  0.843879  0  2.192379  0
Cd  Cd1  1  0.63828899  0.99980570  0.00001302  1  1.228093  0  0.76625  0.843857  0  2.192417  0
Cd  Cd2  1  0.25182835  0.50390905  0.75000927  1  1.236437  0  0.763842  0.874039  0  2.11237  0
Cd  Cd3  1  0.74817435  0.49609538  0.25001006  1  1.236445  0  0.763847  0.874019  0  2.112353  0
H  H4  1  0.27441775  0.38789481  0.48579485  1  0.087028  0  0.100087  0.103069  0  1.050814  0
H  H5  1  0.72557611  0.61210148  0.98579663  1  0.086944  0  0.100101  0.103087  0  1.05081  0
H  H6  1  0.88737174  0.61240255  0.51405321  1  0.10151  0  0.100284  0.103164  0  1.05098  0
H  H7  1  0.11263034  0.38760156  0.01405607  1  0.101362  0  0.100285  0.103136  0  1.050949  0
H  H8  1  0.10221900  0.50043624  0.49833527  1  0.090829  0  0.104215  0.118919  0  1.025594  0
H  H9  1  0.89777672  0.49956570  0.99833647  1  0.090623  0  0.104216  0.118903  0  1.02563  0
H  H10  1  0.60260630  0.49988248  0.50155002  1  0.070202  0  0.104315  0.118643  0  1.025002  0
H  H11  1  0.39739163  0.50012820  0.00155053  1  0.070078  0  0.104308  0.11861  0  1.025075  0
H  H12  1  0.86120369  0.23770158  0.61225740  1  0.08657  0  0.10075  0.111785  0  1.028994  0
H  H13  1  0.13878646  0.76229419  0.11226023  1  0.08656  0  0.10073  0.111821  0  1.028953  0
H  H14  1  0.62395769  0.76309700  0.38784466  1  0.088807  0  0.100796  0.111604  0  1.02924  0
H  H15  1  0.37604284  0.23690761  0.88784768  1  0.088817  0  0.100759  0.111527  0  1.029062  0
H  H16  1  0.03330248  0.12622244  0.59910537  1  0.090355  0  0.101428  0.098818  0  1.034844  0
H  H17  1  0.96668150  0.87376955  0.09911031  1  0.090439  0  0.101428  0.098812  0  1.034789  0
H  H18  1  0.90739646  0.87472278  0.40105885  1  0.094816  0  0.101574  0.098915  0  1.034496  0
H  H19  1  0.09260554  0.12527620  0.90106422  1  0.09468  0  0.101558  0.09894  0  1.034493  0
H  H20  1  0.57491012  0.33557219  0.54625219  1  0.116046  0  0.103151  0.122852  0  1.03331  0
H  H21  1  0.42508329  0.66442256  0.04625233  1  0.116103  0  0.103131  0.122739  0  1.033418  0
H  H22  1  0.23967174  0.66459199  0.45383383  1  0.111168  0  0.10301  0.122778  0  1.034408  0
H  H23  1  0.76032062  0.33540801  0.95383164  1  0.111036  0  0.103001  0.122765  0  1.03426  0
H  H24  1  0.39009127  0.33713521  0.61128132  1  0.137325  0  0.100692  0.104981  0  1.033848  0
H  H25  1  0.60990177  0.66285586  0.11128234  1  0.137335  0  0.100701  0.104956  0  1.03383  0
H  H26  1  0.05290349  0.66265633  0.38890360  1  0.114872  0  0.10068  0.104875  0  1.033028  0
H  H27  1  0.94709695  0.33735016  0.88890377  1  0.115056  0  0.100679  0.104873  0  1.033038  0
H  H28  1  0.76430644  0.48872343  0.71411743  1  0.110528  0  0.100968  0.107794  0  1.047769  0
H  H29  1  0.23569344  0.51128001  0.21411854  1  0.110508  0  0.101028  0.107896  0  1.047695  0
H  H30  1  0.27585437  0.51151839  0.28597272  1  0.112725  0  0.101121  0.107818  0  1.047245  0
H  H31  1  0.72414942  0.48848985  0.78597194  1  0.11282  0  0.101075  0.107747  0  1.047333  0
H  H32  1  0.94680180  0.48514230  0.65045747  1  0.115958  0  0.106979  0.126623  0  1.015381  0
H  H33  1  0.05319329  0.51485447  0.15045880  1  0.11591  0  0.106981  0.126574  0  1.01543  0
H  H34  1  0.46223516  0.51539539  0.34955504  1  0.113713  0  0.107307  0.126764  0  1.015833  0
H  H35  1  0.53776604  0.48461105  0.84955229  1  0.113643  0  0.10731  0.126741  0  1.015884  0
H  H36  1  0.51649673  0.76515702  0.73798211  1  0.05883  0  0.09879  0.139929  0  1.039489  0
H  H37  1  0.48350270  0.23483892  0.23798163  1  0.0588  0  0.098781  0.139907  0  1.039501  0
H  H38  1  0.75124403  0.23453201  0.26195771  1  0.078932  0  0.098409  0.139804  0  1.038902  0
H  H39  1  0.24876422  0.76546867  0.76195504  1  0.079196  0  0.098429  0.139856  0  1.038882  0
H  H40  1  0.68747774  0.75691234  0.75913469  1  0.060103  0  0.100855  0.150896  0  0.990096  0
H  H41  1  0.31252231  0.24308458  0.25913443  1  0.059975  0  0.100868  0.150865  0  0.990102  0
H  H42  1  0.93058538  0.24304772  0.24082362  1  0.062499  0  0.100621  0.150582  0  0.990474  0
H  H43  1  0.06942565  0.75695669  0.74082264  1  0.062648  0  0.100602  0.150633  0  0.990462  0
H  H44  1  0.65161013  0.89244267  0.77298747  1  0.007283  0  0.095657  0.133519  0  0.998733  0
H  H45  1  0.34838850  0.10755333  0.27298726  1  0.007224  0  0.09565  0.133496  0  0.998641  0
H  H46  1  0.75946777  0.10743543  0.22689334  1  0.065277  0  0.095984  0.133827  0  0.998593  0
H  H47  1  0.24054127  0.89256520  0.72689212  1  0.065255  0  0.096008  0.133881  0  0.998648  0
H  H48  1  0.23242522  0.52853338  0.87561601  1  0.135525  0  0.115008  0.116296  0  1.020353  0
H  H49  1  0.76758347  0.47146464  0.37561462  1  0.135611  0  0.115018  0.116283  0  1.020316  0
H  H50  1  0.70351348  0.47135436  0.12437577  1  0.131471  0  0.115078  0.116571  0  1.021345  0
H  H51  1  0.29649660  0.52865178  0.62437244  1  0.131061  0  0.115114  0.1167  0  1.021159  0
H  H52  1  0.48936458  0.68113111  0.93157911  1  0.140966  0  0.122936  0.137217  0  1.027913  0
H  H53  1  0.51064267  0.31887169  0.43157900  1  0.140983  0  0.122928  0.137209  0  1.02782  0
H  H54  1  0.80743004  0.31852308  0.06835705  1  0.14142  0  0.122814  0.13726  0  1.027747  0
H  H55  1  0.19257792  0.68148580  0.56835435  1  0.141288  0  0.122821  0.137275  0  1.027811  0
H  H56  1  0.72948615  0.86981798  0.91089849  1  0.111717  0  0.115423  0.1146  0  1.007306  0
H  H57  1  0.27051676  0.13018478  0.41089822  1  0.11172  0  0.115427  0.114619  0  1.00731  0
H  H58  1  0.85915056  0.13011960  0.08890609  1  0.119153  0  0.115196  0.114057  0  1.007552  0
H  H59  1  0.14084575  0.86988461  0.58890515  1  0.119074  0  0.115166  0.113976  0  1.007595  0
H  H60  1  0.76355720  0.92406623  0.84984474  1  0.043271  0  0.109402  0.087232  0  0.974129  0
H  H61  1  0.23644491  0.07593363  0.34984519  1  0.043217  0  0.109412  0.087245  0  0.974131  0
H  H62  1  0.83853016  0.07533159  0.14989196  1  0.044492  0  0.109194  0.086781  0  0.974191  0
H  H63  1  0.16147146  0.92466988  0.64989214  1  0.044338  0  0.109175  0.086721  0  0.974236  0
H  H64  1  0.83677591  0.74167942  0.82917656  1  0.03783  0  0.09173  0.085922  0  0.990258  0
H  H65  1  0.16322349  0.25831947  0.32917508  1  0.037784  0  0.09178  0.085969  0  0.990322  0
H  H66  1  0.09423478  0.25746122  0.17076533  1  0.005159  0  0.091658  0.085544  0  0.990182  0
H  H67  1  0.90577282  0.74253933  0.67076686  1  0.005106  0  0.091715  0.085674  0  0.990058  0
H  H68  1  0.80529706  0.69412566  0.89095965  1  0.044805  0  0.095076  0.096401  0  0.991707  0
H  H69  1  0.19470115  0.30587426  0.39095855  1  0.044744  0  0.095047  0.09635  0  0.991671  0
H  H70  1  0.11069063  0.30514017  0.10900388  1  0.056056  0  0.095222  0.096001  0  0.992741  0
H  H71  1  0.88931082  0.69485937  0.60900541  1  0.05608  0  0.095264  0.096085  0  0.992708  0
H  H72  1  0.01307602  0.89814158  0.91774444  1  0.057359  0  0.099952  0.102761  0  0.976154  0
H  H73  1  0.98692238  0.10185837  0.41774365  1  0.057402  0  0.099971  0.102815  0  0.976152  0
H  H74  1  0.11440555  0.10102355  0.08221950  1  0.042547  0  0.099831  0.102808  0  0.976504  0
H  H75  1  0.88559664  0.89897783  0.58222136  1  0.042539  0  0.099856  0.102808  0  0.976482  0
H  H76  1  0.04457302  0.95114582  0.85639646  1  0.021574  0  0.094828  0.089419  0  0.977641  0
H  H77  1  0.95542400  0.04885217  0.35639602  1  0.021544  0  0.094831  0.089447  0  0.977629  0
H  H78  1  0.09276054  0.04802648  0.14357592  1  0.014289  0  0.094966  0.089889  0  0.977226  0
H  H79  1  0.90723869  0.95197028  0.64357926  1  0.014135  0  0.094931  0.089868  0  0.977217  0
H  H80  1  0.08152647  0.71558327  0.89346584  1  0.069621  0  0.116619  0.099519  0  0.970829  0
H  H81  1  0.91846767  0.28441477  0.39346386  1  0.097474  0  0.1166  0.099482  0  0.97083  0
H  H82  1  0.36501069  0.28384664  0.10661673  1  0.091812  0  0.11623  0.098781  0  0.970486  0
H  H83  1  0.63499236  0.71615195  0.60661768  1  0.091822  0  0.116232  0.098755  0  0.970508  0
H  H84  1  0.12196969  0.77710113  0.83363782  1  0.081231  0  0.113354  0.095348  0  0.985018  0
H  H85  1  0.87802413  0.22289495  0.33363656  1  0.081165  0  0.113341  0.095328  0  0.985074  0
H  H86  1  0.34389894  0.22213907  0.16641430  1  0.081237  0  0.113649  0.095844  0  0.984751  0
H  H87  1  0.65610046  0.77785772  0.66641526  1  0.081229  0  0.113649  0.095797  0  0.98477  0
H  H88  1  0.36756088  0.98881382  0.82093488  1  0.098462  0  0.124675  0.125604  0  0.999367  0
H  H89  1  0.63242761  0.01118224  0.32093345  1  0.098445  0  0.124648  0.125633  0  0.999399  0
H  H90  1  0.37865126  0.01088623  0.17910525  1  0.101061  0  0.124523  0.125727  0  0.999075  0
H  H91  1  0.62135058  0.98911528  0.67910432  1  0.101155  0  0.124555  0.125763  0  0.999043  0
H  H92  1  0.62370874  0.10438655  0.88122571  1  0.134777  0  0.1192  0.11818  0  1.013706  0
H  H93  1  0.37628369  0.89561242  0.38122504  1  0.134696  0  0.119204  0.118223  0  1.013696  0
H  H94  1  0.51947062  0.89544392  0.11879330  1  0.092298  0  0.118845  0.117594  0  1.013994  0
H  H95  1  0.48053100  0.10455375  0.61879019  1  0.092315  0  0.118832  0.117571  0  1.013904  0
H  H96  1  0.30873853  0.83972606  0.00876615  1  0.081245  0  0.100328  0.148663  0  1.020714  0
H  H97  1  0.69126661  0.16026957  0.50876504  1  0.081227  0  0.100315  0.148655  0  1.020749  0
H  H98  1  0.46845677  0.15998968  0.99126262  1  0.10746  0  0.100428  0.148824  0  1.020609  0
H  H99  1  0.53154594  0.83999909  0.49126318  1  0.107629  0  0.10041  0.148814  0  1.020573  0
H  H100  1  0.23610146  0.70847225  0.96849353  1  0.086293  0  0.103134  0.153433  0  0.988646  0
H  H101  1  0.76390334  0.29152307  0.46849180  1  0.086379  0  0.103108  0.153373  0  0.988749  0
H  H102  1  0.52698974  0.29118703  0.03154514  1  0.083139  0  0.102988  0.153114  0  0.988385  0
H  H103  1  0.47301310  0.70880582  0.53154707  1  0.083067  0  0.103025  0.15313  0  0.988359  0
H  H104  1  0.13116009  0.80192112  0.97833268  1  0.090361  0  0.099738  0.147434  0  1.015399  0
H  H105  1  0.86884326  0.19807327  0.47833031  1  0.090352  0  0.099735  0.147444  0  1.015345  0
H  H106  1  0.32867425  0.19775065  0.02172164  1  0.092871  0  0.099744  0.147392  0  1.015812  0
H  H107  1  0.67132701  0.80224124  0.52172335  1  0.092767  0  0.099774  0.147404  0  1.015766  0
C  C108  1  0.25200385  0.17248661  0.53039503  1  1.504228  0  0.18532  0.55638  0  4.236567  0
C  C109  1  0.74798782  0.82750906  0.03039724  1  1.504261  0  0.185238  0.556382  0  4.236302  0
C  C110  1  0.08004788  0.82788193  0.46953267  1  1.510938  0  0.18598  0.557137  0  4.239362  0
C  C111  1  0.91995287  0.17211997  0.96953467  1  1.511023  0  0.185983  0.557167  0  4.239166  0
C  C112  1  0.16202491  0.24827188  0.54110846  1  -0.002818  0  -0.033475  -0.068609  0  4.013404  0
C  C113  1  0.83796448  0.75171910  0.04111111  1  -0.002571  0  -0.033527  -0.068638  0  4.013326  0
C  C114  1  0.91433889  0.75222572  0.45883752  1  0.010129  0  -0.033149  -0.068226  0  4.013745  0
C  C115  1  0.08566284  0.24777616  0.95884178  1  0.009506  0  -0.033185  -0.068197  0  4.013647  0
C  C116  1  0.18393906  0.35565526  0.51333204  1  -0.019021  0  -0.088389  -0.079511  0  3.993784  0
C  C117  1  0.81605447  0.64434227  0.01333322  1  -0.019052  0  -0.088401  -0.079651  0  3.994011  0
C  C118  1  0.82905772  0.64472933  0.48655669  1  -0.021748  0  -0.088819  -0.080097  0  3.995607  0
C  C119  1  0.17094619  0.35527448  0.98655989  1  -0.021157  0  -0.088789  -0.080045  0  3.995346  0
C  C120  1  0.09003586  0.41910856  0.52049265  1  -0.048994  0  -0.107168  -0.21214  0  3.997182  0
C  C121  1  0.90995726  0.58088803  0.02049392  1  -0.048737  0  -0.107126  -0.211939  0  3.997273  0
C  C122  1  0.67171020  0.58131650  0.47942899  1  -0.017876  0  -0.1073  -0.21123  0  3.997527  0
C  C123  1  0.32829182  0.41869200  0.97943011  1  -0.018089  0  -0.107255  -0.211166  0  3.997437  0
C  C124  1  0.97254055  0.37461398  0.55549538  1  0.422867  0  0.090195  0.268804  0  4.053697  0
C  C125  1  0.02745061  0.62538454  0.05549704  1  0.422241  0  0.090113  0.268537  0  4.053875  0
C  C126  1  0.59856160  0.62592409  0.44449299  1  0.400912  0  0.090635  0.268434  0  4.052655  0
C  C127  1  0.40143969  0.37408342  0.94449454  1  0.40105  0  0.090556  0.268312  0  4.052655  0
C  C128  1  0.95264272  0.27095210  0.58500602  1  0.004837  0  -0.107476  -0.214499  0  3.99903  0
C  C129  1  0.04734467  0.72904270  0.08500914  1  0.004761  0  -0.107373  -0.214375  0  3.999012  0
C  C130  1  0.68222069  0.72973468  0.41503998  1  0.049761  0  -0.108131  -0.214287  0  3.999742  0
C  C131  1  0.31777852  0.27026903  0.91504441  1  0.049854  0  -0.108043  -0.214126  0  3.999442  0
C  C132  1  0.04790870  0.20868505  0.57743227  1  -0.083104  0  -0.080936  -0.057861  0  3.979391  0
C  C133  1  0.95208178  0.79130974  0.07743501  1  -0.082738  0  -0.080969  -0.057889  0  3.979325  0
C  C134  1  0.83966799  0.79206963  0.42264020  1  -0.125784  0  -0.080871  -0.057944  0  3.980011  0
C  C135  1  0.16033217  0.20792750  0.92264489  1  -0.125517  0  -0.080847  -0.058074  0  3.980115  0
C  C136  1  0.77125211  0.41512729  0.59452705  1  0.380495  0  0.079776  0.244991  0  4.054041  0
C  C137  1  0.22874363  0.58486941  0.09452961  1  0.380297  0  0.079786  0.245047  0  4.05363  0
C  C138  1  0.35656186  0.58522155  0.40553891  1  0.374161  0  0.079581  0.245409  0  4.055599  0
C  C139  1  0.64343590  0.41478779  0.90553809  1  0.374205  0  0.079559  0.245462  0  4.055387  0
C  C140  1  0.61524722  0.36975589  0.58309959  1  -0.06799  0  -0.106454  -0.209814  0  4.002684  0
C  C141  1  0.38474750  0.63023891  0.08310190  1  -0.067872  0  -0.106352  -0.209629  0  4.002518  0
C  C142  1  0.24570016  0.63034860  0.41700185  1  -0.020084  0  -0.106267  -0.209941  0  4.003673  0
C  C143  1  0.75429487  0.36965511  0.91700002  1  -0.019923  0  -0.106301  -0.210005  0  4.003471  0
C  C144  1  0.51228918  0.36996505  0.61936471  1  -0.097699  0  -0.087918  -0.081552  0  3.985683  0
C  C145  1  0.48770673  0.63003168  0.11936527  1  -0.097709  0  -0.087979  -0.08155  0  3.98567  0
C  C146  1  0.14234030  0.62993888  0.38078215  1  -0.058986  0  -0.088028  -0.081111  0  3.984138  0
C  C147  1  0.85766055  0.37006854  0.88078223  1  -0.059137  0  -0.088022  -0.081127  0  3.984333  0
C  C148  1  0.56509259  0.41589552  0.66642626  1  -0.006818  0  -0.027623  -0.050058  0  3.99324  0
C  C149  1  0.43490565  0.58410315  0.16642789  1  -0.006937  0  -0.027673  -0.050175  0  3.993416  0
C  C150  1  0.14925803  0.58413132  0.33370044  1  -0.057688  0  -0.027261  -0.049887  0  3.992795  0
C  C151  1  0.85074693  0.41588075  0.83370125  1  -0.057575  0  -0.027188  -0.049729  0  3.992581  0
C  C152  1  0.72131294  0.45441687  0.67764094  1  -0.038438  0  -0.084285  -0.075124  0  3.976107  0
C  C153  1  0.27868548  0.54557994  0.17764354  1  -0.038397  0  -0.084308  -0.075154  0  3.976  0
C  C154  1  0.26711927  0.54578377  0.32246827  1  0.005858  0  -0.084593  -0.07589  0  3.976811  0
C  C155  1  0.73288561  0.45422828  0.82246824  1  0.005487  0  -0.084624  -0.075955  0  3.976839  0
C  C156  1  0.82500116  0.45298772  0.64203216  1  -0.027034  0  -0.099286  -0.198467  0  3.995105  0
C  C157  1  0.17499643  0.54700998  0.14203468  1  -0.027067  0  -0.099292  -0.198426  0  3.995036  0
C  C158  1  0.37242468  0.54737362  0.35803567  1  -0.072069  0  -0.099876  -0.198761  0  3.995975  0
C  C159  1  0.62757543  0.45263472  0.85803483  1  -0.071868  0  -0.09977  -0.198654  0  3.995808  0
C  C160  1  0.45812278  0.43458700  0.70258645  1  1.533838  0  0.180167  0.549582  0  4.252774  0
C  C161  1  0.54187492  0.56541642  0.20258743  1  1.533905  0  0.1801  0.549449  0  4.253088  0
C  C162  1  0.02358305  0.56539134  0.29751374  1  1.535983  0  0.181601  0.550788  0  4.25063  0
C  C163  1  0.97642248  0.43462444  0.79751428  1  1.535514  0  0.181597  0.550859  0  4.250723  0
C  C164  1  0.59780128  0.78959502  0.76867595  1  0.006294  0  -0.232969  -0.467574  0  3.980934  0
C  C165  1  0.40219884  0.21040191  0.26867540  1  0.006452  0  -0.232951  -0.467466  0  3.98079  0
C  C166  1  0.80824983  0.21025928  0.23125512  1  -0.099177  0  -0.232449  -0.467076  0  3.979541  0
C  C167  1  0.19175867  0.78974230  0.73125424  1  -0.099638  0  -0.232505  -0.467326  0  3.979574  0
C  C168  1  0.51451257  0.72690614  0.81383154  1  0.977006  0  0.212001  0.329063  0  3.961247  0
C  C169  1  0.48548892  0.27309085  0.31383106  1  0.977096  0  0.211981  0.328983  0  3.961129  0
C  C170  1  0.78754543  0.27298720  0.18611086  1  0.99283  0  0.211532  0.328932  0  3.958837  0
C  C171  1  0.21245797  0.72701526  0.68611000  1  0.992967  0  0.211471  0.329015  0  3.958567  0
C  C172  1  0.34034624  0.60336624  0.86462853  1  0.399815  0  -0.014712  -0.046934  0  4.045238  0
C  C173  1  0.65965818  0.39663176  0.36462816  1  0.400529  0  -0.014713  -0.046952  0  4.045226  0
C  C174  1  0.73667294  0.39651898  0.13534680  1  0.405648  0  -0.015248  -0.047986  0  4.046092  0
C  C175  1  0.26333361  0.60348623  0.63534380  1  0.405526  0  -0.015347  -0.048168  0  4.045987  0
C  C176  1  0.46494157  0.67606190  0.89258073  1  0.269329  0  -0.004202  -0.110778  0  3.932312  0
C  C177  1  0.53506352  0.32393708  0.39258027  1  0.268585  0  -0.004293  -0.110833  0  3.932351  0
C  C178  1  0.78829749  0.32367512  0.10736055  1  0.262226  0  -0.003694  -0.109834  0  3.931834  0
C  C179  1  0.21170933  0.67633099  0.60735787  1  0.262576  0  -0.003636  -0.109799  0  3.931733  0
C  C180  1  0.73035268  0.83968359  0.87291563  1  0.315045  0  -0.053328  -0.062141  0  3.867302  0
C  C181  1  0.26964901  0.16031725  0.37291572  1  0.315209  0  -0.053351  -0.062208  0  3.867354  0
C  C182  1  0.89001062  0.15989431  0.12692528  1  0.324117  0  -0.052766  -0.060567  0  3.865617  0
C  C183  1  0.10999294  0.84010713  0.62692506  1  0.324292  0  -0.052738  -0.060432  0  3.865594  0
C  C184  1  0.84249951  0.77717220  0.86692755  1  -0.02387  0  -0.160532  -0.158371  0  3.924008  0
C  C185  1  0.15750015  0.22282674  0.36692644  1  -0.023919  0  -0.160531  -0.158311  0  3.92395  0
C  C186  1  0.06459382  0.22202425  0.13300075  1  -0.022911  0  -0.160641  -0.157332  0  3.924529  0
C  C187  1  0.93541000  0.77797343  0.63300230  1  -0.022848  0  -0.16071  -0.157528  0  3.924527  0
C  C188  1  0.00721881  0.86613637  0.87947871  1  -0.041313  0  -0.15877  -0.165874  0  3.936251  0
C  C189  1  0.99277885  0.13386259  0.37947756  1  -0.041289  0  -0.158851  -0.166057  0  3.936274  0
C  C190  1  0.14038715  0.13301577  0.12048890  1  -0.011375  0  -0.158703  -0.166871  0  3.937081  0
C  C191  1  0.85961297  0.86698095  0.62049038  1  -0.011165  0  -0.158694  -0.166861  0  3.936988  0
C  C192  1  0.11833629  0.80311158  0.87217063  1  0.300722  0  -0.047418  -0.054669  0  3.87947  0
C  C193  1  0.88165991  0.19688455  0.37216827  1  0.272942  0  -0.047325  -0.0545  0  3.879432  0
C  C194  1  0.31445222  0.19621573  0.12786094  1  0.279687  0  -0.047391  -0.054256  0  3.879072  0
C  C195  1  0.68554527  0.80378195  0.62786192  1  0.279692  0  -0.047402  -0.054199  0  3.879088  0
C  C196  1  0.38708650  0.97383962  0.85907588  1  0.295823  0  -0.004798  -0.115699  0  3.951941  0
C  C197  1  0.61290761  0.02615461  0.35907480  1  0.295733  0  -0.004815  -0.115755  0  3.95198  0
C  C198  1  0.41313117  0.02587780  0.14095621  1  0.284957  0  -0.004595  -0.116428  0  3.952969  0
C  C199  1  0.58687155  0.97412178  0.64095451  1  0.285095  0  -0.004531  -0.116366  0  3.952886  0
C  C200  1  0.51206063  0.03014577  0.88915346  1  0.411615  0  -0.005421  -0.028467  0  4.03736  0
C  C201  1  0.48793348  0.96985226  0.38915250  1  0.411558  0  -0.005468  -0.028548  0  4.037403  0
C  C202  1  0.48188503  0.96961961  0.11086917  1  0.460332  0  -0.004958  -0.027594  0  4.036192  0
C  C203  1  0.51811653  0.03037805  0.61086756  1  0.460655  0  -0.004907  -0.027448  0  4.035757  0
C  C204  1  0.33217350  0.88856163  0.93339873  1  0.98299  0  0.217406  0.336243  0  3.966461  0
C  C205  1  0.66782685  0.11143364  0.43339768  1  0.983102  0  0.21743  0.336278  0  3.966354  0
C  C206  1  0.44320702  0.11108098  0.06661904  1  0.982399  0  0.217316  0.336424  0  3.967815  0
C  C207  1  0.55679340  0.88891285  0.56661880  1  0.982836  0  0.217391  0.336501  0  3.967998  0
C  C208  1  0.24728355  0.80533795  0.97420099  1  -0.084051  0  -0.233843  -0.477765  0  3.964526  0
C  C209  1  0.75271966  0.19465832  0.47420036  1  -0.084043  0  -0.233777  -0.477672  0  3.964475  0
C  C210  1  0.44137373  0.19432544  0.02584095  1  -0.115181  0  -0.233998  -0.47781  0  3.964766  0
C  C211  1  0.55862813  0.80566551  0.52584183  1  -0.11551  0  -0.234055  -0.477822  0  3.964696  0
N  N212  1  0.37216921  0.63611478  0.81572750  1  -1.203248  0  -0.362884  -0.373152  0  3.471084  0
N  N213  1  0.62783659  0.36388033  0.31572674  1  -1.203295  0  -0.362832  -0.37303  0  3.470892  0
N  N214  1  0.73608468  0.36387827  0.18424748  1  -1.196385  0  -0.362096  -0.37242  0  3.469305  0
N  N215  1  0.26391976  0.63612418  0.68424447  1  -1.196294  0  -0.362049  -0.37243  0  3.469412  0
N  N216  1  0.57379257  0.75371628  0.86003938  1  -1.229269  0  -0.243231  -0.01185  0  3.728113  0
N  N217  1  0.42620904  0.24628454  0.36003885  1  -1.229351  0  -0.24317  -0.011793  0  3.728137  0
N  N218  1  0.81969774  0.24606255  0.13988251  1  -1.225849  0  -0.24355  -0.013477  0  3.727693  0
N  N219  1  0.18030533  0.75393985  0.63988126  1  -1.225726  0  -0.243519  -0.013431  0  3.727481  0
N  N220  1  0.27464565  0.88421817  0.88738496  1  -1.255092  0  -0.241731  -0.013914  0  3.735552  0
N  N221  1  0.72535112  0.11577892  0.38738396  1  -1.255085  0  -0.241736  -0.013956  0  3.735643  0
N  N222  1  0.39002909  0.11537689  0.11264340  1  -1.249493  0  -0.241791  -0.013989  0  3.737929  0
N  N223  1  0.60997296  0.88462171  0.61264284  1  -1.250033  0  -0.241833  -0.014009  0  3.738064  0
N  N224  1  0.47627554  0.97640226  0.93523792  1  -1.219865  0  -0.361167  -0.360982  0  3.488206  0
N  N225  1  0.52372377  0.02359301  0.43523713  1  -1.219799  0  -0.361155  -0.360981  0  3.488089  0
N  N226  1  0.49973751  0.02337488  0.06478250  1  -1.219317  0  -0.36092  -0.360557  0  3.488294  0
N  N227  1  0.50026699  0.97662083  0.56478073  1  -1.219486  0  -0.36106  -0.360861  0  3.488448  0
O  O228  1  0.35598735  0.20916566  0.49703373  1  -1.167849  0  -0.341825  -0.577765  0  2.165041  0
O  O229  1  0.64400836  0.79083628  0.99703467  1  -1.167869  0  -0.341746  -0.577693  0  2.164955  0
O  O230  1  0.14751416  0.79096125  0.50277004  1  -1.190452  0  -0.342203  -0.578192  0  2.166151  0
O  O231  1  0.85248234  0.20903814  0.00276913  1  -1.190501  0  -0.342223  -0.578184  0  2.166244  0
O  O232  1  0.21820383  0.06997778  0.55405842  1  -1.168458  0  -0.337702  -0.562097  0  2.205621  0
O  O233  1  0.78178240  0.93001510  0.05406284  1  -1.168388  0  -0.337686  -0.562117  0  2.205522  0
O  O234  1  0.14863971  0.93053763  0.44597459  1  -1.168249  0  -0.338044  -0.56229  0  2.207025  0
O  O235  1  0.85136145  0.06946330  0.94597508  1  -1.168175  0  -0.338053  -0.562329  0  2.206817  0
O  O236  1  0.87312870  0.43292602  0.55580865  1  -1.121971  0  -0.150813  -0.218977  0  2.611808  0
O  O237  1  0.12686502  0.56707344  0.05580856  1  -1.121613  0  -0.150817  -0.218946  0  2.61156  0
O  O238  1  0.44086288  0.56759404  0.44423135  1  -1.127675  0  -0.150879  -0.219609  0  2.611239  0
O  O239  1  0.55913668  0.43241630  0.94422935  1  -1.127683  0  -0.150907  -0.219585  0  2.611372  0
O  O240  1  0.31318177  0.38196440  0.69392669  1  -1.144077  0  -0.349554  -0.56303  0  2.158656  0
O  O241  1  0.68681446  0.61803619  0.19392778  1  -1.144067  0  -0.349519  -0.562954  0  2.158795  0
O  O242  1  0.93126543  0.61804465  0.30615510  1  -1.145385  0  -0.350278  -0.563568  0  2.15699  0
O  O243  1  0.06873583  0.38196456  0.80615454  1  -1.145395  0  -0.350334  -0.563753  0  2.157074  0
O  O244  1  0.51516460  0.50821232  0.73869093  1  -1.183022  0  -0.336836  -0.56329  0  2.16413  0
O  O245  1  0.48484164  0.49179303  0.23869261  1  -1.183076  0  -0.336816  -0.563222  0  2.164144  0
O  O246  1  0.00709396  0.49177763  0.26140341  1  -1.184664  0  -0.337775  -0.564088  0  2.163083  0
O  O247  1  0.99292440  0.50824750  0.76140762  1  -1.18424  0  -0.337734  -0.564018  0  2.163335  0
