# generated using pymatgen
data_CoH16C20(NO2)2
_symmetry_space_group_name_H-M   'P 1'
_cell_length_a   9.97418160
_cell_length_b   9.97820995
_cell_length_c   10.77916232
_cell_angle_alpha   81.08328349
_cell_angle_beta   67.60655624
_cell_angle_gamma   77.28766704
_symmetry_Int_Tables_number   1
_chemical_formula_structural   CoH16C20(NO2)2
_chemical_formula_sum   'Co2 H32 C40 N4 O8'
_cell_volume   964.56030123
_cell_formula_units_Z   2
loop_
 _symmetry_equiv_pos_site_id
 _symmetry_equiv_pos_as_xyz
  1  'x, y, z'
loop_
 _atom_site_type_symbol
 _atom_site_label
 _atom_site_symmetry_multiplicity
 _atom_site_fract_x
 _atom_site_fract_y
 _atom_site_fract_z
 _atom_site_occupancy
 _atom_site_hle17_ddec_charge
 _atom_site_hle17_ddec_spin_density
 _atom_site_hle17_ddec_sum_bond_order
 _atom_site_hle17_magmom
 _atom_site_hse06_10hf_ddec_charge
 _atom_site_hse06_10hf_ddec_spin_density
 _atom_site_hse06_10hf_ddec_sum_bond_order
 _atom_site_hse06_10hf_magmom
 _atom_site_hse06_ddec_charge
 _atom_site_hse06_ddec_spin_density
 _atom_site_hse06_ddec_sum_bond_order
 _atom_site_hse06_magmom
 _atom_site_pbe_cm5_charge
 _atom_site_pbe_ddec_charge
 _atom_site_pbe_ddec_spin_density
 _atom_site_pbe_ddec_sum_bond_order
 _atom_site_pbe_magmom
Co  Co0  1  0.12384942  0.89242443  0.82554616  1  0.964272  2.982256  2.042564  2.578  0.930277  2.886609  2.452935  2.636  1.007087  2.925881  2.380967  2.715  0.668923  0.862848  2.85445  2.520583  2.557
Co  Co1  1  0.87616923  0.10767809  0.17435101  1  0.964278  -2.982295  2.042856  -2.578  0.930309  -2.886612  2.453212  -2.636  1.007079  -2.925887  2.381294  -2.715  0.668939  0.862882  -2.854417  2.520917  -2.557
H  H2  1  0.32288082  0.76475676  0.97577030  1  0.077542  0.000501  0.955759  0.002  0.087294  0.000276  1.017318  0.001  0.089483  0.000197  1.015591  0.001  0.115209  0.085382  0.000349  1.019016  0.001
H  H3  1  0.67713576  0.23520676  0.02422928  1  0.077565  -0.0005  0.955689  -0.002  0.087201  -0.000277  1.017378  -0.001  0.089393  -0.000198  1.01565  -0.001  0.115185  0.085285  -0.000349  1.019084  -0.001
H  H4  1  0.32523551  0.59972988  0.17373705  1  0.103226  0.000126  0.948012  0.0  0.117126  0.000294  1.001692  0.0  0.120105  0.000209  1.001542  0.0  0.105373  0.114563  0.000387  1.002716  0.0
H  H5  1  0.67477394  0.40026478  0.82629289  1  0.103383  -0.00013  0.948149  0.0  0.117272  -0.000294  1.001797  0.0  0.120253  -0.00021  1.001646  0.0  0.105409  0.114706  -0.000387  1.002828  0.0
H  H6  1  0.91585099  0.69749688  0.00823979  1  0.075342  0.000651  0.938197  0.002  0.086336  0.000498  0.997229  0.001  0.088627  0.000365  0.994965  0.001  0.117158  0.084378  0.000521  0.999447  0.001
H  H7  1  0.08415990  0.30249568  0.99178344  1  0.075161  -0.000654  0.938168  -0.002  0.086215  -0.000499  0.997164  -0.001  0.088511  -0.000366  0.994883  -0.001  0.11713  0.084252  -0.000523  0.999387  -0.001
H  H8  1  0.70511823  0.97893130  0.77858859  1  0.095768  6.7e-05  0.97062  0.0  0.104412  1e-05  1.034848  0.0  0.107469  -8e-06  1.03358  0.0  0.102355  0.102031  2.6e-05  1.036097  0.0
H  H9  1  0.29484617  0.02108391  0.22138767  1  0.096046  -7e-05  0.970167  0.0  0.104613  -1e-05  1.034478  0.0  0.107697  8e-06  1.033181  0.0  0.102445  0.102196  -2.6e-05  1.035768  0.0
H  H10  1  0.55560128  0.98763506  0.20802858  1  0.103311  0.000101  0.955887  0.0  0.111819  7.7e-05  1.019111  0.0  0.115568  9.9e-05  1.016537  0.0  0.104637  0.108862  6.1e-05  1.021381  0.0
H  H11  1  0.44436073  0.01238903  0.79189339  1  0.103659  -0.000103  0.955694  0.0  0.1119  -7.7e-05  1.019124  0.0  0.115625  -9.8e-05  1.01659  0.0  0.104805  0.108957  -6e-05  1.021387  0.0
H  H12  1  0.99189400  0.43947006  0.38708038  1  0.081626  -4.7e-05  0.947225  0.0  0.096665  -3.2e-05  1.014521  0.0  0.098502  -1.6e-05  1.013396  0.0  0.09688  0.095288  -8.3e-05  1.015159  0.0
H  H13  1  0.00812162  0.56053594  0.61292892  1  0.081647  4.6e-05  0.94707  0.0  0.09669  3.2e-05  1.014318  0.0  0.098531  1.6e-05  1.01319  0.0  0.096867  0.095312  8.4e-05  1.014959  0.0
H  H14  1  0.14988516  0.48758972  0.39257775  1  0.071555  -0.000219  0.952762  0.0  0.090165  -9.7e-05  1.015292  0.0  0.09077  -6.4e-05  1.015793  0.0  0.092282  0.089616  -0.000124  1.015089  0.0
H  H15  1  0.85013698  0.51241125  0.60743553  1  0.071554  0.000221  0.952865  0.0  0.090126  9.7e-05  1.015426  0.0  0.090743  6.5e-05  1.015906  0.0  0.092337  0.089575  0.000125  1.015223  0.0
H  H16  1  0.90307824  0.52468216  0.20494416  1  0.116155  0.000147  0.945603  0.0  0.12668  0.000297  1.002838  0.0  0.130259  0.000238  1.00229  0.0  0.108201  0.123832  0.000349  1.003713  0.0
H  H17  1  0.09691995  0.47532587  0.79510359  1  0.11621  -0.000138  0.945535  0.0  0.126824  -0.000297  1.002686  0.0  0.130406  -0.000238  1.002137  0.0  0.108299  0.123973  -0.000349  1.003568  0.0
H  H18  1  0.56876061  0.57996132  0.67124089  1  0.092054  0.00015  0.96507  0.0  0.100786  8e-05  1.031784  0.0  0.103953  3.8e-05  1.02985  0.0  0.101287  0.098569  0.000122  1.03316  0.0
H  H19  1  0.43123084  0.42003491  0.32876467  1  0.09215  -0.000151  0.965072  0.0  0.100859  -8e-05  1.031801  0.0  0.104039  -3.7e-05  1.029843  0.0  0.10135  0.098648  -0.000121  1.033184  0.0
H  H20  1  0.25782187  0.60210575  0.47939783  1  0.088823  0.000166  0.971232  0.0  0.096457  0.000131  1.039974  0.0  0.100089  7.8e-05  1.037343  0.0  0.099359  0.093972  0.000188  1.041761  0.0
H  H21  1  0.74216825  0.39789662  0.52060079  1  0.088814  -0.000169  0.971316  0.0  0.096452  -0.000132  1.040038  0.0  0.100078  -7.8e-05  1.037406  0.0  0.099372  0.093974  -0.000188  1.041813  0.0
H  H22  1  0.14986047  0.26360021  0.22712236  1  0.103047  -0.000225  0.932575  0.0  0.120074  -2.9e-05  0.992372  0.0  0.122094  2.7e-05  0.991664  0.0  0.101735  0.118384  -9.6e-05  0.99297  0.0
H  H23  1  0.85013914  0.73640966  0.77288934  1  0.10296  0.00022  0.932537  0.0  0.120005  2.8e-05  0.992366  0.0  0.122078  -2.7e-05  0.991595  0.0  0.101723  0.118304  9.5e-05  0.992977  0.0
H  H24  1  0.31112743  0.30776833  0.23105211  1  0.078321  2.6e-05  0.930444  0.0  0.096545  1.5e-05  0.989441  0.0  0.097946  1.6e-05  0.988877  0.0  0.093479  0.095355  2.3e-05  0.990099  0.0
H  H25  1  0.68886536  0.69222693  0.76895868  1  0.078315  -2.6e-05  0.930161  0.0  0.096568  -1.5e-05  0.989191  0.0  0.097968  -1.5e-05  0.988634  0.0  0.09346  0.095376  -2.3e-05  0.989844  0.0
H  H26  1  0.40944914  0.17721349  0.39908416  1  0.114455  -2.1e-05  0.98192  0.0  0.121224  9e-05  1.049801  0.0  0.12521  0.000107  1.048702  0.0  0.101152  0.117559  5.6e-05  1.051777  0.0
H  H27  1  0.59052734  0.82275689  0.60096131  1  0.11446  1.4e-05  0.982177  0.0  0.121274  -9e-05  1.049953  0.0  0.125253  -0.000107  1.048872  0.0  0.101182  0.117655  -5.6e-05  1.051881  0.0
H  H28  1  0.94867014  0.20797363  0.46536527  1  0.119234  0.000132  0.968869  0.0  0.129892  0.000265  1.028328  0.0  0.13398  0.000235  1.026795  0.0  0.106088  0.126128  0.000285  1.030477  0.0
H  H29  1  0.05132501  0.79203091  0.53463586  1  0.119276  -0.000138  0.968902  0.0  0.129969  -0.000264  1.028306  0.0  0.134053  -0.000236  1.026776  0.0  0.106133  0.126211  -0.000284  1.030437  0.0
H  H30  1  0.92600524  0.05724469  0.67873359  1  0.077821  0.00034  0.966026  0.001  0.08527  8e-05  1.03247  0.001  0.087873  1.9e-05  1.030156  0.001  0.112958  0.083403  0.000156  1.033882  0.001
H  H31  1  0.07395835  0.94275407  0.32126029  1  0.077772  -0.00034  0.966049  -0.001  0.085197  -7.8e-05  1.032544  -0.001  0.087792  -1.7e-05  1.030258  -0.001  0.11286  0.083331  -0.000153  1.033955  -0.001
H  H32  1  0.36730949  0.02432437  0.61220202  1  0.073903  0.000542  0.951615  0.002  0.082715  0.00038  1.016363  0.001  0.085336  0.000276  1.013418  0.001  0.113218  0.080527  0.000462  1.019025  0.001
H  H33  1  0.63266462  0.97563552  0.38782826  1  0.073971  -0.000538  0.951754  -0.001  0.082793  -0.000377  1.016462  -0.001  0.085414  -0.000274  1.01352  -0.001  0.113195  0.080605  -0.00046  1.019126  -0.001
C  C34  1  0.23076174  0.71100723  0.03083533  1  0.129455  -0.011793  3.721707  -0.016  0.103174  -0.002985  3.971521  -0.004  0.111814  -0.002615  3.988532  -0.004  0.040314  0.096353  -0.003936  3.961819  -0.005
C  C35  1  0.76924778  0.28897995  0.96916045  1  0.12954  0.011855  3.721549  0.016  0.103323  0.003006  3.971313  0.004  0.111977  0.002628  3.988305  0.004  0.040328  0.096501  0.003967  3.961656  0.005
C  C36  1  0.23167258  0.61766075  0.14055999  1  -0.188169  0.009837  3.732187  0.013  -0.202275  0.002307  3.970025  0.003  -0.211555  0.002136  3.991588  0.003  -0.091697  -0.196537  0.00259  3.957662  0.004
C  C37  1  0.76834512  0.38231827  0.85943315  1  -0.188378  -0.009874  3.732583  -0.013  -0.202484  -0.002316  3.970369  -0.003  -0.211765  -0.002142  3.99191  -0.003  -0.091712  -0.196752  -0.002601  3.958039  -0.004
C  C38  1  0.80157111  0.96060008  0.98493269  1  0.646535  -0.003573  3.878214  -0.005  0.600666  -0.003119  4.185276  -0.006  0.641271  -0.00275  4.17511  -0.005  0.217174  0.569017  -0.004642  4.190712  -0.007
C  C39  1  0.19839766  0.03941009  0.01505111  1  0.64622  0.003548  3.879032  0.005  0.60061  0.003099  4.185764  0.006  0.641233  0.002739  4.175573  0.005  0.217118  0.568958  0.004603  4.19122  0.007
C  C40  1  0.64611554  0.97981918  0.99276609  1  -0.067161  0.002085  3.771703  0.003  -0.04483  0.001195  4.000855  0.002  -0.051626  0.000973  4.021324  0.001  -0.018562  -0.041474  0.001591  3.989768  0.002
C  C41  1  0.35385007  0.02021554  0.00718639  1  -0.066935  -0.002082  3.771528  -0.003  -0.044845  -0.001196  4.000755  -0.002  -0.051643  -0.00097  4.021213  -0.001  -0.018609  -0.041552  -0.001598  3.989776  -0.002
C  C42  1  0.00421889  0.67309864  0.04837025  1  0.147256  -0.01141  3.708013  -0.016  0.117425  -0.002442  3.965612  -0.004  0.127177  -0.002048  3.981066  -0.003  0.047728  0.110291  -0.003437  3.956806  -0.005
C  C43  1  0.99579825  0.32690017  0.95164330  1  0.147587  0.011503  3.707606  0.016  0.117682  0.00246  3.965202  0.004  0.12746  0.002057  3.980617  0.003  0.047835  0.110554  0.003466  3.956426  0.005
C  C44  1  0.61467784  0.98795286  0.87523060  1  -0.074583  -0.000708  3.745121  -0.001  -0.097675  -0.000234  3.993287  -0.001  -0.098192  -0.000261  4.013235  0.0  -0.086199  -0.097517  -0.001217  3.980986  -0.002
C  C45  1  0.38529588  0.01209031  0.12472603  1  -0.075017  0.000708  3.744459  0.001  -0.097965  0.000231  3.992685  0.001  -0.098502  0.000259  4.012626  0.0  -0.086295  -0.097768  0.001208  3.980435  0.002
C  C46  1  0.53011026  0.99251922  0.11764950  1  -0.0701  -0.000637  3.732942  -0.001  -0.091863  -0.000148  3.977468  0.0  -0.091993  -0.00013  3.995977  0.0  -0.0847  -0.092116  7.5e-05  3.966577  0.0
C  C47  1  0.46985939  0.00752684  0.88228774  1  -0.070613  0.00064  3.732593  0.001  -0.092051  0.000148  3.977262  0.0  -0.092156  0.000131  3.995757  0.0  -0.084735  -0.092309  -8e-05  3.966418  0.0
C  C48  1  0.11217557  0.54899052  0.20792356  1  0.156962  -0.012002  3.729356  -0.015  0.174717  -0.003625  3.964109  -0.005  0.181159  -0.002737  3.985926  -0.003  0.009459  0.169057  -0.005607  3.950738  -0.007
C  C49  1  0.88783799  0.45098858  0.79209147  1  0.157305  0.012094  3.729186  0.016  0.175071  0.003651  3.963913  0.005  0.181536  0.00275  3.985713  0.004  0.009569  0.169388  0.005647  3.950576  0.007
C  C50  1  0.10702160  0.44852315  0.32777154  1  -0.149463  -7.1e-05  3.694399  0.001  -0.195352  -0.000241  3.946418  0.0  -0.196735  -0.000153  3.957345  0.0  -0.155318  -0.194043  -0.000421  3.939253  0.0
C  C51  1  0.89298415  0.55147864  0.67225308  1  -0.149644  6.6e-05  3.694757  -0.001  -0.195451  0.000239  3.946726  0.0  -0.196829  0.000151  3.957638  0.0  -0.155385  -0.194145  0.00042  3.939579  0.0
C  C52  1  0.99747752  0.57727862  0.15795610  1  -0.174409  0.009979  3.695038  0.013  -0.189429  0.002442  3.935786  0.004  -0.198211  0.002301  3.955658  0.003  -0.085073  -0.184314  0.002616  3.924294  0.004
C  C53  1  0.00254191  0.42270883  0.84205463  1  -0.174523  -0.010072  3.695101  -0.013  -0.189663  -0.002452  3.935879  -0.004  -0.198457  -0.00231  3.955741  -0.003  -0.085219  -0.18455  -0.002626  3.924412  -0.004
C  C54  1  0.40316899  0.60134551  0.58414737  1  -0.044396  0.004037  3.762163  0.005  -0.018375  0.001279  3.983308  0.002  -0.023459  0.000678  4.003697  0.001  -0.015166  -0.016  0.002104  3.970964  0.003
C  C55  1  0.59684557  0.39866443  0.41583760  1  -0.044199  -0.004056  3.762309  -0.005  -0.018148  -0.001279  3.983431  -0.002  -0.023229  -0.000678  4.003817  -0.001  -0.015206  -0.015782  -0.002107  3.971101  -0.003
C  C56  1  0.53990936  0.54425357  0.59571956  1  -0.078054  -0.002685  3.751933  -0.004  -0.10123  -0.000274  3.999482  0.0  -0.102406  -0.000144  4.020345  0.0  -0.085907  -0.100085  -0.000408  3.985241  -0.001
C  C57  1  0.46009835  0.45572629  0.40427149  1  -0.078118  0.002698  3.751847  0.004  -0.101272  0.000276  3.999392  0.0  -0.102451  0.000145  4.020264  0.0  -0.085926  -0.100142  0.000409  3.985176  0.001
C  C58  1  0.36407974  0.55613288  0.48781967  1  -0.08122  -0.002517  3.751499  -0.003  -0.104087  -0.000111  3.999356  0.0  -0.105402  -4.7e-05  4.019518  0.0  -0.087718  -0.103027  -0.000341  3.985623  -0.001
C  C59  1  0.63592724  0.44386150  0.51217780  1  -0.081183  0.002524  3.751773  0.003  -0.104036  0.00011  3.999579  0.0  -0.105337  4.6e-05  4.019722  0.0  -0.08771  -0.102974  0.000337  3.985846  0.001
C  C60  1  0.30067198  0.71015652  0.67242553  1  0.60505  -0.006642  3.928569  -0.011  0.562561  -0.00194  4.226729  -0.005  0.598569  -0.001373  4.222176  -0.003  0.191927  0.536635  -0.002716  4.226668  -0.006
C  C61  1  0.69939991  0.28984643  0.32759644  1  0.604591  0.006652  3.929801  0.011  0.561975  0.001938  4.228144  0.005  0.597979  0.001371  4.223601  0.003  0.191756  0.536052  0.002711  4.228075  0.006
C  C62  1  0.19463766  0.30330489  0.29015507  1  -0.159492  -0.000258  3.675835  0.0  -0.203243  -0.00025  3.927589  0.0  -0.204933  -0.000153  3.937903  0.0  -0.155772  -0.201522  -0.000439  3.920793  0.0
C  C63  1  0.80537244  0.69668034  0.70985749  1  -0.159324  0.00027  3.675597  0.0  -0.203251  0.000251  3.9275  0.0  -0.204978  0.000153  3.937818  0.0  -0.155803  -0.201512  0.000441  3.92068  0.0
C  C64  1  0.18068474  0.20782068  0.41523011  1  0.15441  -0.01077  3.717642  -0.014  0.171132  -0.003233  3.955013  -0.004  0.177196  -0.002486  3.977  -0.003  0.008339  0.165861  -0.004892  3.940979  -0.006
C  C65  1  0.81931358  0.79216841  0.58477220  1  0.154315  0.010693  3.717568  0.014  0.17115  0.003215  3.954903  0.004  0.177197  0.002471  3.976919  0.003  0.00832  0.165886  0.004863  3.940865  0.006
C  C66  1  0.29950124  0.15402534  0.45800727  1  -0.193166  0.008935  3.71484  0.012  -0.206617  0.002226  3.954656  0.003  -0.216366  0.002087  3.976592  0.003  -0.093456  -0.20021  0.002385  3.941851  0.004
C  C67  1  0.70048251  0.84594612  0.54202706  1  -0.193458  -0.008869  3.715048  -0.012  -0.206997  -0.002218  3.954917  -0.003  -0.216751  -0.002079  3.976861  -0.003  -0.093723  -0.20062  -0.002376  3.942073  -0.004
C  C68  1  0.04368260  0.17227381  0.49641288  1  -0.184011  0.009133  3.704079  0.012  -0.199889  0.002196  3.947005  0.003  -0.208868  0.002082  3.96779  0.003  -0.090088  -0.193589  0.002333  3.934275  0.003
C  C69  1  0.95631020  0.82772145  0.50359883  1  -0.184071  -0.009062  3.704397  -0.012  -0.199966  -0.002186  3.94726  -0.003  -0.208954  -0.002074  3.968063  -0.003  -0.090153  -0.193657  -0.002323  3.934519  -0.003
C  C70  1  0.03061596  0.08744855  0.61386249  1  0.129004  -0.010368  3.72042  -0.014  0.101677  -0.002743  3.975833  -0.004  0.109694  -0.002543  3.993343  -0.004  0.041977  0.096052  -0.003174  3.964096  -0.005
C  C71  1  0.96935850  0.91252982  0.38614724  1  0.128985  0.010316  3.720497  0.014  0.101696  0.002727  3.975983  0.004  0.109705  0.002531  3.993487  0.004  0.042144  0.096078  0.003154  3.964245  0.005
C  C72  1  0.27686397  0.06909062  0.57696921  1  0.128695  -0.010521  3.716616  -0.014  0.10356  -0.002257  3.964639  -0.003  0.11234  -0.001939  3.981231  -0.003  0.041892  0.096864  -0.003226  3.95436  -0.005
C  C73  1  0.72311686  0.93088380  0.42305182  1  0.128565  0.010457  3.716635  0.014  0.103526  0.002241  3.964619  0.003  0.112304  0.001924  3.981216  0.003  0.041978  0.096828  0.003205  3.954357  0.005
N  N74  1  0.11790879  0.74087689  0.98567122  1  -0.316187  0.040503  3.318622  0.069  -0.26806  0.025442  3.593781  0.04  -0.29028  0.022609  3.606294  0.035  -0.327744  -0.253448  0.027138  3.58939  0.044
N  N75  1  0.88210308  0.25911045  0.01434317  1  -0.316485  -0.040602  3.319092  -0.069  -0.268274  -0.025474  3.594223  -0.04  -0.290489  -0.022641  3.606677  -0.035  -0.327936  -0.253705  -0.027164  3.589931  -0.044
N  N76  1  0.14491792  0.03533310  0.65472338  1  -0.308697  0.040143  3.303323  0.069  -0.262176  0.026089  3.579209  0.043  -0.283573  0.02238  3.592172  0.036  -0.327661  -0.246513  0.02875  3.57138  0.047
N  N77  1  0.85505528  0.96465541  0.34526023  1  -0.308368  -0.040047  3.302124  -0.069  -0.261982  -0.026048  3.578021  -0.043  -0.283354  -0.022341  3.591004  -0.036  -0.327473  -0.246333  -0.02871  3.570203  -0.047
O  O78  1  0.90271741  0.92777226  0.87269984  1  -0.604235  0.035272  2.11536  0.053  -0.572843  0.026725  2.401987  0.038  -0.608681  0.021034  2.389388  0.029  -0.301749  -0.540365  0.034781  2.407236  0.05
O  O79  1  0.09724166  0.07226352  0.12727246  1  -0.604001  -0.03532  2.115851  -0.053  -0.572679  -0.026764  2.402398  -0.038  -0.608536  -0.021063  2.389857  -0.029  -0.301667  -0.540162  -0.03483  2.407576  -0.05
O  O80  1  0.35092525  0.78125077  0.72825831  1  -0.617121  0.039542  1.986428  0.064  -0.587147  0.029741  2.243278  0.048  -0.622994  0.022035  2.237257  0.036  -0.311234  -0.555519  0.038995  2.244221  0.062
O  O81  1  0.64917478  0.21871143  0.27178286  1  -0.6168  -0.039592  1.987172  -0.065  -0.586717  -0.029761  2.244007  -0.048  -0.622578  -0.02205  2.238019  -0.036  -0.311092  -0.555066  -0.039025  2.244922  -0.063
O  O82  1  0.16338190  0.73152568  0.69143381  1  -0.602463  0.040722  1.97134  0.066  -0.574064  0.031076  2.22751  0.05  -0.610018  0.023122  2.222337  0.037  -0.308739  -0.542488  0.039707  2.228201  0.063
O  O83  1  0.83669238  0.26852898  0.30857857  1  -0.602438  -0.04069  1.971736  -0.066  -0.574023  -0.031059  2.228001  -0.05  -0.60999  -0.02311  2.222886  -0.037  -0.308637  -0.54245  -0.039689  2.228699  -0.063
O  O84  1  0.82478880  0.97562842  0.08973897  1  -0.620813  -0.04438  2.179261  -0.067  -0.599469  -0.032847  2.4845  -0.045  -0.638262  -0.024041  2.471122  -0.03  -0.312338  -0.561991  -0.047776  2.489587  -0.07
O  O85  1  0.17518877  0.02434474  0.91025745  1  -0.620852  0.044444  2.179983  0.067  -0.599518  0.032895  2.485026  0.045  -0.638323  0.024083  2.471672  0.03  -0.312437  -0.562079  0.047827  2.4902  0.07
