# generated using pymatgen
data_CdH8C8(N3O2)2
_symmetry_space_group_name_H-M   'P 1'
_cell_length_a   4.88972727
_cell_length_b   8.74855347
_cell_length_c   12.41885221
_cell_angle_alpha   91.47756671
_cell_angle_beta   90.00004353
_cell_angle_gamma   89.99985920
_symmetry_Int_Tables_number   1
_chemical_formula_structural   CdH8C8(N3O2)2
_chemical_formula_sum   'Cd2 H16 C16 N12 O8'
_cell_volume   531.07751948
_cell_formula_units_Z   2
loop_
 _symmetry_equiv_pos_site_id
 _symmetry_equiv_pos_as_xyz
  1  'x, y, z'
loop_
 _atom_site_type_symbol
 _atom_site_label
 _atom_site_symmetry_multiplicity
 _atom_site_fract_x
 _atom_site_fract_y
 _atom_site_fract_z
 _atom_site_occupancy
 _atom_site_hle17_bader_spin_density
 _atom_site_hle17_ddec_charge
 _atom_site_hle17_ddec_spin_density
 _atom_site_hle17_ddec_sum_bond_order
 _atom_site_hle17_magmom
 _atom_site_hse06_10hf_bader_spin_density
 _atom_site_hse06_10hf_ddec_charge
 _atom_site_hse06_10hf_ddec_spin_density
 _atom_site_hse06_10hf_ddec_sum_bond_order
 _atom_site_hse06_10hf_magmom
 _atom_site_hse06_bader_spin_density
 _atom_site_hse06_ddec_charge
 _atom_site_hse06_ddec_spin_density
 _atom_site_hse06_ddec_sum_bond_order
 _atom_site_hse06_magmom
 _atom_site_pbe_bader_spin_density
 _atom_site_pbe_cm5_charge
 _atom_site_pbe_ddec_charge
 _atom_site_pbe_ddec_spin_density
 _atom_site_pbe_ddec_sum_bond_order
 _atom_site_pbe_magmom
Cd  Cd0  1  0.00000048  0.99999961  0.50000087  1  0  1.185218  0  1.698773  0  0  1.00393  0  2.157007  0  0  1.057254  0  2.10394  0  0  0.788528  0.965281  0  2.194589  0
Cd  Cd1  1  0.50000320  0.50000022  0.99999810  1  0  1.185198  0  1.698793  0  0  1.003906  0  2.157009  0  0  1.057229  0  2.103945  0  0  0.788522  0.965254  0  2.194591  0
H  H2  1  0.54620200  0.32847233  0.50590879  1  0  0.103179  0  0.979112  0  0  0.104376  0  1.054925  0  0  0.10764  0  1.051332  0  0  0.129052  0.101846  0  1.057821  0
H  H3  1  0.04620356  0.17152857  0.99408940  1  0  0.103158  0  0.979157  0  0  0.104357  0  1.054968  0  0  0.107621  0  1.051377  0  0  0.129042  0.101827  0  1.057863  0
H  H4  1  0.45379731  0.67153005  0.49408970  1  0  0.103135  0  0.97913  0  0  0.104335  0  1.054943  0  0  0.107598  0  1.051352  0  0  0.129035  0.101805  0  1.05784  0
H  H5  1  0.95380189  0.82847152  0.00590906  1  0  0.103174  0  0.979125  0  0  0.104373  0  1.054933  0  0  0.107636  0  1.051342  0  0  0.129043  0.101842  0  1.057829  0
H  H6  1  0.25511008  0.25694734  0.31986677  1  0  0.104216  0  0.949594  0  0  0.110331  0  1.019255  0  0  0.112728  0  1.016892  0  0  0.137621  0.108547  0  1.020802  0
H  H7  1  0.75511333  0.24305179  0.18013212  1  0  0.104212  0  0.949569  0  0  0.110317  0  1.019257  0  0  0.112719  0  1.016879  0  0  0.137603  0.108533  0  1.020805  0
H  H8  1  0.74488514  0.74305048  0.68013327  1  0  0.104216  0  0.949552  0  0  0.110313  0  1.019249  0  0  0.112716  0  1.016869  0  0  0.137589  0.108531  0  1.020798  0
H  H9  1  0.24488598  0.75694715  0.81986552  1  0  0.104238  0  0.949539  0  0  0.110346  0  1.019214  0  0  0.112747  0  1.016839  0  0  0.137621  0.108563  0  1.020765  0
H  H10  1  0.33768660  0.54526814  0.27302128  1  0  0.127048  0  0.94322  0  0  0.131286  0  1.018185  0  0  0.134355  0  1.016191  0  0  0.118454  0.129063  0  1.019721  0
H  H11  1  0.83768491  0.95473017  0.22697982  1  0  0.127009  0  0.943277  0  0  0.13128  0  1.018213  0  0  0.134349  0  1.016219  0  0  0.118445  0.129056  0  1.019748  0
H  H12  1  0.66231475  0.45473082  0.72697958  1  0  0.126991  0  0.943243  0  0  0.131255  0  1.018193  0  0  0.134325  0  1.0162  0  0  0.118452  0.129031  0  1.01973  0
H  H13  1  0.16231235  0.04526880  0.77302105  1  0  0.127044  0  0.943216  0  0  0.13129  0  1.018156  0  0  0.13436  0  1.016162  0  0  0.118464  0.129068  0  1.019693  0
H  H14  1  0.08587067  0.67957428  0.31918495  1  0  0.135206  0  0.909219  0  0  0.148781  0  0.967932  0  0  0.151205  0  0.966637  0  0  0.128346  0.146977  0  0.969021  0
H  H15  1  0.58586949  0.82042437  0.18081527  1  0  0.135183  0  0.909218  0  0  0.148779  0  0.967919  0  0  0.1512  0  0.966628  0  0  0.128342  0.146974  0  0.969008  0
H  H16  1  0.91412864  0.32042354  0.68081509  1  0  0.135163  0  0.909206  0  0  0.148749  0  0.967927  0  0  0.151172  0  0.966634  0  0  0.128335  0.146944  0  0.969013  0
H  H17  1  0.41412573  0.17957574  0.81918642  1  0  0.13519  0  0.909202  0  0  0.148751  0  0.967914  0  0  0.151172  0  0.966625  0  0  0.128333  0.146948  0  0.969001  0
C  C18  1  0.71634841  0.34705894  0.45145251  1  0  0.179134  0  3.709793  0  0  0.125712  0  4.006626  0  0  0.136374  0  4.019596  0  0  0.135256  0.118884  0  3.997632  0
C  C19  1  0.21634920  0.15294139  0.04854720  1  0  0.17914  0  3.709816  0  0  0.125722  0  4.006644  0  0  0.136383  0  4.019617  0  0  0.135254  0.118894  0  3.997649  0
C  C20  1  0.28364885  0.65294116  0.54854676  1  0  0.179189  0  3.709786  0  0  0.125766  0  4.006624  0  0  0.136427  0  4.019598  0  0  0.13527  0.118941  0  3.99763  0
C  C21  1  0.78365215  0.84705757  0.95145286  1  0  0.179082  0  3.709919  0  0  0.125666  0  4.006741  0  0  0.136329  0  4.019714  0  0  0.135219  0.118842  0  3.997743  0
C  C22  1  0.07658267  0.30730957  0.35814245  1  0  0.164354  0  3.649209  0  0  0.089112  0  3.915846  0  0  0.102996  0  3.928097  0  0  0.156063  0.080437  0  3.906789  0
C  C23  1  0.57658197  0.19269095  0.14185802  1  0  0.164336  0  3.649153  0  0  0.089088  0  3.9158  0  0  0.102972  0  3.928056  0  0  0.156041  0.080412  0  3.906746  0
C  C24  1  0.92341664  0.69268939  0.64185761  1  0  0.164388  0  3.649061  0  0  0.089147  0  3.915686  0  0  0.10303  0  3.927943  0  0  0.156105  0.080472  0  3.906638  0
C  C25  1  0.42341938  0.80731029  0.85814287  1  0  0.164266  0  3.649181  0  0  0.089056  0  3.915839  0  0  0.102938  0  3.928098  0  0  0.15606  0.08038  0  3.906789  0
C  C26  1  0.11714665  0.56736169  0.27920640  1  0  -0.186691  0  3.59  0  0  -0.25596  0  3.829867  0  0  -0.257858  0  3.835445  0  0  -0.052403  -0.254567  0  3.826111  0
C  C27  1  0.61714709  0.93263691  0.22079383  1  0  -0.186638  0  3.589989  0  0  -0.255945  0  3.829908  0  0  -0.257847  0  3.835491  0  0  -0.052371  -0.254555  0  3.826153  0
C  C28  1  0.88285470  0.43263726  0.72079285  1  0  -0.186523  0  3.589894  0  0  -0.255837  0  3.829826  0  0  -0.257733  0  3.835399  0  0  -0.052358  -0.254442  0  3.826067  0
C  C29  1  0.38285017  0.06736320  0.77920786  1  0  -0.186665  0  3.58987  0  0  -0.255868  0  3.829724  0  0  -0.257763  0  3.835292  0  0  -0.052371  -0.254482  0  3.825979  0
C  C30  1  0.98816853  0.57291407  0.16642340  1  0  0.694891  0  3.875596  0  0  0.64439  0  4.181342  0  0  0.678145  0  4.174375  0  0  0.209349  0.62144  0  4.185492  0
C  C31  1  0.48816865  0.92708517  0.33357695  1  0  0.694874  0  3.87551  0  0  0.644328  0  4.181345  0  0  0.678084  0  4.174375  0  0  0.209312  0.621382  0  4.185493  0
C  C32  1  0.01182873  0.42708602  0.83357587  1  0  0.694793  0  3.875564  0  0  0.644238  0  4.181408  0  0  0.677991  0  4.174446  0  0  0.209315  0.621288  0  4.185561  0
C  C33  1  0.51182657  0.07291494  0.66642393  1  0  0.694835  0  3.875608  0  0  0.644316  0  4.181377  0  0  0.678071  0  4.174413  0  0  0.209339  0.621368  0  4.185531  0
N  N34  1  0.90454317  0.23699866  0.42442634  1  0  -0.414949  0  3.17824  0  0  -0.343617  0  3.471048  0  0  -0.365272  0  3.483966  0  0  -0.348714  -0.328812  0  3.461987  0
N  N35  1  0.40454148  0.26300255  0.07557343  1  0  -0.414938  0  3.178182  0  0  -0.343607  0  3.470986  0  0  -0.365261  0  3.483902  0  0  -0.348691  -0.328803  0  3.461928  0
N  N36  1  0.09545818  0.76300258  0.57557375  1  0  -0.414964  0  3.178219  0  0  -0.343634  0  3.471033  0  0  -0.365289  0  3.48395  0  0  -0.348697  -0.328829  0  3.46198  0
N  N37  1  0.59545987  0.73699754  0.92442423  1  0  -0.414913  0  3.178377  0  0  -0.343585  0  3.471179  0  0  -0.365241  0  3.484098  0  0  -0.348704  -0.32878  0  3.462121  0
N  N38  1  0.99441267  0.45255657  0.34639195  1  0  0.067887  0  3.594567  0  0  0.186266  0  3.779638  0  0  0.177443  0  3.802341  0  0  -0.13184  0.191581  0  3.765062  0
N  N39  1  0.49441207  0.04744337  0.15360784  1  0  0.067893  0  3.594559  0  0  0.186274  0  3.779647  0  0  0.177458  0  3.80234  0  0  -0.131831  0.19159  0  3.765068  0
N  N40  1  0.00558664  0.54744351  0.65360571  1  0  0.067864  0  3.594523  0  0  0.186266  0  3.779591  0  0  0.177447  0  3.80229  0  0  -0.131816  0.191582  0  3.765017  0
N  N41  1  0.50558314  0.95255559  0.84639383  1  0  0.068035  0  3.594396  0  0  0.186297  0  3.779575  0  0  0.177479  0  3.802271  0  0  -0.131819  0.191613  0  3.765002  0
N  N42  1  0.76322185  0.47985930  0.40495974  1  0  -0.258294  0  2.847505  0  0  -0.257602  0  3.12237  0  0  -0.265998  0  3.136737  0  0  -0.216184  -0.251969  0  3.113178  0
N  N43  1  0.26322332  0.02014095  0.09503917  1  0  -0.258278  0  2.84751  0  0  -0.257587  0  3.122373  0  0  -0.265985  0  3.136743  0  0  -0.216169  -0.251955  0  3.113178  0
N  N44  1  0.23677745  0.52014193  0.59503793  1  0  -0.258327  0  2.847459  0  0  -0.257648  0  3.122343  0  0  -0.266046  0  3.136711  0  0  -0.216217  -0.252012  0  3.113148  0
N  N45  1  0.73677395  0.97985915  0.90496091  1  0  -0.258298  0  2.847398  0  0  -0.257583  0  3.122306  0  0  -0.265983  0  3.136675  0  0  -0.216165  -0.25195  0  3.113111  0
O  O46  1  0.13348468  0.62624913  0.09230525  1  0  -0.653741  0  2.010352  0  0  -0.595312  0  2.272874  0  0  -0.621791  0  2.260519  0  0  -0.332622  -0.576861  0  2.281634  0
O  O47  1  0.63348165  0.87375174  0.40769583  1  0  -0.653761  0  2.010363  0  0  -0.595308  0  2.272924  0  0  -0.621788  0  2.260568  0  0  -0.332642  -0.57686  0  2.281684  0
O  O48  1  0.86652485  0.37375440  0.90769488  1  0  -0.653721  0  2.010457  0  0  -0.595269  0  2.273003  0  0  -0.621748  0  2.260649  0  0  -0.332618  -0.576817  0  2.281761  0
O  O49  1  0.36651766  0.12624608  0.59230663  1  0  -0.653741  0  2.010499  0  0  -0.595306  0  2.273075  0  0  -0.621783  0  2.26072  0  0  -0.332627  -0.576853  0  2.281835  0
O  O50  1  0.74127755  0.52858395  0.15870751  1  0  -0.654838  0  2.036138  0  0  -0.589711  0  2.296976  0  0  -0.618579  0  2.286612  0  0  -0.326633  -0.569191  0  2.303386  0
O  O51  1  0.24127749  0.97141563  0.34129277  1  0  -0.654807  0  2.036045  0  0  -0.589676  0  2.296908  0  0  -0.618544  0  2.286544  0  0  -0.326613  -0.569156  0  2.303315  0
O  O52  1  0.25872585  0.47141842  0.84128938  1  0  -0.654813  0  2.036004  0  0  -0.589643  0  2.296825  0  0  -0.618514  0  2.286467  0  0  -0.326646  -0.569124  0  2.303235  0
O  O53  1  0.75872386  0.02858335  0.65871131  1  0  -0.654839  0  2.036038  0  0  -0.589701  0  2.296831  0  0  -0.618573  0  2.28647  0  0  -0.326657  -0.569181  0  2.303241  0
