# generated using pymatgen
data_NaVH16C10(NO)6
_symmetry_space_group_name_H-M   'P 1'
_cell_length_a   7.93711544
_cell_length_b   8.68657069
_cell_length_c   12.18520791
_cell_angle_alpha   102.52467897
_cell_angle_beta   107.52297386
_cell_angle_gamma   103.72861664
_symmetry_Int_Tables_number   1
_chemical_formula_structural   NaVH16C10(NO)6
_chemical_formula_sum   'Na2 V2 H32 C20 N12 O12'
_cell_volume   739.59823417
_cell_formula_units_Z   2
loop_
 _symmetry_equiv_pos_site_id
 _symmetry_equiv_pos_as_xyz
  1  'x, y, z'
loop_
 _atom_site_type_symbol
 _atom_site_label
 _atom_site_symmetry_multiplicity
 _atom_site_fract_x
 _atom_site_fract_y
 _atom_site_fract_z
 _atom_site_occupancy
 _atom_site_hle17_bader_spin_density
 _atom_site_hle17_ddec_charge
 _atom_site_hle17_ddec_spin_density
 _atom_site_hle17_ddec_sum_bond_order
 _atom_site_hle17_magmom
 _atom_site_hse06_10hf_bader_spin_density
 _atom_site_hse06_10hf_ddec_charge
 _atom_site_hse06_10hf_ddec_spin_density
 _atom_site_hse06_10hf_ddec_sum_bond_order
 _atom_site_hse06_10hf_magmom
 _atom_site_hse06_bader_spin_density
 _atom_site_hse06_ddec_charge
 _atom_site_hse06_ddec_spin_density
 _atom_site_hse06_ddec_sum_bond_order
 _atom_site_hse06_magmom
 _atom_site_pbe_bader_spin_density
 _atom_site_pbe_cm5_charge
 _atom_site_pbe_ddec_charge
 _atom_site_pbe_ddec_spin_density
 _atom_site_pbe_ddec_sum_bond_order
 _atom_site_pbe_magmom
Na  Na0  1  0.00420786  0.54720763  0.65590217  1  0  0.882142  0  0.391105  0  0  0.824026  0  0.559965  0  0  0.835881  0  0.535962  0  0  0.686942  0.815512  0  0.576912  0
Na  Na1  1  0.99573653  0.45277342  0.34410153  1  0  0.882221  0  0.391051  0  0  0.824164  0  0.559797  0  0  0.836016  0  0.5358  0  0  0.686929  0.815624  0  0.57679  0
V  V2  1  0.47439197  0.26026103  0.74890499  1  0  1.569768  0  2.845625  0  0  1.586054  0  3.23536  0  0  1.675465  0  3.22885  0  0  1.544979  1.524882  0  3.244072  0
V  V3  1  0.52560182  0.73973248  0.25109546  1  0  1.56949  0  2.845859  0  0  1.585877  0  3.2354  0  0  1.675022  0  3.229341  0  0  1.544853  1.52464  0  3.244343  0
H  H4  1  0.57912274  0.16754133  0.37218560  1  0  0.108142  0  0.952231  0  0  0.11709  0  1.019238  0  0  0.119927  0  1.017901  0  0  0.10794  0.115059  0  1.020215  0
H  H5  1  0.42088724  0.83247459  0.62783873  1  0  0.1082  0  0.952173  0  0  0.11717  0  1.019141  0  0  0.120014  0  1.017793  0  0  0.107953  0.115135  0  1.020121  0
H  H6  1  0.54406916  0.36259479  0.37898233  1  0  0.113798  0  0.9241  0  0  0.129611  0  0.9791  0  0  0.132201  0  0.97813  0  0  0.112793  0.127753  0  0.979874  0
H  H7  1  0.45592349  0.63741368  0.62102188  1  0  0.113827  0  0.92412  0  0  0.129663  0  0.979075  0  0  0.132248  0  0.978116  0  0  0.112818  0.127806  0  0.979849  0
H  H8  1  0.25945445  0.11427336  0.23164250  1  0  0.078117  0  0.949347  0  0  0.098094  0  1.005961  0  0  0.098827  0  1.00665  0  0  0.09858  0.097514  0  1.005601  0
H  H9  1  0.74055240  0.88574134  0.76837282  1  0  0.078083  0  0.949332  0  0  0.098072  0  1.005946  0  0  0.098803  0  1.006628  0  0  0.098611  0.097464  0  1.005623  0
H  H10  1  0.21139796  0.24132900  0.34489995  1  0  0.06745  0  0.962283  0  0  0.079764  0  1.035405  0  0  0.081779  0  1.033885  0  0  0.09378  0.078195  0  1.03667  0
H  H11  1  0.78861373  0.75868444  0.65512022  1  0  0.067415  0  0.962251  0  0  0.07982  0  1.035263  0  0  0.081827  0  1.03374  0  0  0.093788  0.078248  0  1.036531  0
H  H12  1  0.27211954  0.90317998  0.33449626  1  0  0.096106  0  0.955516  0  0  0.098709  0  1.03632  0  0  0.101115  0  1.035339  0  0  0.102138  0.097143  0  1.036834  0
H  H13  1  0.72785003  0.09680854  0.66551185  1  0  0.096172  0  0.955587  0  0  0.098795  0  1.036314  0  0  0.101188  0  1.035363  0  0  0.102183  0.097238  0  1.036826  0
H  H14  1  0.06410801  0.94912174  0.32602352  1  0  0.117464  0  0.922293  0  0  0.131614  0  0.978453  0  0  0.134279  0  0.977447  0  0  0.110377  0.129743  0  0.979257  0
H  H15  1  0.93587514  0.05090046  0.67398755  1  0  0.117441  0  0.922302  0  0  0.131632  0  0.978449  0  0  0.134297  0  0.977437  0  0  0.110384  0.129766  0  0.979261  0
H  H16  1  0.99807200  0.34431362  0.91443594  1  0  0.118643  0  0.92129  0  0  0.134616  0  0.974853  0  0  0.137579  0  0.973267  0  0  0.111223  0.132497  0  0.976064  0
H  H17  1  0.00194423  0.65571981  0.08556443  1  0  0.118554  0  0.921297  0  0  0.134517  0  0.974886  0  0  0.13748  0  0.973305  0  0  0.111161  0.132402  0  0.976097  0
H  H18  1  0.20784825  0.48080081  0.03275753  1  0  0.103265  0  0.951304  0  0  0.107975  0  1.028009  0  0  0.110773  0  1.026526  0  0  0.103978  0.106081  0  1.028925  0
H  H19  1  0.79219803  0.51920264  0.96725139  1  0  0.103216  0  0.95127  0  0  0.107936  0  1.027982  0  0  0.110733  0  1.026508  0  0  0.103984  0.106049  0  1.028895  0
H  H20  1  0.08860446  0.09750897  0.94704190  1  0  0.070263  0  0.930805  0  0  0.091092  0  0.987667  0  0  0.091827  0  0.988145  0  0  0.094436  0.090472  0  0.987464  0
H  H21  1  0.91140493  0.90246959  0.05294202  1  0  0.070242  0  0.930587  0  0  0.090999  0  0.987575  0  0  0.091734  0  0.988062  0  0  0.094406  0.090384  0  0.987362  0
H  H22  1  0.10753920  0.22659310  0.08754495  1  0  0.086887  0  0.933119  0  0  0.105814  0  0.990264  0  0  0.107453  0  0.989731  0  0  0.102684  0.104618  0  0.990701  0
H  H23  1  0.89245554  0.77341792  0.91242723  1  0  0.086958  0  0.933132  0  0  0.105895  0  0.990248  0  0  0.107542  0  0.989713  0  0  0.102686  0.104695  0  0.990696  0
H  H24  1  0.45056032  0.34554624  0.14957354  1  0  0.111214  0  0.94376  0  0  0.118601  0  1.014309  0  0  0.121504  0  1.012909  0  0  0.105527  0.116598  0  1.015241  0
H  H25  1  0.54938320  0.65447599  0.85042737  1  0  0.111082  0  0.943935  0  0  0.118623  0  1.014278  0  0  0.121497  0  1.012888  0  0  0.10555  0.116622  0  1.015213  0
H  H26  1  0.39015725  0.12475049  0.10166140  1  0  0.109607  0  0.94169  0  0  0.121984  0  1.0041  0  0  0.124787  0  1.002174  0  0  0.10693  0.119972  0  1.00558  0
H  H27  1  0.60987324  0.87527174  0.89830962  1  0  0.109825  0  0.941627  0  0  0.12215  0  1.004103  0  0  0.124941  0  1.002172  0  0  0.107024  0.120165  0  1.005554  0
H  H28  1  0.83659572  0.64900148  0.43228119  1  0  0.411141  0  0.900464  0  0  0.382641  0  0.960734  0  0  0.393718  0  0.944357  0  0  0.288989  0.374904  0  0.972151  0
H  H29  1  0.16338569  0.35103073  0.56770648  1  0  0.411224  0  0.900292  0  0  0.382743  0  0.960544  0  0  0.393816  0  0.944171  0  0  0.28903  0.375009  0  0.971954  0
H  H30  1  0.03433144  0.77820431  0.51810758  1  0  0.387569  0  0.937007  0  0  0.34572  0  1.019808  0  0  0.356265  0  1.004783  0  0  0.280324  0.33838  0  1.030245  0
H  H31  1  0.96566068  0.22179168  0.48190935  1  0  0.38748  0  0.937099  0  0  0.345623  0  1.019917  0  0  0.356169  0  1.00489  0  0  0.280252  0.338282  0  1.030353  0
H  H32  1  0.24552808  0.82916269  0.88299571  1  0  0.391289  0  0.92331  0  0  0.351477  0  1.003823  0  0  0.361525  0  0.989375  0  0  0.278401  0.344439  0  1.013919  0
H  H33  1  0.75445413  0.17082086  0.11699930  1  0  0.39147  0  0.92312  0  0  0.351619  0  1.003653  0  0  0.361665  0  0.989208  0  0  0.278443  0.344583  0  1.013747  0
H  H34  1  0.21258337  0.90263103  0.77236274  1  0  0.419627  0  0.876241  0  0  0.391633  0  0.935034  0  0  0.402456  0  0.919025  0  0  0.28969  0.384009  0  0.946295  0
H  H35  1  0.78741810  0.09734753  0.22762293  1  0  0.419614  0  0.876227  0  0  0.391615  0  0.935031  0  0  0.402437  0  0.919023  0  0  0.289702  0.383996  0  0.946286  0
C  C36  1  0.54171620  0.28270717  0.53222720  1  0  0.404808  0  3.756778  0  0  0.382119  0  4.03775  0  0  0.399869  0  4.049714  0  0  0.227989  0.37032  0  4.029335  0
C  C37  1  0.45829005  0.71729505  0.46778442  1  0  0.405  0  3.756509  0  0  0.382408  0  4.037351  0  0  0.400174  0  4.049294  0  0  0.228077  0.370565  0  4.02896  0
C  C38  1  0.49862236  0.24579762  0.39895422  1  0  -0.212826  0  3.644819  0  0  -0.24787  0  3.889696  0  0  -0.25207  0  3.898772  0  0  -0.145121  -0.244862  0  3.883326  0
C  C39  1  0.50137295  0.75421085  0.60105543  1  0  -0.212869  0  3.644588  0  0  -0.247998  0  3.889562  0  0  -0.252204  0  3.898629  0  0  -0.145239  -0.244973  0  3.883188  0
C  C40  1  0.28839310  0.15475549  0.32889705  1  0  -0.074043  0  3.647499  0  0  -0.116727  0  3.900256  0  0  -0.116976  0  3.912603  0  0  -0.155026  -0.116332  0  3.891695  0
C  C41  1  0.71160083  0.84524549  0.67111608  1  0  -0.074116  0  3.647124  0  0  -0.11685  0  3.899904  0  0  -0.117088  0  3.912253  0  0  -0.155081  -0.116427  0  3.891346  0
C  C42  1  0.21703349  0.00187658  0.36635095  1  0  -0.203886  0  3.645249  0  0  -0.237162  0  3.891781  0  0  -0.240944  0  3.90024  0  0  -0.147098  -0.234561  0  3.885974  0
C  C43  1  0.78295478  0.99813064  0.63366124  1  0  -0.203905  0  3.645174  0  0  -0.237228  0  3.891867  0  0  -0.241007  0  3.900309  0  0  -0.147117  -0.234665  0  3.886088  0
C  C44  1  0.27798593  0.04912752  0.50118658  1  0  0.395406  0  3.758025  0  0  0.367091  0  4.04339  0  0  0.385792  0  4.05372  0  0  0.225607  0.354697  0  4.036102  0
C  C45  1  0.72201510  0.95087844  0.49883036  1  0  0.395376  0  3.75798  0  0  0.366975  0  4.043468  0  0  0.38567  0  4.053792  0  0  0.225507  0.354601  0  4.03615  0
C  C46  1  0.24317116  0.36067280  0.87335575  1  0  0.407766  0  3.762776  0  0  0.384974  0  4.047609  0  0  0.403158  0  4.058316  0  0  0.224715  0.372883  0  4.04005  0
C  C47  1  0.75683247  0.63934069  0.12663004  1  0  0.407738  0  3.76278  0  0  0.384875  0  4.047699  0  0  0.403079  0  4.058387  0  0  0.224652  0.37278  0  4.040123  0
C  C48  1  0.14567346  0.35945375  0.96099510  1  0  -0.209174  0  3.639137  0  0  -0.242709  0  3.881093  0  0  -0.246708  0  3.88959  0  0  -0.145563  -0.239812  0  3.875054  0
C  C49  1  0.85433641  0.64056597  0.03899451  1  0  -0.209064  0  3.639265  0  0  -0.242629  0  3.881354  0  0  -0.246636  0  3.88988  0  0  -0.145554  -0.239749  0  3.87533  0
C  C50  1  0.16737060  0.21949281  0.01700647  1  0  -0.073979  0  3.636671  0  0  -0.116921  0  3.891518  0  0  -0.11683  0  3.903258  0  0  -0.156156  -0.116791  0  3.883328  0
C  C51  1  0.83263269  0.78049450  0.98297024  1  0  -0.073984  0  3.636631  0  0  -0.11686  0  3.891437  0  0  -0.1168  0  3.903191  0  0  -0.156156  -0.116725  0  3.883251  0
C  C52  1  0.37402278  0.23202093  0.07095007  1  0  -0.22111  0  3.661489  0  0  -0.257225  0  3.911539  0  0  -0.261321  0  3.920469  0  0  -0.151066  -0.25435  0  3.905371  0
C  C53  1  0.62597709  0.76800752  0.92904388  1  0  -0.221299  0  3.661021  0  0  -0.257406  0  3.911214  0  0  -0.26142  0  3.92009  0  0  -0.151134  -0.254555  0  3.905032  0
C  C54  1  0.45945109  0.23878148  0.97752358  1  0  0.390838  0  3.770823  0  0  0.364479  0  4.054666  0  0  0.382418  0  4.066455  0  0  0.22272  0.352562  0  4.046415  0
C  C55  1  0.54054477  0.76127564  0.02248720  1  0  0.390791  0  3.770532  0  0  0.364194  0  4.054728  0  0  0.382113  0  4.066505  0  0  0.222532  0.352284  0  4.046444  0
N  N56  1  0.43213567  0.18377798  0.57445647  1  0  -0.580209  0  3.311934  0  0  -0.551719  0  3.60928  0  0  -0.580617  0  3.630809  0  0  -0.47306  -0.532248  0  3.594216  0
N  N57  1  0.56785042  0.81623049  0.42555549  1  0  -0.580151  0  3.311824  0  0  -0.551667  0  3.609128  0  0  -0.580524  0  3.630664  0  0  -0.472922  -0.532183  0  3.594097  0
N  N58  1  0.67951691  0.40779709  0.61710590  1  0  -0.273144  0  2.859795  0  0  -0.252094  0  3.162228  0  0  -0.256891  0  3.167518  0  0  -0.317285  -0.249134  0  3.158601  0
N  N59  1  0.32051524  0.59216021  0.38290621  1  0  -0.273353  0  2.858417  0  0  -0.252334  0  3.160709  0  0  -0.257131  0  3.165968  0  0  -0.317187  -0.24934  0  3.15706  0
N  N60  1  0.19231410  0.97100594  0.55887240  1  0  -0.209279  0  2.956393  0  0  -0.173283  0  3.239215  0  0  -0.18066  0  3.24745  0  0  -0.229998  -0.168614  0  3.233559  0
N  N61  1  0.80766500  0.02894020  0.44111042  1  0  -0.209415  0  2.957628  0  0  -0.173346  0  3.240462  0  0  -0.180725  0  3.2487  0  0  -0.230152  -0.168669  0  3.234767  0
N  N62  1  0.39301109  0.30381229  0.88761605  1  0  -0.569287  0  3.295635  0  0  -0.544406  0  3.596858  0  0  -0.573082  0  3.618636  0  0  -0.474678  -0.525074  0  3.581673  0
N  N63  1  0.60704964  0.69625976  0.11240227  1  0  -0.569317  0  3.295164  0  0  -0.544341  0  3.596478  0  0  -0.572981  0  3.618261  0  0  -0.474615  -0.525005  0  3.58132  0
N  N64  1  0.19378438  0.40991884  0.77850072  1  0  -0.276554  0  2.861631  0  0  -0.262442  0  3.162142  0  0  -0.267223  0  3.167683  0  0  -0.310163  -0.259494  0  3.158259  0
N  N65  1  0.80623882  0.59001110  0.22144875  1  0  -0.276657  0  2.860525  0  0  -0.262546  0  3.161041  0  0  -0.267338  0  3.166567  0  0  -0.310371  -0.259581  0  3.157134  0
N  N66  1  0.59471939  0.17988080  0.97093392  1  0  -0.216139  0  2.880298  0  0  -0.184349  0  3.167556  0  0  -0.190629  0  3.174863  0  0  -0.230755  -0.180351  0  3.162554  0
N  N67  1  0.40525546  0.82010772  0.02907439  1  0  -0.216163  0  2.881479  0  0  -0.184275  0  3.168857  0  0  -0.19056  0  3.17617  0  0  -0.230805  -0.180261  0  3.163809  0
O  O68  1  0.67320099  0.40268124  0.73000593  1  0  -0.463479  0  1.985306  0  0  -0.445367  0  2.273926  0  0  -0.472704  0  2.279729  0  0  -0.306582  -0.426635  0  2.269685  0
O  O69  1  0.32690070  0.59732220  0.26999733  1  0  -0.463284  0  1.985075  0  0  -0.445147  0  2.273642  0  0  -0.472445  0  2.279492  0  0  -0.306555  -0.426401  0  2.269398  0
O  O70  1  0.28298814  0.04777242  0.68393720  1  0  -0.495639  0  2.02286  0  0  -0.470298  0  2.295767  0  0  -0.49871  0  2.303275  0  0  -0.296274  -0.450599  0  2.290484  0
O  O71  1  0.71704002  0.95217738  0.31608773  1  0  -0.495144  0  2.02394  0  0  -0.469853  0  2.296867  0  0  -0.498215  0  2.304414  0  0  -0.295963  -0.450157  0  2.291604  0
O  O72  1  0.31475776  0.39124141  0.71585903  1  0  -0.508984  0  2.075266  0  0  -0.475261  0  2.352328  0  0  -0.504308  0  2.359623  0  0  -0.305422  -0.455096  0  2.347054  0
O  O73  1  0.68522868  0.60868849  0.28413336  1  0  -0.509035  0  2.073514  0  0  -0.475275  0  2.350436  0  0  -0.504284  0  2.357754  0  0  -0.305237  -0.455096  0  2.34519  0
O  O74  1  0.63196580  0.20002957  0.86893154  1  0  -0.460808  0  1.965149  0  0  -0.446762  0  2.250538  0  0  -0.473966  0  2.256638  0  0  -0.303672  -0.428105  0  2.246138  0
O  O75  1  0.36798284  0.79994903  0.13104387  1  0  -0.460682  0  1.965613  0  0  -0.446648  0  2.250947  0  0  -0.473801  0  2.25708  0  0  -0.303487  -0.427988  0  2.246567  0
O  O76  1  0.95069125  0.66168163  0.49984025  1  0  -0.918721  0  1.804689  0  0  -0.865908  0  1.996193  0  0  -0.883297  0  1.962229  0  0  -0.710002  -0.853568  0  2.019723  0
O  O77  1  0.04927449  0.33832188  0.50015960  1  0  -0.918627  0  1.804805  0  0  -0.865833  0  1.996263  0  0  -0.883219  0  1.962302  0  0  -0.709932  -0.853497  0  2.019794  0
O  O78  1  0.15832209  0.81170652  0.80011625  1  0  -0.874134  0  1.751848  0  0  -0.824861  0  1.918836  0  0  -0.84184  0  1.886506  0  0  -0.66292  -0.812798  0  1.941368  0
O  O79  1  0.84166855  0.18828576  0.19987191  1  0  -0.874268  0  1.751579  0  0  -0.824943  0  1.918672  0  0  -0.841914  0  1.886333  0  0  -0.662915  -0.812877  0  1.941201  0
