# generated using pymatgen
data_CuH8(C3N)4
_symmetry_space_group_name_H-M   'P 1'
_cell_length_a   8.96810857
_cell_length_b   15.25581534
_cell_length_c   15.25065623
_cell_angle_alpha   120.01110265
_cell_angle_beta   90.09844450
_cell_angle_gamma   90.00023101
_symmetry_Int_Tables_number   1
_chemical_formula_structural   CuH8(C3N)4
_chemical_formula_sum   'Cu6 H48 C72 N24'
_cell_volume   1806.78296991
_cell_formula_units_Z   6
loop_
 _symmetry_equiv_pos_site_id
 _symmetry_equiv_pos_as_xyz
  1  'x, y, z'
loop_
 _atom_site_type_symbol
 _atom_site_label
 _atom_site_symmetry_multiplicity
 _atom_site_fract_x
 _atom_site_fract_y
 _atom_site_fract_z
 _atom_site_occupancy
 _atom_site_hle17_ddec_charge
 _atom_site_hle17_ddec_spin_density
 _atom_site_hle17_ddec_sum_bond_order
 _atom_site_hle17_magmom
 _atom_site_hse06_10hf_ddec_charge
 _atom_site_hse06_10hf_ddec_spin_density
 _atom_site_hse06_10hf_ddec_sum_bond_order
 _atom_site_hse06_10hf_magmom
 _atom_site_hse06_ddec_charge
 _atom_site_hse06_ddec_spin_density
 _atom_site_hse06_ddec_sum_bond_order
 _atom_site_hse06_magmom
 _atom_site_pbe_cm5_charge
 _atom_site_pbe_ddec_charge
 _atom_site_pbe_ddec_spin_density
 _atom_site_pbe_ddec_sum_bond_order
 _atom_site_pbe_magmom
Cu  Cu0  1  0.25000129  0.24807521  0.00000046  1  0.698885  0.627803  1.978946  0.434  0.671639  0.761151  2.360767  0.578  0.749136  0.853047  2.306625  0.662  0.775135  0.624102  0.65946  2.397376  0.496
Cu  Cu1  1  0.25072533  0.99994637  0.24762477  1  0.696801  -0.624219  1.97936  -0.447  0.672532  -0.749993  2.360623  -0.585  0.750542  -0.824603  2.30594  -0.666  0.773844  0.624043  -0.679325  2.398679  -0.519
Cu  Cu2  1  0.24927314  0.75231961  0.75237290  1  0.69685  -0.624173  1.979253  -0.447  0.6726  -0.749989  2.360516  -0.585  0.750617  -0.824604  2.305822  -0.666  0.773839  0.624101  -0.679318  2.398579  -0.519
Cu  Cu3  1  0.74999832  0.75192550  0.00000097  1  0.69898  0.627809  1.978864  0.434  0.671626  0.761149  2.360812  0.578  0.749165  0.853031  2.306597  0.662  0.775144  0.624105  0.659457  2.397397  0.496
Cu  Cu4  1  0.74927257  0.00005285  0.75237327  1  0.696829  -0.624173  1.979259  -0.447  0.672602  -0.74999  2.360515  -0.585  0.750596  -0.824608  2.305795  -0.666  0.773832  0.624102  -0.679322  2.398574  -0.519
Cu  Cu5  1  0.75072810  0.24767809  0.24762701  1  0.6969  -0.624216  1.979227  -0.447  0.672641  -0.749995  2.360489  -0.585  0.75065  -0.824604  2.30579  -0.666  0.773851  0.624142  -0.679323  2.398562  -0.519
H  H6  1  0.84776632  0.40001166  0.84512780  1  0.089632  0.000154  0.942169  0.0  0.103379  1.5e-05  0.995189  0.0  0.106458  1.2e-05  0.994011  0.0  0.100156  0.101251  2.2e-05  0.995988  0.0
H  H7  1  0.84770664  0.15458704  0.55476417  1  0.090139  0.000215  0.941552  0.0  0.103868  3e-06  0.994658  0.0  0.106979  -4e-06  0.993444  0.0  0.100209  0.101639  1.3e-05  0.995568  0.0
H  H8  1  0.84801681  0.44473801  0.59943926  1  0.089972  -0.000145  0.942062  0.0  0.103878  -1.4e-05  0.994871  0.0  0.106996  -1.1e-05  0.993658  0.0  0.100479  0.101648  -1.9e-05  0.995787  0.0
H  H9  1  0.65197404  0.84529791  0.40056006  1  0.089975  -0.000144  0.942048  0.0  0.10385  -1.4e-05  0.994888  0.0  0.106968  -1e-05  0.993675  0.0  0.100462  0.10162  -1.9e-05  0.995804  0.0
H  H10  1  0.65223232  0.55489229  0.15487792  1  0.089623  0.000152  0.942132  0.0  0.103373  1.5e-05  0.99515  0.0  0.10645  1.2e-05  0.993973  0.0  0.100179  0.101246  2.2e-05  0.995949  0.0
H  H11  1  0.65229687  0.59982235  0.44523225  1  0.090215  0.000215  0.941496  0.0  0.103922  3e-06  0.994626  0.0  0.107033  -4e-06  0.993417  0.0  0.100236  0.101693  1.3e-05  0.995537  0.0
H  H12  1  0.15222824  0.59998907  0.15487426  1  0.089641  0.000151  0.942161  0.0  0.103383  1.6e-05  0.995179  0.0  0.106462  1.2e-05  0.994001  0.0  0.100169  0.101256  2.2e-05  0.995978  0.0
H  H13  1  0.15229571  0.84540915  0.44523235  1  0.090184  0.000215  0.941509  0.0  0.103895  3e-06  0.994635  0.0  0.106999  -4e-06  0.993436  0.0  0.100238  0.101665  1.3e-05  0.995545  0.0
H  H14  1  0.15197885  0.55526197  0.40055718  1  0.09003  -0.000142  0.942058  0.0  0.103921  -1.4e-05  0.994872  0.0  0.10704  -1e-05  0.993659  0.0  0.100494  0.101691  -1.9e-05  0.99579  0.0
H  H15  1  0.34801494  0.15470433  0.59944080  1  0.090003  -0.000144  0.942062  0.0  0.10391  -1.4e-05  0.99486  0.0  0.107029  -1.1e-05  0.993648  0.0  0.100487  0.101682  -1.9e-05  0.995775  0.0
H  H16  1  0.34777228  0.44510996  0.84512622  1  0.089638  0.000152  0.942195  0.0  0.103383  1.5e-05  0.995213  0.0  0.106461  1.2e-05  0.994034  0.0  0.100176  0.101256  2.2e-05  0.996012  0.0
H  H17  1  0.34770660  0.40017839  0.55476720  1  0.090181  0.000215  0.941515  0.0  0.103904  3e-06  0.994633  0.0  0.107005  -4e-06  0.993434  0.0  0.100221  0.101675  1.3e-05  0.995545  0.0
H  H18  1  0.11662157  0.41843818  0.08827925  1  0.083365  -6.9e-05  1.008329  0.0  0.08668  -0.000105  1.083161  0.0  0.089819  -0.000182  1.080713  0.0  0.091254  0.084164  -1.7e-05  1.085409  0.0
H  H19  1  0.11608082  0.91204178  0.33016753  1  0.083403  0.000381  1.007424  0.0  0.086608  0.000115  1.082396  0.0  0.08962  0.000197  1.080131  0.0  0.091188  0.084144  2.2e-05  1.084556  0.0
H  H20  1  0.11566930  0.67022068  0.58213909  1  0.083433  0.000191  1.006009  0.0  0.086926  0.000128  1.080738  0.0  0.089903  0.00022  1.078401  0.0  0.091125  0.084593  2.2e-05  1.082819  0.0
H  H21  1  0.38432577  0.08808300  0.41785971  1  0.08351  0.000193  1.005983  0.0  0.087027  0.000128  1.080677  0.0  0.089993  0.00022  1.078345  0.0  0.091164  0.084712  2.3e-05  1.082745  0.0
H  H22  1  0.38338239  0.33016215  0.91172571  1  0.083334  -7.1e-05  1.008334  0.0  0.086622  -0.000105  1.083198  0.0  0.08976  -0.000182  1.08075  0.0  0.091234  0.08411  -1.6e-05  1.085439  0.0
H  H23  1  0.38391565  0.58187814  0.66982965  1  0.08347  0.00038  1.00739  0.0  0.086661  0.000115  1.082371  0.0  0.089671  0.000197  1.080106  0.0  0.091182  0.084178  2.2e-05  1.084548  0.0
H  H24  1  0.88337521  0.58155877  0.91172158  1  0.08332  -7.1e-05  1.008311  0.0  0.086627  -0.000105  1.083159  0.0  0.089766  -0.000182  1.080713  0.0  0.091243  0.084114  -1.6e-05  1.085405  0.0
H  H25  1  0.88391930  0.08795289  0.66982823  1  0.083376  0.00038  1.007422  0.0  0.086577  0.000115  1.082403  0.0  0.089588  0.000197  1.080137  0.0  0.09118  0.084113  2.2e-05  1.084563  0.0
H  H26  1  0.88432748  0.32977930  0.41785932  1  0.083428  0.000193  1.006033  0.0  0.086943  0.000128  1.080737  0.0  0.089906  0.00022  1.078411  0.0  0.091117  0.08462  2.2e-05  1.082807  0.0
H  H27  1  0.61566321  0.91192227  0.58214135  1  0.083412  0.000192  1.00596  0.0  0.086876  0.000128  1.080734  0.0  0.089874  0.00022  1.078378  0.0  0.091105  0.084542  2.3e-05  1.082819  0.0
H  H28  1  0.61662220  0.66984161  0.08827657  1  0.083345  -7.1e-05  1.008343  0.0  0.086673  -0.000105  1.083163  0.0  0.08979  -0.000182  1.080739  0.0  0.091261  0.084157  -1.6e-05  1.085412  0.0
H  H29  1  0.61608448  0.41812562  0.33017196  1  0.083434  0.000382  1.007397  0.0  0.086624  0.000115  1.082383  0.0  0.089636  0.000197  1.080117  0.0  0.091193  0.084152  2.2e-05  1.08455  0.0
H  H30  1  0.72908292  0.24739964  0.84969631  1  0.109168  0.000899  0.954202  0.001  0.119432  0.000471  1.013394  0.0  0.121415  0.00039  1.013043  0.0  0.115434  0.117789  0.000488  1.013845  0.0
H  H31  1  0.72895885  0.14863372  0.39589486  1  0.108273  -0.000244  0.95512  -0.001  0.118908  -0.000789  1.014219  -0.001  0.12088  -0.000601  1.013879  -0.001  0.114748  0.117297  -0.000893  1.014619  -0.001
H  H32  1  0.72921708  0.60170156  0.75251487  1  0.108232  -0.000848  0.954656  -0.001  0.118933  -0.000471  1.013401  0.0  0.120923  -0.000389  1.013037  0.0  0.11506  0.117268  -0.000502  1.013912  -0.001
H  H33  1  0.77077991  0.84919505  0.24749028  1  0.10819  -0.000848  0.95485  -0.001  0.118958  -0.000471  1.013513  0.0  0.120946  -0.000389  1.013155  0.0  0.115077  0.117294  -0.000502  1.014022  -0.001
H  H34  1  0.77091577  0.39770853  0.15030808  1  0.109188  0.000901  0.954189  0.001  0.119458  0.000471  1.013361  0.0  0.121439  0.00039  1.013014  0.0  0.115445  0.117816  0.000488  1.013811  0.0
H  H35  1  0.77104406  0.75274285  0.60410357  1  0.108271  -0.000244  0.955148  -0.001  0.118881  -0.000789  1.014272  -0.001  0.120849  -0.000601  1.013948  -0.001  0.114747  0.117271  -0.000893  1.014671  -0.001
H  H36  1  0.27091386  0.75259806  0.15030096  1  0.109189  0.0009  0.954225  0.001  0.119454  0.000471  1.013408  0.0  0.121438  0.00039  1.013056  0.0  0.115471  0.117813  0.000488  1.013856  0.0
H  H37  1  0.27104909  0.85137005  0.60410939  1  0.10831  -0.000243  0.955085  -0.001  0.118942  -0.000789  1.014185  -0.001  0.120912  -0.000601  1.013851  -0.001  0.114779  0.117331  -0.000893  1.014585  -0.001
H  H38  1  0.27078528  0.39829463  0.24748756  1  0.108185  -0.000848  0.954757  -0.001  0.118938  -0.000471  1.013442  0.0  0.120928  -0.000389  1.013079  0.0  0.115084  0.117274  -0.000502  1.013951  -0.001
H  H39  1  0.22921243  0.15081250  0.75251585  1  0.108219  -0.000848  0.954659  -0.001  0.118958  -0.000471  1.013363  0.0  0.120949  -0.000389  1.012996  0.0  0.115071  0.117292  -0.000502  1.013876  -0.001
H  H40  1  0.22908882  0.60228993  0.84969155  1  0.109228  0.0009  0.954279  0.001  0.119492  0.000471  1.01345  0.0  0.121473  0.00039  1.013102  0.0  0.115452  0.11785  0.000488  1.013899  0.0
H  H41  1  0.22895942  0.24726015  0.39589702  1  0.108318  -0.000245  0.955141  -0.001  0.118952  -0.000789  1.014231  -0.001  0.12092  -0.000601  1.013906  -0.001  0.114772  0.117341  -0.000893  1.01463  -0.001
H  H42  1  0.06439231  0.06035754  0.86204910  1  0.076833  0.000591  0.962655  0.001  0.082389  0.000234  1.033395  0.0  0.083351  0.000197  1.032006  0.0  0.121795  0.08157  0.000247  1.034432  0.0
H  H43  1  0.06605427  0.13719992  0.19834486  1  0.075723  0.000588  0.962099  0.0  0.081255  -4.6e-05  1.032884  0.0  0.082391  2e-06  1.031313  0.0  0.1212  0.080115  -8.4e-05  1.034206  0.0
H  H44  1  0.06457910  0.80165512  0.93966175  1  0.076564  -0.000573  0.962666  -0.001  0.082285  -0.000166  1.033128  0.0  0.083306  -0.000116  1.031652  0.0  0.121806  0.081351  -0.000203  1.034313  0.0
H  H45  1  0.43541795  0.86199096  0.06033699  1  0.076578  -0.000573  0.962644  -0.001  0.082272  -0.000166  1.033143  0.0  0.083293  -0.000116  1.031667  0.0  0.1218  0.081339  -0.000203  1.034328  0.0
H  H46  1  0.43560886  0.19830754  0.13794957  1  0.076842  0.00059  0.962599  0.001  0.082408  0.000234  1.033331  0.0  0.083371  0.000197  1.031941  0.0  0.121796  0.081589  0.000247  1.034369  0.0
H  H47  1  0.43394635  0.93885296  0.80165384  1  0.075737  0.000589  0.962119  0.0  0.081288  -4.6e-05  1.03288  0.0  0.082424  2e-06  1.03131  0.0  0.121214  0.080147  -8.5e-05  1.034201  0.0
H  H48  1  0.93560559  0.93964092  0.13795052  1  0.07679  0.000591  0.96272  0.001  0.082396  0.000234  1.033397  0.0  0.08336  0.000197  1.032007  0.0  0.121802  0.081576  0.000247  1.034436  0.0
H  H49  1  0.93394585  0.86279703  0.80165007  1  0.075766  0.000589  0.962077  0.0  0.081259  -4.6e-05  1.032903  0.0  0.082395  2e-06  1.031332  0.0  0.121221  0.080118  -8.5e-05  1.034224  0.0
H  H50  1  0.93542103  0.19834637  0.06033676  1  0.076606  -0.00057  0.962584  -0.001  0.082294  -0.000166  1.033101  0.0  0.083315  -0.000116  1.031625  0.0  0.121812  0.08136  -0.000203  1.034286  0.0
H  H51  1  0.56457995  0.13800902  0.93966011  1  0.076601  -0.000571  0.962625  -0.001  0.082301  -0.000166  1.033117  0.0  0.083322  -0.000116  1.031641  0.0  0.121817  0.081368  -0.000203  1.034302  0.0
H  H52  1  0.56438904  0.80169244  0.86205081  1  0.076801  0.000592  0.962601  0.001  0.082367  0.000234  1.033341  0.0  0.08333  0.000197  1.03195  0.0  0.121766  0.081548  0.000247  1.034379  0.0
H  H53  1  0.56605266  0.06114399  0.19834634  1  0.075745  0.000587  0.962083  0.0  0.081267  -4.6e-05  1.032882  0.0  0.082404  2e-06  1.031311  0.0  0.121202  0.080126  -8.5e-05  1.034203  0.0
C  C54  1  0.97995904  0.39409934  0.96075267  1  0.040252  -0.008636  3.813436  -0.008  0.049849  -0.000799  4.053239  -0.001  0.04969  -0.000395  4.077749  0.0  -0.012457  0.050107  -0.001486  4.036406  -0.001
C  C55  1  0.97974159  0.03914457  0.43339088  1  0.041783  -0.009017  3.812831  -0.008  0.050377  -0.001155  4.053888  -0.001  0.050205  -0.000619  4.078423  -0.001  -0.012506  0.050709  -0.001976  4.036903  -0.002
C  C56  1  0.97959172  0.56657257  0.60585340  1  0.039441  0.007562  3.812708  0.006  0.049434  0.000747  4.051995  0.001  0.049331  0.000397  4.076446  0.0  -0.012804  0.049582  0.001278  4.035185  0.001
C  C57  1  0.52040441  0.96072090  0.39414698  1  0.039451  0.007589  3.812697  0.006  0.049449  0.000747  4.05196  0.001  0.049348  0.000395  4.07641  0.0  -0.012772  0.049597  0.001278  4.035154  0.001
C  C58  1  0.52003916  0.43335237  0.03925419  1  0.040205  -0.008663  3.813308  -0.008  0.049778  -0.000799  4.053129  -0.001  0.049613  -0.000396  4.077636  0.0  -0.012545  0.050035  -0.001486  4.036298  -0.001
C  C59  1  0.52026155  0.60575470  0.56660869  1  0.041715  -0.009027  3.812868  -0.008  0.05033  -0.001155  4.053886  -0.001  0.050159  -0.000619  4.078419  -0.001  -0.012491  0.050662  -0.001974  4.036898  -0.002
C  C60  1  0.02003663  0.60589988  0.03924864  1  0.040257  -0.008676  3.813407  -0.008  0.049826  -0.000798  4.053245  -0.001  0.049665  -0.000396  4.077754  0.0  -0.012488  0.050085  -0.001486  4.036417  -0.001
C  C61  1  0.02026299  0.96085389  0.56660677  1  0.041596  -0.00903  3.812966  -0.008  0.050228  -0.001156  4.05398  -0.001  0.050053  -0.000618  4.078513  -0.001  -0.012505  0.05056  -0.001975  4.036993  -0.002
C  C62  1  0.02041064  0.43342741  0.39414632  1  0.039477  0.007602  3.812754  0.006  0.049478  0.000746  4.052016  0.001  0.049379  0.000399  4.076467  0.0  -0.012791  0.049626  0.001278  4.035209  0.001
C  C63  1  0.47958903  0.03928513  0.60585314  1  0.03958  0.007584  3.812565  0.006  0.04957  0.000747  4.051852  0.001  0.04947  0.000398  4.07631  0.0  -0.012751  0.049718  0.001278  4.035041  0.001
C  C64  1  0.47996432  0.56664912  0.96074891  1  0.040285  -0.00866  3.813311  -0.008  0.049845  -0.000799  4.053162  -0.001  0.049684  -0.000396  4.077665  0.0  -0.012548  0.050105  -0.001487  4.036331  -0.001
C  C65  1  0.47974527  0.39424679  0.43339442  1  0.04172  -0.009015  3.812889  -0.008  0.050324  -0.001156  4.053921  -0.001  0.050152  -0.000617  4.078453  -0.001  -0.012495  0.050656  -0.001975  4.036936  -0.002
C  C66  1  0.91364395  0.44366613  0.91382203  1  -0.099479  -0.001443  3.754642  -0.001  -0.115657  -0.000275  3.997299  0.0  -0.118119  -0.000192  4.018979  0.0  -0.0906  -0.113741  -0.000456  3.98213  0.0
C  C67  1  0.91361049  0.08606047  0.52982598  1  -0.099958  -0.003544  3.753787  -0.003  -0.116623  -0.000584  3.997562  0.0  -0.119066  -0.000267  4.019141  0.0  -0.090956  -0.114731  -0.001079  3.982535  -0.001
C  C68  1  0.91384726  0.46988774  0.55601351  1  -0.099697  0.001487  3.753329  0.001  -0.115225  0.000247  3.995058  0.0  -0.117647  0.000188  4.016601  0.0  -0.09057  -0.113369  0.000325  3.980092  0.0
C  C69  1  0.58615060  0.91387484  0.44398498  1  -0.099733  0.001459  3.753341  0.001  -0.115233  0.000247  3.995028  0.0  -0.117657  0.000189  4.016582  0.0  -0.090545  -0.113375  0.000325  3.980057  0.0
C  C70  1  0.58635475  0.52984904  0.08618267  1  -0.099426  -0.001413  3.754468  -0.001  -0.115589  -0.000275  3.997134  0.0  -0.118049  -0.000192  4.018808  0.0  -0.090575  -0.113675  -0.000457  3.981966  0.0
C  C71  1  0.58639711  0.55623509  0.47017420  1  -0.10002  -0.003529  3.753729  -0.003  -0.116682  -0.000583  3.997516  0.0  -0.119127  -0.000267  4.019099  0.0  -0.090952  -0.114789  -0.00108  3.982487  -0.001
C  C72  1  0.08635061  0.55633385  0.08617900  1  -0.099431  -0.001396  3.754613  -0.001  -0.115589  -0.000276  3.997269  0.0  -0.118049  -0.000191  4.018944  0.0  -0.090608  -0.113675  -0.000457  3.9821  0.0
C  C73  1  0.08639521  0.91393799  0.47017234  1  -0.099834  -0.003529  3.753716  -0.003  -0.1165  -0.000582  3.997475  0.0  -0.118939  -0.000268  4.019062  0.0  -0.090918  -0.114608  -0.00108  3.982447  -0.001
C  C74  1  0.08615287  0.53011148  0.44398518  1  -0.099833  0.001438  3.753515  0.001  -0.11536  0.000247  3.995241  0.0  -0.117785  0.000186  4.016789  0.0  -0.09058  -0.113503  0.000325  3.980273  0.0
C  C75  1  0.41384729  0.08612816  0.55601363  1  -0.099872  0.001464  3.753519  0.001  -0.1154  0.000247  3.995255  0.0  -0.117826  0.000187  4.016802  0.0  -0.090603  -0.113544  0.000325  3.98029  0.0
C  C76  1  0.41364761  0.47015321  0.91382016  1  -0.099452  -0.001417  3.754603  -0.001  -0.11561  -0.000276  3.997254  0.0  -0.11807  -0.000191  4.01893  0.0  -0.090546  -0.113698  -0.000456  3.982088  0.0
C  C77  1  0.41361195  0.44376716  0.52982929  1  -0.09994  -0.003544  3.753756  -0.003  -0.116612  -0.000583  3.997529  0.0  -0.119046  -0.000268  4.019112  0.0  -0.090947  -0.11472  -0.00108  3.9825  -0.001
C  C78  1  0.06678877  0.45309900  0.04789695  1  -0.11215  -0.003633  3.757392  -0.003  -0.134702  -0.000826  4.016179  -0.001  -0.138003  -0.000672  4.037498  -0.001  -0.099814  -0.13237  -0.001062  4.001852  -0.001
C  C79  1  0.06651073  0.95218205  0.40522284  1  -0.111587  -0.002267  3.757094  -0.001  -0.134256  -0.000377  4.016843  0.0  -0.137455  7e-06  4.038232  0.0  -0.099488  -0.131999  -0.000884  4.002507  -0.001
C  C80  1  0.06620645  0.59501926  0.54720672  1  -0.112665  0.003285  3.757543  0.003  -0.134725  0.000793  4.015506  0.001  -0.137954  0.000685  4.036926  0.001  -0.099184  -0.132388  0.000928  4.001054  0.001
C  C81  1  0.43379157  0.04781604  0.45279268  1  -0.112723  0.003254  3.757494  0.003  -0.134815  0.000793  4.015459  0.001  -0.138033  0.000687  4.036888  0.001  -0.099234  -0.132494  0.000928  4.000994  0.001
C  C82  1  0.43321111  0.40520597  0.95210839  1  -0.112017  -0.003605  3.757377  -0.003  -0.13454  -0.000826  4.01616  -0.001  -0.137841  -0.000672  4.037483  -0.001  -0.099748  -0.132209  -0.001063  4.00183  -0.001
C  C83  1  0.43349245  0.54696118  0.59477716  1  -0.111677  -0.00225  3.757176  -0.001  -0.13434  -0.000377  4.01693  0.0  -0.137537  7e-06  4.038317  0.0  -0.099534  -0.132067  -0.000885  4.002606  -0.001
C  C84  1  0.93320578  0.54689870  0.95210492  1  -0.112035  -0.003584  3.757297  -0.003  -0.134561  -0.000827  4.016085  -0.001  -0.137864  -0.000671  4.037407  -0.001  -0.099798  -0.132231  -0.001062  4.001758  -0.001
C  C85  1  0.93349497  0.04781641  0.59477548  1  -0.111524  -0.002249  3.757094  -0.001  -0.134201  -0.000376  4.016845  0.0  -0.137397  6e-06  4.038235  0.0  -0.099497  -0.131944  -0.000886  4.002506  -0.001
C  C86  1  0.93379256  0.40497996  0.45279132  1  -0.112768  0.003235  3.757492  0.003  -0.134852  0.000793  4.015457  0.001  -0.13807  0.000684  4.036887  0.001  -0.099197  -0.132522  0.000928  4.001  0.001
C  C87  1  0.56620521  0.95219075  0.54720717  1  -0.112711  0.003261  3.757315  0.003  -0.134754  0.000793  4.0153  0.001  -0.138002  0.000684  4.036706  0.001  -0.099185  -0.132417  0.000928  4.000845  0.001
C  C88  1  0.56679237  0.59479628  0.04789510  1  -0.112132  -0.003609  3.757347  -0.003  -0.134686  -0.000827  4.016153  -0.001  -0.137973  -0.000671  4.037487  -0.001  -0.099832  -0.132356  -0.001062  4.001824  -0.001
C  C89  1  0.56651438  0.45304107  0.40522633  1  -0.111514  -0.002271  3.757152  -0.001  -0.134171  -0.000377  4.016886  0.0  -0.137368  5e-06  4.038278  0.0  -0.099498  -0.131907  -0.000885  4.002555  -0.001
C  C90  1  0.95752614  0.28539112  0.91879586  1  0.112112  -0.008019  3.793871  -0.008  0.110877  0.000992  4.046706  0.001  0.114474  0.00079  4.070706  0.001  0.070224  0.108399  0.000566  4.030481  0.001
C  C91  1  0.95779465  0.08084420  0.36640952  1  0.112564  -0.017079  3.794433  -0.017  0.111609  -0.006986  4.047061  -0.008  0.11507  -0.005104  4.071135  -0.006  0.070356  0.109405  -0.008543  4.030754  -0.009
C  C92  1  0.95709646  0.63325185  0.71456999  1  0.111852  0.007007  3.793405  0.006  0.11077  -0.001066  4.045633  -0.001  0.114344  -0.000718  4.069739  -0.001  0.070177  0.108449  -0.001062  4.029133  -0.001
C  C93  1  0.54289752  0.91868374  0.28542959  1  0.111917  0.007006  3.793394  0.006  0.110865  -0.001065  4.045606  -0.001  0.114436  -0.000718  4.069713  -0.001  0.070231  0.108544  -0.001062  4.029106  -0.001
C  C94  1  0.54247370  0.36660023  0.08120946  1  0.112086  -0.008006  3.793908  -0.008  0.110862  0.000992  4.046742  0.001  0.114475  0.00079  4.070719  0.001  0.070174  0.108385  0.000566  4.030516  0.001
C  C95  1  0.54220455  0.71443735  0.63358877  1  0.112736  -0.017093  3.794473  -0.017  0.111797  -0.006986  4.047066  -0.008  0.11526  -0.005103  4.071139  -0.006  0.070473  0.109594  -0.008543  4.030759  -0.009
C  C96  1  0.04247399  0.71460659  0.08120142  1  0.112087  -0.008001  3.793822  -0.008  0.110855  0.000993  4.046654  0.001  0.114452  0.00079  4.070652  0.001  0.070243  0.108369  0.000566  4.030441  0.001
C  C97  1  0.04220659  0.91915351  0.63358907  1  0.112703  -0.017085  3.794462  -0.017  0.111766  -0.006987  4.04708  -0.008  0.115227  -0.005103  4.071154  -0.006  0.07042  0.109562  -0.008544  4.030772  -0.009
C  C98  1  0.04290478  0.36674434  0.28542916  1  0.111848  0.007004  3.793451  0.006  0.110789  -0.001065  4.04566  -0.001  0.114359  -0.000718  4.06977  -0.001  0.070203  0.108468  -0.001062  4.029159  -0.001
C  C99  1  0.45709257  0.08131926  0.71456968  1  0.111761  0.007006  3.793405  0.006  0.110669  -0.001066  4.045667  -0.001  0.114237  -0.000718  4.06978  -0.001  0.070124  0.108348  -0.001062  4.029166  -0.001
C  C100  1  0.45752978  0.63339975  0.91879224  1  0.112171  -0.008009  3.793938  -0.008  0.110941  0.000991  4.046756  0.001  0.114548  0.00079  4.070746  0.001  0.070225  0.108454  0.000566  4.030541  0.001
C  C101  1  0.45779670  0.28556415  0.36641105  1  0.112516  -0.01709  3.794514  -0.017  0.111606  -0.006985  4.047109  -0.008  0.11507  -0.005103  4.071179  -0.006  0.07036  0.109402  -0.008542  4.030801  -0.009
C  C102  1  0.83550364  0.22565175  0.86677053  1  -0.053963  -0.001858  3.699854  -0.001  -0.090549  0.002023  3.966841  0.002  -0.087489  0.002283  3.987702  0.003  -0.012398  -0.092243  0.001494  3.952697  0.002
C  C103  1  0.83551293  0.13184087  0.35745915  1  -0.053115  -0.007513  3.701002  -0.007  -0.09024  -0.00377  3.968189  -0.004  -0.0874  -0.002468  3.989244  -0.002  -0.012079  -0.091701  -0.004635  3.953954  -0.005
C  C104  1  0.83554783  0.64064606  0.77428886  1  -0.054161  0.000632  3.701336  0.0  -0.089595  -0.001915  3.966616  -0.002  -0.086568  -0.002105  3.987454  -0.003  -0.012123  -0.091377  -0.001618  3.952592  -0.002
C  C105  1  0.66444934  0.86636120  0.22571277  1  -0.054223  0.000632  3.701432  0.0  -0.089729  -0.001916  3.966719  -0.002  -0.086703  -0.002104  3.987558  -0.003  -0.012181  -0.09151  -0.001619  3.952693  -0.002
C  C106  1  0.66449708  0.35888465  0.13323286  1  -0.053936  -0.001875  3.699869  -0.001  -0.090529  0.002023  3.96684  0.002  -0.087472  0.002284  3.987697  0.003  -0.012352  -0.092221  0.001493  3.952694  0.002
C  C107  1  0.66448887  0.77438434  0.64253698  1  -0.053151  -0.007505  3.701002  -0.007  -0.090262  -0.003769  3.968193  -0.004  -0.087427  -0.002468  3.989244  -0.002  -0.012116  -0.091723  -0.004634  3.95396  -0.005
C  C108  1  0.16449872  0.77434671  0.13322647  1  -0.053952  -0.00188  3.699796  -0.001  -0.090547  0.002023  3.966784  0.002  -0.087484  0.002282  3.987642  0.003  -0.012424  -0.092238  0.001493  3.952641  0.002
C  C109  1  0.16449166  0.86815759  0.64253982  1  -0.053281  -0.007518  3.701075  -0.007  -0.090414  -0.003769  3.968283  -0.004  -0.087575  -0.002468  3.989338  -0.002  -0.012179  -0.091874  -0.004635  3.954047  -0.005
C  C110  1  0.16445453  0.35934938  0.22571122  1  -0.054128  0.000634  3.701322  0.0  -0.089617  -0.001916  3.966593  -0.002  -0.08659  -0.002104  3.98743  -0.003  -0.012186  -0.091399  -0.001619  3.952569  -0.002
C  C111  1  0.33554298  0.13364029  0.77428837  1  -0.054089  0.000632  3.70137  0.0  -0.089544  -0.001916  3.966645  -0.002  -0.086516  -0.002106  3.987483  -0.003  -0.012111  -0.091326  -0.00162  3.952621  -0.002
C  C112  1  0.33550416  0.64111230  0.86676535  1  -0.054157  -0.001871  3.699995  -0.001  -0.090757  0.002023  3.966986  0.002  -0.0877  0.002284  3.987845  0.003  -0.012434  -0.092448  0.001493  3.952842  0.002
C  C113  1  0.33551237  0.22561715  0.35746154  1  -0.0532  -0.007503  3.701079  -0.007  -0.090346  -0.003772  3.968272  -0.004  -0.087509  -0.002469  3.989322  -0.002  -0.012142  -0.091805  -0.004637  3.954038  -0.005
C  C114  1  0.00533381  0.12744011  0.87394643  1  0.181534  -0.015719  3.757223  -0.015  0.13089  -0.003503  4.042003  -0.004  0.146714  -0.002822  4.059317  -0.003  0.109177  0.120917  -0.004212  4.030043  -0.004
C  C115  1  0.00628301  0.12522624  0.25319980  1  0.183135  -0.004542  3.756499  -0.004  0.132798  -0.000356  4.041487  -0.001  0.148511  0.001817  4.058497  0.002  0.108405  0.123015  -0.002343  4.030084  -0.003
C  C116  1  0.00531723  0.74639103  0.87259265  1  0.181291  0.014898  3.759341  0.014  0.131302  0.003526  4.04284  0.004  0.147239  0.002935  4.059993  0.003  0.109073  0.12111  0.004153  4.031234  0.004
C  C117  1  0.49467967  0.87379887  0.12740679  1  0.181268  0.014901  3.759418  0.014  0.131309  0.003526  4.042926  0.004  0.147243  0.002934  4.060079  0.003  0.109085  0.121116  0.004155  4.031318  0.004
C  C118  1  0.49466666  0.25349401  0.12605459  1  0.181533  -0.015711  3.757152  -0.015  0.130872  -0.003503  4.041934  -0.004  0.146698  -0.002822  4.059245  -0.003  0.109162  0.120898  -0.004211  4.029976  -0.004
C  C119  1  0.49371956  0.87202512  0.74679957  1  0.183097  -0.004556  3.756429  -0.004  0.132757  -0.000356  4.041422  -0.001  0.148465  0.001816  4.058435  0.002  0.108372  0.122973  -0.002344  4.030027  -0.003
C  C120  1  0.99466408  0.87255835  0.12605188  1  0.181508  -0.015717  3.757215  -0.015  0.130816  -0.003503  4.041984  -0.004  0.146639  -0.002823  4.059301  -0.003  0.109148  0.120843  -0.004212  4.030024  -0.004
C  C121  1  0.99372046  0.87477525  0.74679938  1  0.183039  -0.004563  3.756454  -0.004  0.132757  -0.000356  4.041449  -0.001  0.148467  0.001816  4.05846  0.002  0.108365  0.122975  -0.002344  4.030052  -0.003
C  C122  1  0.99468289  0.25360819  0.12740735  1  0.181291  0.014878  3.759356  0.014  0.131317  0.003527  4.042876  0.004  0.147254  0.002934  4.060024  0.003  0.109089  0.121126  0.004153  4.031269  0.004
C  C123  1  0.50531600  0.12620111  0.87259096  1  0.181281  0.014887  3.759342  0.014  0.131306  0.003526  4.04286  0.004  0.147242  0.002935  4.060009  0.003  0.10909  0.121112  0.004154  4.031252  0.004
C  C124  1  0.50533347  0.74650673  0.87394814  1  0.181599  -0.015729  3.75713  -0.015  0.130932  -0.003503  4.04189  -0.004  0.146756  -0.002823  4.059206  -0.003  0.109219  0.120958  -0.004212  4.029932  -0.004
C  C125  1  0.50628280  0.12797334  0.25320268  1  0.183096  -0.004536  3.756351  -0.004  0.132783  -0.000355  4.041335  -0.001  0.148492  0.001817  4.05835  0.002  0.108408  0.122999  -0.002343  4.029941  -0.003
N  N126  1  0.06362704  0.22099925  0.92276471  1  -0.39945  0.06578  3.334563  0.081  -0.350421  0.052365  3.636644  0.068  -0.382695  0.046551  3.657252  0.062  -0.389082  -0.329568  0.050985  3.622899  0.064
N  N127  1  0.06471060  0.07731787  0.29890224  1  -0.403213  -0.070612  3.3318  -0.088  -0.353424  -0.058501  3.632798  -0.076  -0.384895  -0.049271  3.652719  -0.067  -0.390647  -0.334266  -0.061652  3.620574  -0.078
N  N128  1  0.06311515  0.70186396  0.77899922  1  -0.400526  -0.063827  3.334852  -0.081  -0.350549  -0.051806  3.635794  -0.069  -0.383164  -0.044874  3.656531  -0.062  -0.389152  -0.329464  -0.052994  3.622026  -0.068
N  N129  1  0.43687953  0.92286350  0.22099970  1  -0.400574  -0.063831  3.334963  -0.081  -0.350641  -0.051805  3.635934  -0.069  -0.383244  -0.044872  3.65666  -0.062  -0.389228  -0.329559  -0.052995  3.622169  -0.068
N  N130  1  0.43637280  0.29823716  0.07723798  1  -0.399479  0.065771  3.33453  0.081  -0.35044  0.052364  3.636609  0.068  -0.382718  0.04655  3.657212  0.062  -0.389066  -0.329587  0.050983  3.622862  0.064
N  N131  1  0.43529149  0.77841442  0.70109561  1  -0.403264  -0.070596  3.331763  -0.087  -0.353485  -0.0585  3.632758  -0.076  -0.384955  -0.04927  3.652679  -0.067  -0.390673  -0.334328  -0.06165  3.620535  -0.078
N  N132  1  0.93637086  0.77899922  0.07723425  1  -0.39953  0.065774  3.334566  0.081  -0.350478  0.052364  3.636669  0.068  -0.382759  0.046551  3.657271  0.062  -0.389142  -0.329625  0.050983  3.622928  0.064
N  N133  1  0.93529175  0.92268059  0.70109476  1  -0.403192  -0.070598  3.331782  -0.087  -0.353452  -0.058503  3.632797  -0.076  -0.384912  -0.049271  3.652696  -0.067  -0.390644  -0.334292  -0.061653  3.62057  -0.078
N  N134  1  0.93688386  0.29813526  0.22100012  1  -0.400547  -0.063822  3.33495  -0.081  -0.350588  -0.051806  3.635895  -0.069  -0.383196  -0.044873  3.656623  -0.062  -0.389182  -0.329502  -0.052994  3.622125  -0.068
N  N135  1  0.56311390  0.07713723  0.77899712  1  -0.400509  -0.063821  3.334718  -0.081  -0.35053  -0.051807  3.63566  -0.069  -0.383136  -0.044873  3.656381  -0.062  -0.389146  -0.329444  -0.052996  3.621888  -0.068
N  N136  1  0.56362845  0.70176434  0.92276447  1  -0.39954  0.065778  3.334595  0.081  -0.350461  0.052363  3.636652  0.068  -0.382745  0.046551  3.657252  0.062  -0.389089  -0.329607  0.050982  3.622909  0.064
N  N137  1  0.56471199  0.22158405  0.29890533  1  -0.403173  -0.07061  3.331788  -0.088  -0.353439  -0.058501  3.632808  -0.076  -0.384911  -0.04927  3.652726  -0.067  -0.390637  -0.334279  -0.061652  3.620581  -0.078
N  N138  1  0.86625951  0.12663421  0.83954758  1  -0.373658  -0.066313  3.360762  -0.083  -0.326834  -0.056795  3.674195  -0.076  -0.359726  -0.048391  3.696559  -0.068  -0.389201  -0.305778  -0.058995  3.659416  -0.076
N  N139  1  0.86661221  0.15867917  0.28545373  1  -0.377383  -0.076071  3.362362  -0.096  -0.330861  -0.05976  3.67629  -0.08  -0.362816  -0.049925  3.697904  -0.07  -0.39116  -0.311354  -0.063575  3.662869  -0.082
N  N140  1  0.86658838  0.71246098  0.87338870  1  -0.37403  0.068601  3.361126  0.084  -0.327202  0.057831  3.673352  0.075  -0.3598  0.050546  3.695547  0.068  -0.389086  -0.306327  0.057348  3.658717  0.073
N  N141  1  0.63341006  0.83907649  0.12661239  1  -0.37391  0.068598  3.361147  0.084  -0.327085  0.057828  3.673377  0.075  -0.35968  0.050544  3.695569  0.068  -0.389024  -0.306209  0.057346  3.658736  0.073
N  N142  1  0.63374285  0.28708762  0.16045410  1  -0.37369  -0.06632  3.360688  -0.083  -0.32687  -0.056797  3.674134  -0.076  -0.359769  -0.048393  3.696509  -0.068  -0.389201  -0.305813  -0.058998  3.659356  -0.076
N  N143  1  0.63338892  0.87322640  0.71454547  1  -0.377414  -0.076065  3.362307  -0.096  -0.330892  -0.059759  3.676233  -0.08  -0.362839  -0.049923  3.697841  -0.07  -0.391173  -0.311385  -0.063572  3.662809  -0.082
N  N144  1  0.13373950  0.87336425  0.16044942  1  -0.373551  -0.066318  3.360661  -0.083  -0.326718  -0.0568  3.674094  -0.076  -0.359618  -0.048394  3.696478  -0.068  -0.389147  -0.305664  -0.058999  3.659317  -0.076
N  N145  1  0.13339127  0.84132232  0.71454675  1  -0.377318  -0.076061  3.362257  -0.096  -0.330791  -0.059761  3.676164  -0.08  -0.362747  -0.049925  3.697786  -0.07  -0.391144  -0.311285  -0.063574  3.66274  -0.082
N  N146  1  0.13341397  0.28753446  0.12661138  1  -0.374012  0.068607  3.36109  0.084  -0.327207  0.057828  3.673334  0.075  -0.359795  0.050542  3.695532  0.068  -0.389064  -0.30633  0.057345  3.658698  0.073
N  N147  1  0.36658561  0.16092349  0.87338733  1  -0.374023  0.0686  3.361168  0.084  -0.327233  0.057826  3.673419  0.075  -0.359823  0.050541  3.695621  0.068  -0.389071  -0.306355  0.057344  3.658782  0.073
N  N148  1  0.36626063  0.71291160  0.83954721  1  -0.37359  -0.066311  3.360709  -0.083  -0.326753  -0.056799  3.674142  -0.076  -0.359652  -0.048395  3.696522  -0.068  -0.38917  -0.305695  -0.058999  3.659358  -0.076
N  N149  1  0.36661233  0.12677434  0.28545660  1  -0.377341  -0.076076  3.362228  -0.096  -0.330807  -0.059762  3.676139  -0.08  -0.36276  -0.049927  3.697759  -0.07  -0.391152  -0.311307  -0.063576  3.662722  -0.082
