# generated using pymatgen
data_TbH9C12NO7
_symmetry_space_group_name_H-M   'P 1'
_cell_length_a   8.48883265
_cell_length_b   9.14906408
_cell_length_c   15.40705996
_cell_angle_alpha   90.00000394
_cell_angle_beta   89.99994345
_cell_angle_gamma   102.75157763
_symmetry_Int_Tables_number   1
_chemical_formula_structural   TbH9C12NO7
_chemical_formula_sum   'Tb4 H36 C48 N4 O28'
_cell_volume   1167.07502889
_cell_formula_units_Z   4
loop_
 _symmetry_equiv_pos_site_id
 _symmetry_equiv_pos_as_xyz
  1  'x, y, z'
loop_
 _atom_site_type_symbol
 _atom_site_label
 _atom_site_symmetry_multiplicity
 _atom_site_fract_x
 _atom_site_fract_y
 _atom_site_fract_z
 _atom_site_occupancy
 _atom_site_pbe_bader_spin_density
 _atom_site_pbe_cm5_charge
 _atom_site_pbe_ddec_charge
 _atom_site_pbe_ddec_spin_density
 _atom_site_pbe_ddec_sum_bond_order
 _atom_site_pbe_magmom
Tb  Tb0  1  0.98822871  0.89631884  0.11304533  1  0  1.490974  2.048163  0  2.1273  0
Tb  Tb1  1  0.51177210  0.10368086  0.61304479  1  0  1.49096  2.048154  0  2.127267  0
Tb  Tb2  1  0.01177217  0.10368064  0.88695507  1  0  1.490951  2.048166  0  2.127264  0
Tb  Tb3  1  0.48822878  0.89631863  0.38695496  1  0  1.490949  2.048146  0  2.127285  0
H  H4  1  0.34266349  0.37133471  0.12415404  1  0  0.098443  0.098963  0  1.032243  0
H  H5  1  0.15733350  0.62866575  0.62415344  1  0  0.098395  0.098894  0  1.03232  0
H  H6  1  0.65733412  0.62866589  0.87584701  1  0  0.0984  0.098912  0  1.03231  0
H  H7  1  0.84266411  0.37133485  0.37584631  1  0  0.098411  0.098908  0  1.03228  0
H  H8  1  0.55024098  0.15145444  0.06030143  1  0  0.104295  0.124172  0  0.99947  0
H  H9  1  0.94975980  0.84854975  0.56030069  1  0  0.104281  0.124171  0  0.999359  0
H  H10  1  0.44975860  0.84854952  0.93969962  1  0  0.104254  0.124129  0  0.999425  0
H  H11  1  0.05024096  0.15145422  0.43969841  1  0  0.104301  0.124185  0  0.999427  0
H  H12  1  0.46768744  0.12605400  0.95434678  1  0  0.114917  0.14148  0  0.973734  0
H  H13  1  0.03231391  0.87394749  0.45434626  1  0  0.114904  0.141469  0  0.973773  0
H  H14  1  0.53231514  0.87394773  0.04565362  1  0  0.114909  0.141469  0  0.973776  0
H  H15  1  0.96768750  0.12605423  0.54565349  1  0  0.114911  0.141474  0  0.973743  0
H  H16  1  0.61620087  0.35361325  0.89103876  1  0  0.103913  0.110321  0  0.99987  0
H  H17  1  0.88379642  0.64638862  0.39103804  1  0  0.103936  0.110362  0  0.999857  0
H  H18  1  0.38379674  0.64638735  0.10896164  1  0  0.103961  0.110371  0  0.999927  0
H  H19  1  0.11620028  0.35361310  0.60896171  1  0  0.103919  0.110323  0  0.99986  0
H  H20  1  0.90401027  0.51790179  0.01777279  1  0  0.121694  0.086469  0  1.035878  0
H  H21  1  0.59599045  0.48209681  0.51777482  1  0  0.121707  0.086439  0  1.035931  0
H  H22  1  0.09599152  0.48209658  0.98222502  1  0  0.121711  0.086447  0  1.035942  0
H  H23  1  0.40400781  0.51790155  0.48222558  1  0  0.121717  0.08648  0  1.035899  0
H  H24  1  0.63527548  0.44546289  0.30091773  1  0  0.112863  0.122117  0  1.003921  0
H  H25  1  0.86472380  0.55453676  0.80091767  1  0  0.112857  0.122096  0  1.003939  0
H  H26  1  0.36472422  0.55453659  0.69908267  1  0  0.112866  0.122113  0  1.003933  0
H  H27  1  0.13527616  0.44546384  0.19908208  1  0  0.112854  0.122092  0  1.003952  0
H  H28  1  0.72756609  0.22594095  0.23261849  1  0  0.116622  0.128384  0  1.016729  0
H  H29  1  0.77243305  0.77405760  0.73261914  1  0  0.116636  0.128427  0  1.016741  0
H  H30  1  0.27243361  0.77405853  0.76738126  1  0  0.116625  0.128395  0  1.016743  0
H  H31  1  0.22756547  0.22594188  0.26738126  1  0  0.116629  0.128429  0  1.01673  0
H  H32  1  0.94942367  0.01315675  0.29592577  1  0  0.301778  0.407907  0  0.913356  0
H  H33  1  0.55057679  0.98684290  0.79592525  1  0  0.301727  0.407833  0  0.913459  0
H  H34  1  0.05057721  0.98684273  0.70407398  1  0  0.301772  0.4079  0  0.913364  0
H  H35  1  0.44942291  0.01315659  0.20407450  1  0  0.301782  0.407921  0  0.913337  0
H  H36  1  0.12049694  0.96300524  0.28598771  1  0  0.299371  0.39509  0  0.947035  0
H  H37  1  0.37950328  0.03699517  0.78598697  1  0  0.29937  0.3951  0  0.947028  0
H  H38  1  0.87950276  0.03699424  0.71401334  1  0  0.299382  0.395107  0  0.94702  0
H  H39  1  0.62049668  0.96300543  0.21401278  1  0  0.299371  0.395091  0  0.947041  0
C  C40  1  0.47448576  0.34259405  0.00815134  1  0  -0.007317  0.139952  0  3.957514  0
C  C41  1  0.02551289  0.65740756  0.50815082  1  0  -0.007295  0.140012  0  3.957485  0
C  C42  1  0.52551329  0.65740767  0.99184971  1  0  -0.007322  0.139918  0  3.957522  0
C  C43  1  0.97448499  0.34259416  0.49184893  1  0  -0.007307  0.13995  0  3.957506  0
C  C44  1  0.41152645  0.42740508  0.06924802  1  0  -0.094916  -0.137931  0  3.972983  0
C  C45  1  0.08847209  0.57259650  0.56924746  1  0  -0.094874  -0.137808  0  3.972948  0
C  C46  1  0.58847261  0.57259664  0.93075303  1  0  -0.094886  -0.137825  0  3.972973  0
C  C47  1  0.91152578  0.42740522  0.43075164  1  0  -0.094901  -0.137844  0  3.972901  0
C  C48  1  0.29384221  0.09255133  0.05522136  1  0  0.225399  0.682256  0  4.100871  0
C  C49  1  0.20616054  0.90744802  0.55522010  1  0  0.225401  0.682265  0  4.100829  0
C  C50  1  0.70616103  0.90744815  0.94478034  1  0  0.225372  0.682221  0  4.100793  0
C  C51  1  0.79384152  0.09255146  0.44477900  1  0  0.225408  0.682295  0  4.10083  0
C  C52  1  0.45427295  0.17531535  0.01829020  1  0  -0.149837  -0.341038  0  3.89697  0
C  C53  1  0.04572895  0.82468513  0.51828902  1  0  -0.149816  -0.341047  0  3.89689  0
C  C54  1  0.54572964  0.82468637  0.98171150  1  0  -0.149806  -0.341007  0  3.896972  0
C  C55  1  0.95427220  0.17531547  0.48171008  1  0  -0.149835  -0.341049  0  3.896903  0
C  C56  1  0.56402028  0.41749217  0.93875326  1  0  -0.089979  -0.128389  0  3.966236  0
C  C57  1  0.93597692  0.58250968  0.43875251  1  0  -0.090032  -0.128477  0  3.966212  0
C  C58  1  0.43597759  0.58250955  0.06124779  1  0  -0.09004  -0.128386  0  3.966263  0
C  C59  1  0.06401951  0.41749092  0.56124659  1  0  -0.090011  -0.128417  0  3.966222  0
C  C60  1  0.73710176  0.59413624  0.19801618  1  0  0.114725  0.094024  0  4.013683  0
C  C61  1  0.76289862  0.40586232  0.69801746  1  0  0.114661  0.093906  0  4.013853  0
C  C62  1  0.26289794  0.40586324  0.80198228  1  0  0.114683  0.093925  0  4.013726  0
C  C63  1  0.23710081  0.59413605  0.30198294  1  0  0.114703  0.094012  0  4.013706  0
C  C64  1  0.84993037  0.49783949  0.08163703  1  0  0.068954  0.113671  0  3.928903  0
C  C65  1  0.65007258  0.50215909  0.58163579  1  0  0.068811  0.113518  0  3.929108  0
C  C66  1  0.15007260  0.50215887  0.91836402  1  0  0.068808  0.113485  0  3.92914  0
C  C67  1  0.34992921  0.49783927  0.41836396  1  0  0.068885  0.113595  0  3.92894  0
C  C68  1  0.70033526  0.45571489  0.23956597  1  0  -0.071788  -0.11973  0  3.923351  0
C  C69  1  0.79966740  0.54428366  0.73956594  1  0  -0.071689  -0.11959  0  3.923405  0
C  C70  1  0.29966679  0.54428459  0.76043443  1  0  -0.071731  -0.119669  0  3.923299  0
C  C71  1  0.20033439  0.45571471  0.26043381  1  0  -0.071735  -0.11969  0  3.923358  0
C  C72  1  0.68991493  0.73108153  0.23351291  1  0  0.232339  0.58251  0  4.18679  0
C  C73  1  0.81008303  0.26891702  0.73351351  1  0  0.232357  0.582548  0  4.186685  0
C  C74  1  0.31008359  0.26891795  0.76648555  1  0  0.232388  0.582615  0  4.186616  0
C  C75  1  0.18991404  0.73108134  0.26648689  1  0  0.232352  0.582576  0  4.186726  0
C  C76  1  0.82247536  0.35517286  0.11930872  1  0  -0.00419  -0.077256  0  3.913968  0
C  C77  1  0.67752399  0.64482572  0.61930942  1  0  -0.004181  -0.07723  0  3.913956  0
C  C78  1  0.17752408  0.64482550  0.88069103  1  0  -0.00417  -0.077185  0  3.913951  0
C  C79  1  0.32247453  0.35517377  0.38069098  1  0  -0.004205  -0.077257  0  3.913974  0
C  C80  1  0.74981115  0.33532525  0.20124521  1  0  -0.05493  -0.03448  0  3.882185  0
C  C81  1  0.75018804  0.66467330  0.70124586  1  0  -0.055017  -0.034653  0  3.882335  0
C  C82  1  0.25018854  0.66467423  0.79875454  1  0  -0.054975  -0.034563  0  3.882194  0
C  C83  1  0.24981021  0.33532506  0.29875389  1  0  -0.054971  -0.034575  0  3.882236  0
C  C84  1  0.87497549  0.22826191  0.07355176  1  0  0.227161  0.625675  0  4.183181  0
C  C85  1  0.62502395  0.77173667  0.57355054  1  0  0.227156  0.625702  0  4.183114  0
C  C86  1  0.12502395  0.77173645  0.92644929  1  0  0.227146  0.625674  0  4.183146  0
C  C87  1  0.37497549  0.22826169  0.42644856  1  0  0.227142  0.625694  0  4.183179  0
N  N88  1  0.81579618  0.61638841  0.12151227  1  0  -0.35606  -0.343782  0  3.52188  0
N  N89  1  0.68420409  0.38360905  0.62151295  1  0  -0.355924  -0.343539  0  3.521856  0
N  N90  1  0.18420299  0.38360883  0.87848684  1  0  -0.355951  -0.343568  0  3.521824  0
N  N91  1  0.31579561  0.61639044  0.37848680  1  0  -0.355985  -0.343686  0  3.521775  0
O  O92  1  0.89188894  0.11978375  0.12099364  1  0  -0.38057  -0.619224  0  2.31322  0
O  O93  1  0.60811303  0.88021595  0.62099374  1  0  -0.38058  -0.619262  0  2.313127  0
O  O94  1  0.10811312  0.88021573  0.87900611  1  0  -0.380592  -0.61928  0  2.313113  0
O  O95  1  0.39188549  0.11978354  0.37900601  1  0  -0.380561  -0.619282  0  2.31326  0
O  O96  1  0.89861431  0.24013808  0.99190477  1  0  -0.384239  -0.652057  0  2.296511  0
O  O97  1  0.60138579  0.75986152  0.49190486  1  0  -0.384219  -0.652009  0  2.296501  0
O  O98  1  0.10138630  0.75986028  0.00809498  1  0  -0.384203  -0.651978  0  2.296478  0
O  O99  1  0.39861535  0.24013909  0.50809489  1  0  -0.384206  -0.651978  0  2.29644  0
O  O100  1  0.60506618  0.72193236  0.30112284  1  0  -0.354665  -0.605835  0  2.306475  0
O  O101  1  0.89493113  0.27806393  0.80112470  1  0  -0.354647  -0.605812  0  2.30636  0
O  O102  1  0.39493181  0.27806488  0.69887561  1  0  -0.354677  -0.605854  0  2.306355  0
O  O103  1  0.10506542  0.72193219  0.19887764  1  0  -0.35467  -0.605863  0  2.306443  0
O  O104  1  0.16236228  0.09458246  0.01456860  1  0  -0.4298  -0.753148  0  2.444319  0
O  O105  1  0.33763845  0.90541803  0.51456663  1  0  -0.4298  -0.753134  0  2.444392  0
O  O106  1  0.83763768  0.90541814  0.98543374  1  0  -0.429782  -0.753101  0  2.444323  0
O  O107  1  0.66236152  0.09458258  0.48543118  1  0  -0.429795  -0.753167  0  2.444332  0
O  O108  1  0.28776302  0.01734721  0.12497510  1  0  -0.334649  -0.598094  0  2.183864  0
O  O109  1  0.21224130  0.98265437  0.62497514  1  0  -0.334659  -0.598119  0  2.183764  0
O  O110  1  0.71224048  0.98265339  0.87502465  1  0  -0.334654  -0.598105  0  2.183772  0
O  O111  1  0.78776220  0.01734624  0.37502461  1  0  -0.334661  -0.598104  0  2.183841  0
O  O112  1  0.73923062  0.85118434  0.18901122  1  0  -0.37564  -0.636031  0  2.389726  0
O  O113  1  0.76076743  0.14881422  0.68901185  1  0  -0.375663  -0.636064  0  2.389704  0
O  O114  1  0.26076908  0.14881514  0.81098918  1  0  -0.375658  -0.636075  0  2.389638  0
O  O115  1  0.23923227  0.85118527  0.31098920  1  0  -0.375666  -0.636072  0  2.389663  0
O  O116  1  0.03820600  0.00752619  0.25535306  1  0  -0.64483  -0.854206  0  2.113232  0
O  O117  1  0.46179230  0.99247087  0.75535231  1  0  -0.644763  -0.854128  0  2.11327  0
O  O118  1  0.96179317  0.99247105  0.74464799  1  0  -0.64482  -0.854211  0  2.113204  0
O  O119  1  0.53820740  0.00752861  0.24464744  1  0  -0.644824  -0.854205  0  2.11318  0
