# generated using pymatgen
data_CdH24C44N6(OF2)6
_symmetry_space_group_name_H-M   'P 1'
_cell_length_a   8.09747609
_cell_length_b   16.51263758
_cell_length_c   20.37079773
_cell_angle_alpha   89.99997251
_cell_angle_beta   90.00020993
_cell_angle_gamma   101.28019978
_symmetry_Int_Tables_number   1
_chemical_formula_structural   CdH24C44N6(OF2)6
_chemical_formula_sum   'Cd2 H48 C88 N12 O12 F24'
_cell_volume   2671.17599825
_cell_formula_units_Z   2
loop_
 _symmetry_equiv_pos_site_id
 _symmetry_equiv_pos_as_xyz
  1  'x, y, z'
loop_
 _atom_site_type_symbol
 _atom_site_label
 _atom_site_symmetry_multiplicity
 _atom_site_fract_x
 _atom_site_fract_y
 _atom_site_fract_z
 _atom_site_occupancy
 _atom_site_pbe_bader_charge
 _atom_site_pbe_bader_spin_density
 _atom_site_pbe_cm5_charge
 _atom_site_pbe_ddec_charge
 _atom_site_pbe_ddec_spin_density
 _atom_site_pbe_ddec_sum_bond_order
 _atom_site_pbe_magmom
Cd  Cd0  1  0.49999773  0.49999926  0.99999890  1  1.243159  0  0.785092  0.766362  0  2.2475  0
Cd  Cd1  1  0.49999574  0.99999924  0.49999973  1  1.243099  0  0.785118  0.766361  0  2.24758  0
H  H2  1  0.38507179  0.31492643  0.96477785  1  0.152676  0  0.105334  0.076047  0  1.069852  0
H  H3  1  0.61492874  0.18507382  0.46477749  1  0.152687  0  0.105345  0.076059  0  1.069833  0
H  H4  1  0.61492963  0.68507075  0.03522573  1  0.152715  0  0.105379  0.076107  0  1.069746  0
H  H5  1  0.38506920  0.81492396  0.53522363  1  0.152893  0  0.105342  0.076056  0  1.069787  0
H  H6  1  0.86963068  0.45395977  0.95793553  1  0.152447  0  0.11155  0.080807  0  1.050287  0
H  H7  1  0.13037156  0.04603864  0.45793404  1  0.152586  0  0.111552  0.08079  0  1.050293  0
H  H8  1  0.13036966  0.54604110  0.04206412  1  0.152451  0  0.111543  0.08077  0  1.050327  0
H  H9  1  0.86962383  0.95396221  0.54206119  1  0.152536  0  0.111534  0.080761  0  1.050345  0
H  H10  1  0.48491049  0.18632589  0.93316897  1  0.074766  0  0.096821  0.103705  0  1.052983  0
H  H11  1  0.51508556  0.31367309  0.43316989  1  0.074839  0  0.096837  0.10371  0  1.053  0
H  H12  1  0.51509093  0.81367129  0.06683265  1  0.074798  0  0.096826  0.10367  0  1.05306  0
H  H13  1  0.48491656  0.68632594  0.56683221  1  0.074823  0  0.096829  0.103674  0  1.053068  0
H  H14  1  0.99136980  0.33118573  0.92968049  1  0.114298  0  0.106641  0.124968  0  1.007239  0
H  H15  1  0.00863364  0.16881330  0.42967878  1  0.114292  0  0.106629  0.124937  0  1.007358  0
H  H16  1  0.00863347  0.66881639  0.07031671  1  0.114306  0  0.106624  0.124978  0  1.007289  0
H  H17  1  0.99136763  0.83119004  0.57031891  1  0.114289  0  0.106668  0.124984  0  1.007327  0
H  H18  1  0.70854446  0.12304014  0.89291299  1  0.080086  0  0.100102  0.113188  0  0.995906  0
H  H19  1  0.29145987  0.37695888  0.39291209  1  0.080041  0  0.100108  0.113149  0  0.995877  0
H  H20  1  0.29145982  0.87696137  0.10708470  1  0.079966  0  0.100123  0.113154  0  0.995906  0
H  H21  1  0.70854264  0.62304447  0.60709051  1  0.080033  0  0.100111  0.113222  0  0.995728  0
H  H22  1  0.90693915  0.18464920  0.87212208  1  0.076579  0  0.101163  0.113103  0  0.985558  0
H  H23  1  0.09306343  0.31535228  0.37211847  1  0.076525  0  0.101176  0.113097  0  0.985428  0
H  H24  1  0.09306435  0.81535354  0.12787806  1  0.076626  0  0.101129  0.11302  0  0.985508  0
H  H25  1  0.90694209  0.68464924  0.62787873  1  0.076523  0  0.101144  0.113045  0  0.985504  0
H  H26  1  0.61721077  0.85947701  0.17654761  1  0.080597  0  0.102582  0.112304  0  0.993013  0
H  H27  1  0.38278523  0.64052634  0.67654705  1  0.080713  0  0.102605  0.112371  0  0.992961  0
H  H28  1  0.38279823  0.14052391  0.82345205  1  0.080643  0  0.102629  0.112364  0  0.99295  0
H  H29  1  0.61721419  0.35948192  0.32345506  1  0.080681  0  0.102577  0.112328  0  0.992958  0
H  H30  1  0.80127292  0.84011051  0.21542987  1  0.098972  0  0.108601  0.123496  0  0.953453  0
H  H31  1  0.19872198  0.65989224  0.71542806  1  0.098695  0  0.108602  0.123506  0  0.953494  0
H  H32  1  0.19873431  0.15989225  0.78457027  1  0.099098  0  0.108614  0.123498  0  0.953419  0
H  H33  1  0.80127094  0.34010860  0.28457307  1  0.098798  0  0.108607  0.1235  0  0.9534  0
H  H34  1  0.90859226  0.91737230  0.32058340  1  0.122272  0  0.105313  0.126457  0  1.036884  0
H  H35  1  0.09139612  0.58262366  0.82057950  1  0.122096  0  0.105337  0.126494  0  1.036886  0
H  H36  1  0.09139979  0.08262298  0.67942214  1  0.12215  0  0.105336  0.126514  0  1.036815  0
H  H37  1  0.90859741  0.41737225  0.17941966  1  0.122137  0  0.105339  0.126509  0  1.036852  0
H  H38  1  0.42058739  0.92952595  0.23832608  1  0.080479  0  0.103603  0.114176  0  1.017718  0
H  H39  1  0.57940230  0.57047554  0.73832240  1  0.080611  0  0.10359  0.114103  0  1.017763  0
H  H40  1  0.57942099  0.07047990  0.76166915  1  0.080561  0  0.103625  0.114224  0  1.017634  0
H  H41  1  0.42059735  0.42953334  0.26167824  1  0.080528  0  0.10355  0.114104  0  1.017812  0
H  H42  1  0.81097344  0.96580533  0.42520564  1  0.12362  0  0.114518  0.084122  0  1.033593  0
H  H43  1  0.18901229  0.53418756  0.92520189  1  0.123633  0  0.114454  0.084029  0  1.033699  0
H  H44  1  0.18900624  0.03418989  0.57479745  1  0.123609  0  0.114467  0.084059  0  1.03361  0
H  H45  1  0.81097698  0.46580031  0.07479678  1  0.123723  0  0.114484  0.084037  0  1.033684  0
H  H46  1  0.33942735  0.97421591  0.34851218  1  0.13507  0  0.115304  0.089367  0  1.015656  0
H  H47  1  0.66056470  0.52578254  0.84850813  1  0.135209  0  0.115265  0.08938  0  1.015615  0
H  H48  1  0.66056657  0.02578432  0.65148257  1  0.134975  0  0.115299  0.089329  0  1.015633  0
H  H49  1  0.33943750  0.47422327  0.15149152  1  0.135084  0  0.115258  0.089346  0  1.015542  0
C  C50  1  0.51786542  0.31563703  0.95535612  1  0.498261  0  0.040357  0.102027  0  3.940102  0
C  C51  1  0.48213355  0.18436260  0.45535410  1  0.498153  0  0.0403  0.101932  0  3.940219  0
C  C52  1  0.48213523  0.68436138  0.04464697  1  0.498115  0  0.040252  0.101874  0  3.940187  0
C  C53  1  0.51786215  0.81563578  0.54464506  1  0.496483  0  0.04029  0.101989  0  3.9401  0
C  C54  1  0.78926633  0.39305563  0.95285910  1  0.452597  0  0.042401  0.096853  0  3.950756  0
C  C55  1  0.21073508  0.10694401  0.45285672  1  0.452499  0  0.042398  0.096924  0  3.950522  0
C  C56  1  0.21073454  0.60694340  0.04714055  1  0.452401  0  0.042458  0.096974  0  3.950631  0
C  C57  1  0.78926301  0.89305747  0.54714097  1  0.451867  0  0.042435  0.096937  0  3.950587  0
C  C58  1  0.57465176  0.24441132  0.93771082  1  -0.05527  0  -0.093158  -0.190634  0  3.951657  0
C  C59  1  0.42534680  0.25558768  0.43771016  1  -0.0553  0  -0.093115  -0.190541  0  3.951648  0
C  C60  1  0.42534764  0.75558708  0.06229129  1  -0.055298  0  -0.093103  -0.190484  0  3.951547  0
C  C61  1  0.57465206  0.74441257  0.56229047  1  -0.055215  0  -0.093094  -0.190523  0  3.951692  0
C  C62  1  0.85548163  0.32426517  0.93585590  1  -0.041041  0  -0.089712  -0.177816  0  3.904541  0
C  C63  1  0.14451692  0.17573383  0.43585340  1  -0.041073  0  -0.089685  -0.177813  0  3.904525  0
C  C64  1  0.14451654  0.67573322  0.06414277  1  -0.041045  0  -0.089675  -0.177776  0  3.904392  0
C  C65  1  0.85548465  0.82426705  0.56414478  1  -0.041029  0  -0.089721  -0.177805  0  3.904432  0
C  C66  1  0.74664018  0.24779106  0.92813940  1  -0.005386  0  0.010799  0.173662  0  3.925524  0
C  C67  1  0.25335876  0.25220918  0.42813653  1  -0.005409  0  0.010757  0.173595  0  3.925409  0
C  C68  1  0.25335698  0.75220795  0.07186271  1  -0.00542  0  0.010727  0.173473  0  3.925396  0
C  C69  1  0.74664003  0.74779415  0.57186312  1  -0.005314  0  0.010716  0.173508  0  3.9255  0
C  C70  1  0.81238677  0.17065287  0.91119167  1  -0.036552  0  -0.150004  -0.222299  0  3.955762  0
C  C71  1  0.18761573  0.32934738  0.41119015  1  -0.036598  0  -0.150017  -0.222175  0  3.955504  0
C  C72  1  0.18761705  0.82934741  0.08880700  1  -0.036472  0  -0.149973  -0.222011  0  3.955662  0
C  C73  1  0.81238376  0.67065780  0.58881048  1  -0.036681  0  -0.149998  -0.222213  0  3.9556  0
C  C74  1  0.89085269  0.13647317  0.96964207  1  0.143845  0  -0.024007  -0.083296  0  4.037473  0
C  C75  1  0.10915314  0.36352465  0.46964092  1  0.143827  0  -0.024074  -0.083439  0  4.03771  0
C  C76  1  0.10915244  0.86352403  0.03035611  1  0.143796  0  -0.024061  -0.083652  0  4.037833  0
C  C77  1  0.89084124  0.63647681  0.53036021  1  0.143818  0  -0.023942  -0.083286  0  4.037547  0
C  C78  1  0.06630866  0.15137100  0.97881834  1  0.494984  0  0.093216  0.139067  0  4.084525  0
C  C79  1  0.93369701  0.34861635  0.47882132  1  0.495231  0  0.093216  0.13907  0  4.084674  0
C  C80  1  0.93369314  0.84862064  0.02117935  1  0.495297  0  0.093192  0.139308  0  4.084436  0
C  C81  1  0.06630069  0.65138081  0.52118275  1  0.494961  0  0.093235  0.139224  0  4.08464  0
C  C82  1  0.79424885  0.08823569  0.01639903  1  0.497504  0  0.102887  0.220056  0  4.001548  0
C  C83  1  0.20575858  0.41176448  0.51639614  1  0.496976  0  0.10298  0.220185  0  4.001374  0
C  C84  1  0.20575775  0.91176214  0.98360112  1  0.497199  0  0.102998  0.220289  0  4.001533  0
C  C85  1  0.79424098  0.58823762  0.48360253  1  0.497254  0  0.102984  0.220193  0  4.001588  0
C  C86  1  0.14142832  0.11996023  0.03111619  1  0.615832  0  0.090216  0.143265  0  4.058356  0
C  C87  1  0.85858008  0.38002578  0.53112064  1  0.615644  0  0.090165  0.143111  0  4.058409  0
C  C88  1  0.85858083  0.88003453  0.96888150  1  0.615641  0  0.090234  0.14316  0  4.058367  0
C  C89  1  0.14142288  0.61996895  0.46888834  1  0.616084  0  0.090058  0.142997  0  4.058861  0
C  C90  1  0.86255743  0.05109355  0.07007789  1  0.048211  0  -0.022219  -0.125815  0  4.063548  0
C  C91  1  0.13744849  0.44890786  0.57007489  1  0.048385  0  -0.022266  -0.125916  0  4.063376  0
C  C92  1  0.13745157  0.94890737  0.92992373  1  0.047952  0  -0.022236  -0.125879  0  4.06344  0
C  C93  1  0.86255007  0.55109485  0.42992526  1  0.048205  0  -0.022265  -0.125854  0  4.063453  0
C  C94  1  0.04331048  0.06852319  0.07794591  1  0.080708  0  -0.013739  -0.074486  0  4.065339  0
C  C95  1  0.95669373  0.43147020  0.57794704  1  0.080406  0  -0.013626  -0.074199  0  4.065094  0
C  C96  1  0.95669712  0.93147403  0.92205276  1  0.080624  0  -0.013655  -0.074278  0  4.065041  0
C  C97  1  0.04330677  0.56853437  0.42205899  1  0.080556  0  -0.013559  -0.074258  0  4.065226  0
C  C98  1  0.76619219  0.99476208  0.11466008  1  0.47192  0  0.101318  0.21236  0  4.015062  0
C  C99  1  0.23381111  0.50524253  0.61465543  1  0.472415  0  0.101303  0.212359  0  4.015118  0
C  C100  1  0.23381526  0.00524129  0.88534203  1  0.472442  0  0.101334  0.212388  0  4.015056  0
C  C101  1  0.76619317  0.49475898  0.38534324  1  0.472208  0  0.101269  0.212269  0  4.015002  0
C  C102  1  0.11254361  0.03066154  0.13093751  1  0.53877  0  0.086902  0.131609  0  4.074658  0
C  C103  1  0.88745600  0.46933800  0.63093558  1  0.539075  0  0.086833  0.131404  0  4.074663  0
C  C104  1  0.88746261  0.96934183  0.86906362  1  0.539017  0  0.086847  0.131412  0  4.074608  0
C  C105  1  0.11254766  0.53066844  0.36906849  1  0.539024  0  0.086802  0.131256  0  4.074809  0
C  C106  1  0.01098522  0.97555701  0.17153900  1  0.479619  0  0.088306  0.126708  0  4.087585  0
C  C107  1  0.98901111  0.52444080  0.67153592  1  0.479516  0  0.088397  0.126875  0  4.087726  0
C  C108  1  0.98902231  0.02444329  0.82846065  1  0.479583  0  0.088308  0.126858  0  4.08767  0
C  C109  1  0.01099232  0.47556502  0.32846471  1  0.479652  0  0.088395  0.126865  0  4.087842  0
C  C110  1  0.83461474  0.95439726  0.16398761  1  0.182925  0  -0.028067  -0.089459  0  4.052674  0
C  C111  1  0.16538639  0.54560366  0.66398383  1  0.182806  0  -0.028091  -0.089525  0  4.052666  0
C  C112  1  0.16538931  0.04560363  0.83601450  1  0.182756  0  -0.028063  -0.089526  0  4.05284  0
C  C113  1  0.83462207  0.45439911  0.33601435  1  0.182591  0  -0.028158  -0.089522  0  4.052638  0
C  C114  1  0.72791818  0.88808442  0.20522697  1  -0.029819  0  -0.145502  -0.214769  0  3.954033  0
C  C115  1  0.27207492  0.61191708  0.70522430  1  -0.029746  0  -0.145566  -0.214956  0  3.954201  0
C  C116  1  0.27208982  0.11191712  0.79477415  1  -0.030024  0  -0.145597  -0.214824  0  3.954039  0
C  C117  1  0.72792187  0.38808747  0.29477585  1  -0.029631  0  -0.145531  -0.214846  0  3.953999  0
C  C118  1  0.67260428  0.91955096  0.26976244  1  0.010828  0  0.010769  0.169584  0  3.937036  0
C  C119  1  0.32738525  0.58044930  0.76975986  1  0.01046  0  0.010845  0.169783  0  3.936771  0
C  C120  1  0.32739459  0.08044929  0.73023770  1  0.010708  0  0.01076  0.169531  0  3.937037  0
C  C121  1  0.67261130  0.41955463  0.23023832  1  0.010693  0  0.010865  0.169756  0  3.936983  0
C  C122  1  0.78228292  0.93064286  0.32343347  1  -0.002432  0  -0.087107  -0.182049  0  3.920056  0
C  C123  1  0.21770525  0.56935248  0.82343073  1  -0.001888  0  -0.08721  -0.182254  0  3.920236  0
C  C124  1  0.21771107  0.06935428  0.67656913  1  -0.0024  0  -0.087146  -0.182124  0  3.92011  0
C  C125  1  0.78229068  0.43064652  0.17656892  1  -0.002442  0  -0.087178  -0.182182  0  3.920318  0
C  C126  1  0.51154375  0.93680611  0.27840705  1  -0.095055  0  -0.085999  -0.1834  0  3.936784  0
C  C127  1  0.48844469  0.56319107  0.77840226  1  -0.094851  0  -0.086079  -0.183419  0  3.936623  0
C  C128  1  0.48845852  0.06319663  0.72159162  1  -0.095115  0  -0.086022  -0.183426  0  3.936521  0
C  C129  1  0.51155279  0.43681533  0.22159740  1  -0.09491  0  -0.086117  -0.18358  0  3.936854  0
C  C130  1  0.72740975  0.95691117  0.38284592  1  0.454765  0  0.045379  0.109813  0  3.935498  0
C  C131  1  0.27257527  0.54308417  0.88284131  1  0.454818  0  0.045535  0.110132  0  3.93539  0
C  C132  1  0.27258200  0.04308657  0.61715815  1  0.455175  0  0.045487  0.109919  0  3.935594  0
C  C133  1  0.72741632  0.45690988  0.11715785  1  0.454834  0  0.045462  0.109914  0  3.935445  0
C  C134  1  0.46549608  0.96236927  0.33976102  1  0.505184  0  0.045081  0.101301  0  3.946897  0
C  C135  1  0.53449441  0.53762856  0.83975728  1  0.504882  0  0.045128  0.101386  0  3.946881  0
C  C136  1  0.53450008  0.03763035  0.66023667  1  0.505386  0  0.045062  0.101328  0  3.946846  0
C  C137  1  0.46550562  0.46237478  0.16024139  1  0.505072  0  0.045176  0.101462  0  3.946869  0
N  N138  1  0.62318099  0.38894032  0.96285957  1  -1.245222  0  -0.33083  -0.24724  0  3.493735  0
N  N139  1  0.37682176  0.11105933  0.46285792  1  -1.245095  0  -0.330825  -0.247252  0  3.493726  0
N  N140  1  0.37682012  0.61105932  0.03714205  1  -1.244876  0  -0.330822  -0.247259  0  3.493935  0
N  N141  1  0.62317440  0.88894029  0.53714026  1  -1.243155  0  -0.330825  -0.24729  0  3.493704  0
N  N142  1  0.57128414  0.97185037  0.39142917  1  -1.236022  0  -0.331335  -0.240994  0  3.492422  0
N  N143  1  0.42870197  0.52814436  0.89142529  1  -1.236087  0  -0.331307  -0.241185  0  3.492204  0
N  N144  1  0.42870142  0.02814734  0.60857048  1  -1.236326  0  -0.331303  -0.240962  0  3.492519  0
N  N145  1  0.57129404  0.47185156  0.10857290  1  -1.235943  0  -0.331262  -0.240939  0  3.492201  0
N  N146  1  0.83885107  0.62469762  0.94675035  1  0.807113  0  0.093138  0.719529  0  4.436994  0
N  N147  1  0.16114609  0.87530212  0.44675270  1  0.806961  0  0.093132  0.71952  0  4.436903  0
N  N148  1  0.16113968  0.37530073  0.05324440  1  0.806898  0  0.093127  0.71941  0  4.436988  0
N  N149  1  0.83884961  0.12469627  0.55324892  1  0.807131  0  0.093111  0.719567  0  4.436804  0
O  O150  1  0.77431404  0.58864437  0.00051343  1  -0.623662  0  -0.241167  -0.516265  0  2.038755  0
O  O151  1  0.22568415  0.91135279  0.50051696  1  -0.623752  0  -0.241117  -0.516177  0  2.038694  0
O  O152  1  0.22568297  0.41135094  0.99948131  1  -0.623835  0  -0.241102  -0.516113  0  2.038665  0
O  O153  1  0.77431332  0.08864375  0.49948515  1  -0.623734  0  -0.241115  -0.516229  0  2.038643  0
O  O154  1  0.90831713  0.58356958  0.90689679  1  -0.541018  0  -0.193233  -0.460392  0  1.984557  0
O  O155  1  0.09168282  0.91643202  0.40690000  1  -0.540918  0  -0.193271  -0.460377  0  1.984476  0
O  O156  1  0.09166789  0.41642998  0.09309501  1  -0.540883  0  -0.193247  -0.460332  0  1.984437  0
O  O157  1  0.90832270  0.08356950  0.59310112  1  -0.541035  0  -0.193221  -0.460377  0  1.98452  0
O  O158  1  0.83119434  0.69850167  0.93682730  1  -0.503719  0  -0.201121  -0.447827  0  1.929783  0
O  O159  1  0.16879777  0.80149804  0.43682625  1  -0.503559  0  -0.201122  -0.447892  0  1.929765  0
O  O160  1  0.16879687  0.30149792  0.06317285  1  -0.503478  0  -0.201172  -0.447908  0  1.929814  0
O  O161  1  0.83119003  0.19849907  0.56317389  1  -0.503635  0  -0.201166  -0.447925  0  1.929766  0
F  F162  1  0.16583249  0.19766077  0.93353888  1  -0.635966  0  -0.069285  -0.095865  0  1.42406  0
F  F163  1  0.83417600  0.30232535  0.43354468  1  -0.636004  0  -0.069267  -0.09583  0  1.424099  0
F  F164  1  0.83417085  0.80232841  0.06645587  1  -0.635995  0  -0.069268  -0.09591  0  1.423942  0
F  F165  1  0.16581358  0.69766992  0.56645890  1  -0.63598  0  -0.069223  -0.09584  0  1.424182  0
F  F166  1  0.62499404  0.07456345  0.00874089  1  -0.621222  0  -0.080558  -0.110964  0  1.442333  0
F  F167  1  0.37501487  0.42544412  0.50873579  1  -0.621253  0  -0.080623  -0.111022  0  1.442251  0
F  F168  1  0.37501450  0.92543624  0.99125975  1  -0.621116  0  -0.080625  -0.111058  0  1.442241  0
F  F169  1  0.62498254  0.57456536  0.49125945  1  -0.621066  0  -0.080663  -0.1111  0  1.44223  0
F  F170  1  0.31094191  0.13745801  0.03589079  1  -0.63873  0  -0.078475  -0.095631  0  1.421766  0
F  F171  1  0.68906622  0.36252060  0.53589745  1  -0.638528  0  -0.078434  -0.095544  0  1.421768  0
F  F172  1  0.68906430  0.86253550  0.96410543  1  -0.638669  0  -0.078487  -0.095628  0  1.421768  0
F  F173  1  0.31093186  0.63747102  0.46411398  1  -0.638827  0  -0.078454  -0.095545  0  1.421963  0
F  F174  1  0.59615289  0.97588480  0.10714430  1  -0.643987  0  -0.083203  -0.11968  0  1.426576  0
F  F175  1  0.40385157  0.52411982  0.60714283  1  -0.644065  0  -0.083213  -0.119702  0  1.426624  0
F  F176  1  0.40385557  0.02411797  0.89285683  1  -0.64414  0  -0.083218  -0.119709  0  1.426626  0
F  F177  1  0.59615495  0.47588109  0.39285780  1  -0.644004  0  -0.083153  -0.119611  0  1.426554  0
F  F178  1  0.28087842  0.04520305  0.14136628  1  -0.612044  0  -0.0886  -0.108238  0  1.393982  0
F  F179  1  0.71912121  0.45478972  0.64136363  1  -0.612204  0  -0.088587  -0.108211  0  1.393853  0
F  F180  1  0.71912849  0.95479231  0.85863239  1  -0.612103  0  -0.088583  -0.108213  0  1.393985  0
F  F181  1  0.28088493  0.54521673  0.35863750  1  -0.612205  0  -0.088577  -0.108156  0  1.393754  0
F  F182  1  0.08539791  0.93771800  0.21938058  1  -0.629327  0  -0.077545  -0.103644  0  1.387252  0
F  F183  1  0.91459995  0.56227614  0.71937886  1  -0.629225  0  -0.077556  -0.10366  0  1.387461  0
F  F184  1  0.91460769  0.06228044  0.78061809  1  -0.629289  0  -0.077561  -0.103703  0  1.387343  0
F  F185  1  0.08541338  0.43772974  0.28062080  1  -0.629211  0  -0.077558  -0.103611  0  1.387353  0
