# generated using pymatgen
data_AgH11C8NCl
_symmetry_space_group_name_H-M   'P 1'
_cell_length_a   4.06786161
_cell_length_b   13.98606245
_cell_length_c   15.28160572
_cell_angle_alpha   90.00029462
_cell_angle_beta   89.99935490
_cell_angle_gamma   94.21527497
_symmetry_Int_Tables_number   1
_chemical_formula_structural   AgH11C8NCl
_chemical_formula_sum   'Ag4 H44 C32 N4 Cl4'
_cell_volume   867.07013666
_cell_formula_units_Z   4
loop_
 _symmetry_equiv_pos_site_id
 _symmetry_equiv_pos_as_xyz
  1  'x, y, z'
loop_
 _atom_site_type_symbol
 _atom_site_label
 _atom_site_symmetry_multiplicity
 _atom_site_fract_x
 _atom_site_fract_y
 _atom_site_fract_z
 _atom_site_occupancy
 _atom_site_hle17_bader_spin_density
 _atom_site_hle17_ddec_charge
 _atom_site_hle17_ddec_spin_density
 _atom_site_hle17_ddec_sum_bond_order
 _atom_site_hle17_magmom
 _atom_site_hse06_10hf_bader_spin_density
 _atom_site_hse06_10hf_ddec_charge
 _atom_site_hse06_10hf_ddec_spin_density
 _atom_site_hse06_10hf_ddec_sum_bond_order
 _atom_site_hse06_10hf_magmom
 _atom_site_hse06_bader_spin_density
 _atom_site_hse06_ddec_charge
 _atom_site_hse06_ddec_spin_density
 _atom_site_hse06_ddec_sum_bond_order
 _atom_site_hse06_magmom
 _atom_site_pbe_bader_spin_density
 _atom_site_pbe_cm5_charge
 _atom_site_pbe_ddec_charge
 _atom_site_pbe_ddec_spin_density
 _atom_site_pbe_ddec_sum_bond_order
 _atom_site_pbe_magmom
Ag  Ag0  1  0.67769640  0.98289209  0.91085976  1  0  0.471812  0  1.605883  0  0  0.35959  0  2.074115  0  0  0.385615  0  2.02713  0  0  0.330398  0.34149  0  2.106533  0
Ag  Ag1  1  0.32231795  0.51710714  0.41086593  1  0  0.471789  0  1.605974  0  0  0.359541  0  2.074243  0  0  0.385554  0  2.02726  0  0  0.330404  0.341439  0  2.106655  0
Ag  Ag2  1  0.32233500  0.01711038  0.08913482  1  0  0.471781  0  1.605902  0  0  0.359576  0  2.074132  0  0  0.385592  0  2.02715  0  0  0.330401  0.341478  0  2.106547  0
Ag  Ag3  1  0.67767302  0.48289019  0.58913846  1  0  0.471773  0  1.605967  0  0  0.35953  0  2.074215  0  0  0.385545  0  2.027234  0  0  0.330394  0.341431  0  2.10663  0
H  H4  1  0.73233613  0.85017027  0.74507770  1  0  0.118027  0  0.952319  0  0  0.140901  0  1.015114  0  0  0.142094  0  1.014989  0  0  0.094225  0.139984  0  1.015288  0
H  H5  1  0.26760824  0.64982577  0.24508859  1  0  0.118025  0  0.952437  0  0  0.14092  0  1.015185  0  0  0.142118  0  1.015054  0  0  0.094279  0.140003  0  1.015361  0
H  H6  1  0.26767975  0.14982857  0.25491622  1  0  0.118025  0  0.952239  0  0  0.140883  0  1.015052  0  0  0.142086  0  1.014915  0  0  0.094235  0.139965  0  1.015227  0
H  H7  1  0.73233860  0.35017212  0.75491908  1  0  0.118031  0  0.952378  0  0  0.140887  0  1.015182  0  0  0.14208  0  1.015057  0  0  0.094219  0.139973  0  1.015354  0
H  H8  1  0.04746915  0.87863556  0.66639598  1  0  0.109167  0  0.964927  0  0  0.131727  0  1.023306  0  0  0.133224  0  1.023054  0  0  0.090114  0.130637  0  1.023503  0
H  H9  1  0.95248995  0.62135656  0.16641316  1  0  0.109255  0  0.965086  0  0  0.131811  0  1.023456  0  0  0.133301  0  1.023208  0  0  0.090134  0.130721  0  1.023653  0
H  H10  1  0.95256025  0.12136905  0.33359664  1  0  0.10916  0  0.965194  0  0  0.1317  0  1.023566  0  0  0.133191  0  1.023322  0  0  0.090104  0.13061  0  1.02376  0
H  H11  1  0.04745628  0.37863846  0.83359712  1  0  0.109186  0  0.965145  0  0  0.131715  0  1.023546  0  0  0.13321  0  1.023297  0  0  0.090101  0.130625  0  1.023743  0
H  H12  1  0.10283019  0.91330521  0.77846797  1  0  0.11875  0  0.977751  0  0  0.132251  0  1.055054  0  0  0.134592  0  1.053041  0  0  0.085779  0.130498  0  1.056538  0
H  H13  1  0.89715050  0.58668323  0.27847927  1  0  0.118743  0  0.977763  0  0  0.13226  0  1.055091  0  0  0.134605  0  1.053074  0  0  0.085747  0.130509  0  1.056572  0
H  H14  1  0.89718646  0.08669721  0.22152923  1  0  0.118733  0  0.977809  0  0  0.132231  0  1.055119  0  0  0.134573  0  1.053105  0  0  0.085779  0.130479  0  1.056601  0
H  H15  1  0.10282448  0.41330830  0.72153233  1  0  0.11873  0  0.977798  0  0  0.132228  0  1.055101  0  0  0.13457  0  1.053086  0  0  0.085777  0.130477  0  1.056584  0
H  H16  1  0.86742824  0.99399918  0.56717703  1  0  0.098385  0  0.973779  0  0  0.111386  0  1.035501  0  0  0.114079  0  1.035509  0  0  0.098718  0.109488  0  1.035638  0
H  H17  1  0.13253320  0.50599605  0.06718503  1  0  0.098397  0  0.973669  0  0  0.111405  0  1.035361  0  0  0.114099  0  1.035369  0  0  0.098713  0.109506  0  1.035499  0
H  H18  1  0.13256550  0.00599958  0.43282279  1  0  0.098348  0  0.973649  0  0  0.111336  0  1.035401  0  0  0.114029  0  1.035409  0  0  0.098684  0.109439  0  1.035534  0
H  H19  1  0.86741610  0.49400185  0.93281871  1  0  0.098302  0  0.973794  0  0  0.11131  0  1.035502  0  0  0.114003  0  1.035511  0  0  0.09868  0.109412  0  1.035639  0
H  H20  1  0.35921919  0.18082102  0.49869290  1  0  0.117564  0  0.950754  0  0  0.14046  0  1.009582  0  0  0.141696  0  1.009887  0  0  0.091848  0.139532  0  1.009407  0
H  H21  1  0.64076665  0.31917860  0.99869588  1  0  0.117549  0  0.950742  0  0  0.140499  0  1.009525  0  0  0.141734  0  1.00983  0  0  0.091884  0.139571  0  1.009349  0
H  H22  1  0.64075471  0.81917696  0.50130496  1  0  0.117583  0  0.950702  0  0  0.140481  0  1.009542  0  0  0.14172  0  1.009839  0  0  0.091818  0.139553  0  1.009366  0
H  H23  1  0.35922078  0.68082516  0.00130786  1  0  0.117557  0  0.950672  0  0  0.140463  0  1.009494  0  0  0.141701  0  1.009795  0  0  0.091837  0.139534  0  1.009318  0
H  H24  1  0.76966089  0.22826843  0.50980444  1  0  0.131648  0  0.967239  0  0  0.151321  0  1.029338  0  0  0.152924  0  1.029484  0  0  0.087039  0.150062  0  1.029385  0
H  H25  1  0.23032821  0.27173168  0.00980882  1  0  0.131649  0  0.967212  0  0  0.151322  0  1.029323  0  0  0.152925  0  1.02947  0  0  0.087057  0.150061  0  1.029371  0
H  H26  1  0.23033837  0.77173321  0.49019210  1  0  0.131655  0  0.967256  0  0  0.151338  0  1.02934  0  0  0.152938  0  1.029489  0  0  0.087055  0.150078  0  1.029386  0
H  H27  1  0.76966644  0.72827138  0.99019296  1  0  0.131647  0  0.967168  0  0  0.15134  0  1.029241  0  0  0.152943  0  1.029389  0  0  0.087042  0.150079  0  1.029289  0
H  H28  1  0.68615640  0.11080304  0.46459569  1  0  0.095109  0  0.976534  0  0  0.11473  0  1.043544  0  0  0.116206  0  1.043318  0  0  0.083774  0.113672  0  1.043699  0
H  H29  1  0.31384328  0.38919718  0.96460065  1  0  0.095174  0  0.976474  0  0  0.114771  0  1.043508  0  0  0.116243  0  1.043287  0  0  0.08381  0.113714  0  1.043665  0
H  H30  1  0.31383718  0.88919501  0.53539758  1  0  0.095164  0  0.976559  0  0  0.114785  0  1.043557  0  0  0.116255  0  1.043338  0  0  0.083811  0.113727  0  1.043712  0
H  H31  1  0.68617044  0.61080308  0.03540506  1  0  0.095118  0  0.9765  0  0  0.114708  0  1.043536  0  0  0.116183  0  1.043314  0  0  0.08376  0.113649  0  1.043692  0
H  H32  1  0.38082890  0.23460082  0.66603993  1  0  0.11583  0  0.952595  0  0  0.126501  0  1.014823  0  0  0.129555  0  1.014479  0  0  0.10038  0.124242  0  1.015329  0
H  H33  1  0.61919168  0.26540446  0.16604245  1  0  0.115865  0  0.952552  0  0  0.126514  0  1.01481  0  0  0.12957  0  1.014463  0  0  0.100407  0.124254  0  1.015318  0
H  H34  1  0.61919005  0.76540090  0.33395465  1  0  0.115845  0  0.952626  0  0  0.126474  0  1.014898  0  0  0.129547  0  1.014533  0  0  0.100387  0.124216  0  1.015403  0
H  H35  1  0.38083849  0.73460374  0.83395802  1  0  0.115771  0  0.95269  0  0  0.126447  0  1.014918  0  0  0.129493  0  1.014585  0  0  0.100376  0.124189  0  1.015423  0
H  H36  1  0.58205213  0.19852951  0.88400420  1  0  0.123747  0  0.959112  0  0  0.144944  0  1.02007  0  0  0.14615  0  1.020496  0  0  0.090542  0.144  0  1.019858  0
H  H37  1  0.41796528  0.30146894  0.38400684  1  0  0.123779  0  0.959067  0  0  0.144948  0  1.020039  0  0  0.146153  0  1.020467  0  0  0.090525  0.144004  0  1.019824  0
H  H38  1  0.41796436  0.80147219  0.11599234  1  0  0.123794  0  0.959051  0  0  0.144961  0  1.020018  0  0  0.146167  0  1.020445  0  0  0.090528  0.144017  0  1.019804  0
H  H39  1  0.58205291  0.69852919  0.61599559  1  0  0.123708  0  0.959145  0  0  0.144908  0  1.020098  0  0  0.146111  0  1.020529  0  0  0.090522  0.143964  0  1.019883  0
H  H40  1  0.25544618  0.24010141  0.81895797  1  0  0.112548  0  0.959589  0  0  0.13874  0  1.011819  0  0  0.139745  0  1.012598  0  0  0.091366  0.138008  0  1.011266  0
H  H41  1  0.74456219  0.25989956  0.31895942  1  0  0.112567  0  0.959598  0  0  0.138743  0  1.011826  0  0  0.139748  0  1.012607  0  0  0.091377  0.138009  0  1.011273  0
H  H42  1  0.74456816  0.75990172  0.18103727  1  0  0.112615  0  0.959485  0  0  0.138799  0  1.011704  0  0  0.139804  0  1.012484  0  0  0.0914  0.138067  0  1.011149  0
H  H43  1  0.25545676  0.74010215  0.68103908  1  0  0.112498  0  0.959659  0  0  0.138709  0  1.011853  0  0  0.139713  0  1.012632  0  0  0.091335  0.137976  0  1.011299  0
H  H44  1  0.20805469  0.12764899  0.87391797  1  0  0.115779  0  0.979805  0  0  0.125997  0  1.067248  0  0  0.129125  0  1.063425  0  0  0.082401  0.123667  0  1.070062  0
H  H45  1  0.79195329  0.37234938  0.37392046  1  0  0.115833  0  0.979777  0  0  0.126023  0  1.067231  0  0  0.129149  0  1.063409  0  0  0.082414  0.123693  0  1.070043  0
H  H46  1  0.79196441  0.87235344  0.12607727  1  0  0.115849  0  0.979886  0  0  0.12606  0  1.067306  0  0  0.12919  0  1.063482  0  0  0.082439  0.123729  0  1.070122  0
H  H47  1  0.20806336  0.62765304  0.62608131  1  0  0.115782  0  0.979823  0  0  0.12598  0  1.067286  0  0  0.129106  0  1.063466  0  0  0.082384  0.12365  0  1.070101  0
C  C48  1  0.77816358  0.99789381  0.70561747  1  0  0.323866  0  3.749395  0  0  0.330124  0  3.992332  0  0  0.340687  0  4.012803  0  0  0.115679  0.323112  0  3.97829  0
C  C49  1  0.22181883  0.50210002  0.20562584  1  0  0.323666  0  3.749546  0  0  0.330085  0  3.992244  0  0  0.340644  0  4.012713  0  0  0.115647  0.323072  0  3.978204  0
C  C50  1  0.22184768  0.00210645  0.29437842  1  0  0.323523  0  3.749563  0  0  0.329908  0  3.992345  0  0  0.340463  0  4.012821  0  0  0.115538  0.322898  0  3.978301  0
C  C51  1  0.77815999  0.49789798  0.79438314  1  0  0.323522  0  3.749369  0  0  0.329829  0  3.992234  0  0  0.340389  0  4.012712  0  0  0.115569  0.322818  0  3.978193  0
C  C52  1  0.92443313  0.90499404  0.72445471  1  0  -0.375663  0  3.701063  0  0  -0.45833  0  3.937125  0  0  -0.461182  0  3.943367  0  0  -0.245076  -0.45607  0  3.932774  0
C  C53  1  0.07554052  0.59499698  0.22446527  1  0  -0.375724  0  3.701562  0  0  -0.458471  0  3.937474  0  0  -0.461326  0  3.943713  0  0  -0.245146  -0.45621  0  3.933123  0
C  C54  1  0.07558766  0.09500481  0.27554053  1  0  -0.375603  0  3.701262  0  0  -0.458264  0  3.93725  0  0  -0.461126  0  3.943488  0  0  -0.245075  -0.456002  0  3.932896  0
C  C55  1  0.92442447  0.40499381  0.77554371  1  0  -0.375631  0  3.701287  0  0  -0.458286  0  3.937307  0  0  -0.461141  0  3.943555  0  0  -0.24509  -0.456025  0  3.932955  0
C  C56  1  0.76531786  0.03401943  0.62064771  1  0  -0.26083  0  3.701322  0  0  -0.284209  0  3.941862  0  0  -0.29514  0  3.963922  0  0  -0.101501  -0.277163  0  3.927136  0
C  C57  1  0.23466075  0.46597618  0.12065495  1  0  -0.260819  0  3.701205  0  0  -0.284257  0  3.941658  0  0  -0.295191  0  3.96372  0  0  -0.101551  -0.27721  0  3.926936  0
C  C58  1  0.23468341  0.96598008  0.37934622  1  0  -0.26077  0  3.701249  0  0  -0.28416  0  3.941748  0  0  -0.295092  0  3.963812  0  0  -0.101478  -0.27711  0  3.92702  0
C  C59  1  0.76530915  0.53402609  0.87935206  1  0  -0.260672  0  3.701493  0  0  -0.284057  0  3.941953  0  0  -0.29499  0  3.964017  0  0  -0.101476  -0.277011  0  3.927227  0
C  C60  1  0.62439392  0.12028090  0.60420744  1  0  0.223995  0  3.761122  0  0  0.244233  0  4.001185  0  0  0.252319  0  4.02145  0  0  0.008648  0.238972  0  3.987268  0
C  C61  1  0.37560550  0.37971685  0.10421385  1  0  0.223997  0  3.761112  0  0  0.244254  0  4.00116  0  0  0.252342  0  4.021422  0  0  0.008684  0.238992  0  3.987242  0
C  C62  1  0.37560182  0.87971572  0.39578256  1  0  0.224119  0  3.760886  0  0  0.244306  0  4.000997  0  0  0.25239  0  4.021263  0  0  0.008742  0.239044  0  3.987081  0
C  C63  1  0.62438593  0.62028263  0.89579316  1  0  0.223991  0  3.761648  0  0  0.244241  0  4.001657  0  0  0.252328  0  4.021922  0  0  0.008668  0.238983  0  3.987732  0
C  C64  1  0.60952903  0.16140016  0.51409857  1  0  -0.355056  0  3.703936  0  0  -0.433176  0  3.933638  0  0  -0.436624  0  3.941177  0  0  -0.24421  -0.430513  0  3.928319  0
C  C65  1  0.39046283  0.33860214  0.01410802  1  0  -0.355107  0  3.703981  0  0  -0.433281  0  3.933714  0  0  -0.436728  0  3.941255  0  0  -0.244303  -0.430611  0  3.928396  0
C  C66  1  0.39046025  0.83860074  0.48589273  1  0  -0.355206  0  3.703962  0  0  -0.433348  0  3.933717  0  0  -0.436792  0  3.941258  0  0  -0.244273  -0.430681  0  3.928397  0
C  C67  1  0.60953337  0.66139664  0.98589638  1  0  -0.355039  0  3.704036  0  0  -0.433164  0  3.933728  0  0  -0.436616  0  3.941272  0  0  -0.244157  -0.430497  0  3.928405  0
C  C68  1  0.49799055  0.16769792  0.67599667  1  0  -0.243443  0  3.663002  0  0  -0.268052  0  3.902838  0  0  -0.278736  0  3.924426  0  0  -0.095425  -0.261182  0  3.888586  0
C  C69  1  0.50200871  0.33230160  0.17599985  1  0  -0.243425  0  3.663151  0  0  -0.268056  0  3.902981  0  0  -0.278742  0  3.92457  0  0  -0.095467  -0.261185  0  3.888729  0
C  C70  1  0.50201718  0.83229731  0.32399791  1  0  -0.24339  0  3.663012  0  0  -0.267944  0  3.902803  0  0  -0.278643  0  3.924385  0  0  -0.095453  -0.261074  0  3.888552  0
C  C71  1  0.49800101  0.66770294  0.82400520  1  0  -0.243393  0  3.66306  0  0  -0.268054  0  3.902874  0  0  -0.278733  0  3.924467  0  0  -0.095472  -0.261185  0  3.888619  0
C  C72  1  0.51558221  0.12875184  0.75972401  1  0  0.321828  0  3.739823  0  0  0.330413  0  3.979539  0  0  0.34066  0  4.000307  0  0  0.116509  0.323575  0  3.965339  0
C  C73  1  0.48441795  0.37124523  0.25972743  1  0  0.321758  0  3.739896  0  0  0.330383  0  3.979546  0  0  0.340626  0  4.000312  0  0  0.11646  0.323547  0  3.965344  0
C  C74  1  0.48443428  0.87124987  0.24027254  1  0  0.321562  0  3.739824  0  0  0.330217  0  3.979441  0  0  0.340458  0  4.000216  0  0  0.116448  0.323381  0  3.965241  0
C  C75  1  0.51557563  0.62875282  0.74027828  1  0  0.321735  0  3.73975  0  0  0.330386  0  3.979384  0  0  0.340632  0  4.000154  0  0  0.116533  0.323552  0  3.965182  0
C  C76  1  0.38269811  0.17697278  0.83790917  1  0  -0.380499  0  3.709606  0  0  -0.463393  0  3.943852  0  0  -0.466968  0  3.95123  0  0  -0.248949  -0.460624  0  3.938736  0
C  C77  1  0.61731856  0.32302473  0.33791392  1  0  -0.380566  0  3.70943  0  0  -0.463452  0  3.943749  0  0  -0.467025  0  3.951129  0  0  -0.248967  -0.460686  0  3.938629  0
C  C78  1  0.61732315  0.82302823  0.16208279  1  0  -0.38059  0  3.70932  0  0  -0.463526  0  3.943672  0  0  -0.467102  0  3.951042  0  0  -0.248989  -0.460756  0  3.938556  0
C  C79  1  0.38269778  0.67697626  0.66208982  1  0  -0.380408  0  3.709656  0  0  -0.463334  0  3.943886  0  0  -0.466909  0  3.95127  0  0  -0.248917  -0.460567  0  3.938765  0
N  N80  1  0.65497546  0.04496544  0.77399697  1  0  -0.407211  0  3.188899  0  0  -0.33144  0  3.447176  0  0  -0.353427  0  3.463008  0  0  -0.339833  -0.3166  0  3.436186  0
N  N81  1  0.34502674  0.45503242  0.27400579  1  0  -0.407086  0  3.188782  0  0  -0.331311  0  3.446857  0  0  -0.353279  0  3.46267  0  0  -0.339716  -0.316469  0  3.435864  0
N  N82  1  0.34504334  0.95503555  0.22599892  1  0  -0.406854  0  3.188708  0  0  -0.331152  0  3.4469  0  0  -0.353117  0  3.462706  0  0  -0.339684  -0.316313  0  3.435911  0
N  N83  1  0.65496408  0.54496418  0.72599926  1  0  -0.406928  0  3.188741  0  0  -0.331152  0  3.446878  0  0  -0.353119  0  3.462676  0  0  -0.3397  -0.316312  0  3.435887  0
Cl  Cl84  1  0.15420096  0.88143691  0.96172801  1  0  -0.575358  0  1.235027  0  0  -0.484703  0  1.591861  0  0  -0.506578  0  1.560666  0  0  -0.292417  -0.468781  0  1.613111  0
Cl  Cl85  1  0.84579656  0.61856251  0.46173372  1  0  -0.575304  0  1.235019  0  0  -0.484649  0  1.591868  0  0  -0.506509  0  1.560653  0  0  -0.292398  -0.468727  0  1.613117  0
Cl  Cl86  1  0.84583029  0.11856484  0.03826985  1  0  -0.575325  0  1.234987  0  0  -0.484673  0  1.591807  0  0  -0.506545  0  1.56061  0  0  -0.292406  -0.468749  0  1.613054  0
Cl  Cl87  1  0.15418226  0.38143549  0.53827198  1  0  -0.575308  0  1.235022  0  0  -0.484636  0  1.591836  0  0  -0.506509  0  1.560642  0  0  -0.292402  -0.468716  0  1.613085  0
