# generated using pymatgen
data_ZnH12C16(NO)4
_symmetry_space_group_name_H-M   'P 1'
_cell_length_a   7.28515376
_cell_length_b   10.88616872
_cell_length_c   11.57955218
_cell_angle_alpha   118.10321540
_cell_angle_beta   108.48178407
_cell_angle_gamma   89.72690829
_symmetry_Int_Tables_number   1
_chemical_formula_structural   ZnH12C16(NO)4
_chemical_formula_sum   'Zn2 H24 C32 N8 O8'
_cell_volume   756.73520368
_cell_formula_units_Z   2
loop_
 _symmetry_equiv_pos_site_id
 _symmetry_equiv_pos_as_xyz
  1  'x, y, z'
loop_
 _atom_site_type_symbol
 _atom_site_label
 _atom_site_symmetry_multiplicity
 _atom_site_fract_x
 _atom_site_fract_y
 _atom_site_fract_z
 _atom_site_occupancy
 _atom_site_hle17_bader_spin_density
 _atom_site_hle17_ddec_charge
 _atom_site_hle17_ddec_spin_density
 _atom_site_hle17_ddec_sum_bond_order
 _atom_site_hle17_magmom
 _atom_site_hse06_10hf_bader_spin_density
 _atom_site_hse06_10hf_ddec_charge
 _atom_site_hse06_10hf_ddec_spin_density
 _atom_site_hse06_10hf_ddec_sum_bond_order
 _atom_site_hse06_10hf_magmom
 _atom_site_hse06_bader_spin_density
 _atom_site_hse06_ddec_charge
 _atom_site_hse06_ddec_spin_density
 _atom_site_hse06_ddec_sum_bond_order
 _atom_site_hse06_magmom
 _atom_site_pbe_bader_spin_density
 _atom_site_pbe_cm5_charge
 _atom_site_pbe_ddec_charge
 _atom_site_pbe_ddec_spin_density
 _atom_site_pbe_ddec_sum_bond_order
 _atom_site_pbe_magmom
Zn  Zn0  1  0.05588654  0.80638987  0.61244200  1  0  1.011837  0  1.842394  0  0  0.82154  0  2.311052  0  0  0.869401  0  2.25596  0  0  0.69404  0.788243  0  2.348771  0
Zn  Zn1  1  0.94411143  0.19361100  0.38756061  1  0  1.011833  0  1.84237  0  0  0.821541  0  2.31102  0  0  0.869399  0  2.255933  0  0  0.694041  0.788247  0  2.34874  0
H  H2  1  0.48414372  0.94185360  0.83203641  1  0  0.111673  0  0.989716  0  0  0.118296  0  1.053422  0  0  0.120747  0  1.053071  0  0  0.116709  0.116325  0  1.054252  0
H  H3  1  0.84730902  0.89038512  0.83200668  1  0  0.111303  0  0.989832  0  0  0.118022  0  1.05372  0  0  0.120447  0  1.053392  0  0  0.116621  0.116138  0  1.054421  0
H  H4  1  0.51585830  0.05814617  0.16796392  1  0  0.111674  0  0.989698  0  0  0.118288  0  1.053426  0  0  0.120739  0  1.053073  0  0  0.116702  0.116309  0  1.054267  0
H  H5  1  0.15268896  0.10961575  0.16799592  1  0  0.111247  0  0.989897  0  0  0.117963  0  1.053803  0  0  0.120381  0  1.053482  0  0  0.116596  0.116087  0  1.054484  0
H  H6  1  0.67799218  0.83601919  0.00783547  1  0  0.119191  0  0.96681  0  0  0.127275  0  1.029173  0  0  0.129627  0  1.028898  0  0  0.124606  0.125436  0  1.029746  0
H  H7  1  0.82911226  0.17183361  0.00761766  1  0  0.120752  0  0.966237  0  0  0.129412  0  1.027887  0  0  0.131712  0  1.027735  0  0  0.125644  0.127621  0  1.028397  0
H  H8  1  0.32200722  0.16398166  0.99216568  1  0  0.119211  0  0.966785  0  0  0.127296  0  1.029145  0  0  0.12965  0  1.028867  0  0  0.124618  0.125454  0  1.02972  0
H  H9  1  0.17089001  0.82816720  0.99238145  1  0  0.120771  0  0.966167  0  0  0.129439  0  1.027812  0  0  0.131736  0  1.027658  0  0  0.125653  0.127647  0  1.028321  0
H  H10  1  0.13711441  0.56448644  0.71401088  1  0  0.113598  0  0.939003  0  0  0.122089  0  1.000633  0  0  0.124549  0  0.998019  0  0  0.142637  0.120216  0  1.002732  0
H  H11  1  0.07712358  0.14979407  0.71428925  1  0  0.113595  0  0.939437  0  0  0.122269  0  1.000894  0  0  0.124763  0  0.998212  0  0  0.142637  0.120442  0  1.002877  0
H  H12  1  0.86288669  0.43551544  0.28598932  1  0  0.1136  0  0.938999  0  0  0.122096  0  1.00062  0  0  0.124557  0  0.998005  0  0  0.142647  0.120223  0  1.002718  0
H  H13  1  0.92287439  0.85020679  0.28571249  1  0  0.113607  0  0.939444  0  0  0.122299  0  1.000875  0  0  0.124793  0  0.998194  0  0  0.142643  0.12047  0  1.002863  0
H  H14  1  0.56019124  0.76195036  0.15146631  1  0  0.124575  0  0.98203  0  0  0.130003  0  1.051916  0  0  0.13414  0  1.048271  0  0  0.107315  0.126968  0  1.05463  0
H  H15  1  0.09122130  0.38939107  0.15149997  1  0  0.123685  0  0.982877  0  0  0.129528  0  1.052163  0  0  0.133681  0  1.048487  0  0  0.106649  0.126542  0  1.054816  0
H  H16  1  0.43980933  0.23804940  0.84853287  1  0  0.124542  0  0.982048  0  0  0.129971  0  1.051934  0  0  0.134105  0  1.048295  0  0  0.107297  0.126934  0  1.054651  0
H  H17  1  0.90878324  0.61061295  0.84850530  1  0  0.123753  0  0.982822  0  0  0.1296  0  1.052119  0  0  0.133751  0  1.048439  0  0  0.106676  0.126617  0  1.054768  0
H  H18  1  0.63790999  0.60985156  0.26074392  1  0  0.123068  0  0.963946  0  0  0.131405  0  1.024546  0  0  0.135265  0  1.021897  0  0  0.109192  0.128458  0  1.026842  0
H  H19  1  0.12294352  0.65071009  0.26074193  1  0  0.123164  0  0.963379  0  0  0.131001  0  1.024521  0  0  0.134889  0  1.02184  0  0  0.108916  0.128249  0  1.02653  0
H  H20  1  0.36208743  0.39014716  0.73925418  1  0  0.123034  0  0.963972  0  0  0.13137  0  1.024577  0  0  0.135231  0  1.021926  0  0  0.109186  0.128423  0  1.026874  0
H  H21  1  0.87705498  0.34929290  0.73926169  1  0  0.123112  0  0.9634  0  0  0.13098  0  1.024509  0  0  0.134867  0  1.021829  0  0  0.108898  0.128229  0  1.026518  0
H  H22  1  0.39992047  0.85675127  0.36742499  1  0  0.116085  0  0.945486  0  0  0.123652  0  1.007941  0  0  0.127791  0  1.005972  0  0  0.105439  0.120622  0  1.009674  0
H  H23  1  0.46720580  0.51013364  0.36704419  1  0  0.116456  0  0.945062  0  0  0.124054  0  1.007478  0  0  0.128208  0  1.005534  0  0  0.105307  0.12095  0  1.009391  0
H  H24  1  0.60006735  0.14323793  0.63256449  1  0  0.116086  0  0.945554  0  0  0.12366  0  1.007983  0  0  0.127801  0  1.00601  0  0  0.105467  0.120633  0  1.009716  0
H  H25  1  0.53279476  0.48986610  0.63295325  1  0  0.116443  0  0.945006  0  0  0.124031  0  1.007432  0  0  0.128183  0  1.005489  0  0  0.105299  0.120927  0  1.009347  0
C  C26  1  0.44273109  0.84848412  0.83531543  1  0  0.001618  0  3.737177  0  0  -0.03068  0  3.996095  0  0  -0.029033  0  4.016427  0  0  -0.001014  -0.032067  0  3.982875  0
C  C27  1  0.89215406  0.98702047  0.83532734  1  0  0.001997  0  3.736059  0  0  -0.030133  0  3.994898  0  0  -0.028451  0  4.015218  0  0  -0.000729  -0.031631  0  3.981814  0
C  C28  1  0.55727119  0.15151670  0.16468454  1  0  0.001656  0  3.737164  0  0  -0.030633  0  3.996077  0  0  -0.028985  0  4.01641  0  0  -0.00098  -0.032014  0  3.982867  0
C  C29  1  0.10784851  0.01298144  0.16467575  1  0  0.00199  0  3.736026  0  0  -0.030149  0  3.994842  0  0  -0.02846  0  4.015165  0  0  -0.000743  -0.031647  0  3.981764  0
C  C30  1  0.53882888  0.79729140  0.92145800  1  0  -0.050568  0  3.64524  0  0  -0.088534  0  3.902792  0  0  -0.086907  0  3.920323  0  0  0.003696  -0.089456  0  3.891008  0
C  C31  1  0.88211307  0.12426740  0.92137147  1  0  -0.053373  0  3.643642  0  0  -0.091529  0  3.901131  0  0  -0.089931  0  3.918713  0  0  0.001969  -0.092492  0  3.889432  0
C  C32  1  0.46117342  0.20270944  0.07854371  1  0  -0.050561  0  3.645328  0  0  -0.088527  0  3.902876  0  0  -0.086898  0  3.9204  0  0  0.003716  -0.089449  0  3.891093  0
C  C33  1  0.11788950  0.87573452  0.07863249  1  0  -0.053364  0  3.643422  0  0  -0.091509  0  3.900951  0  0  -0.089908  0  3.918535  0  0  0.001969  -0.092472  0  3.889253  0
C  C34  1  0.25677033  0.65258592  0.76780693  1  0  0.181648  0  3.629227  0  0  0.116505  0  3.90243  0  0  0.131319  0  3.913243  0  0  0.1506  0.106442  0  3.895227  0
C  C35  1  0.01108639  0.11547392  0.76801271  1  0  0.182713  0  3.626466  0  0  0.117839  0  3.90014  0  0  0.132651  0  3.910881  0  0  0.15146  0.107838  0  3.892775  0
C  C36  1  0.74323052  0.34741492  0.23219363  1  0  0.181681  0  3.629199  0  0  0.116546  0  3.902399  0  0  0.13136  0  3.913211  0  0  0.150611  0.106483  0  3.895196  0
C  C37  1  0.98891183  0.88452799  0.23198866  1  0  0.182773  0  3.626488  0  0  0.117897  0  3.900164  0  0  0.132712  0  3.910905  0  0  0.151522  0.107895  0  3.892801  0
C  C38  1  0.45990750  0.58437517  0.93908234  1  0  0.169016  0  3.785404  0  0  0.16046  0  4.034665  0  0  0.164856  0  4.058345  0  0  0.090968  0.1574  0  4.018622  0
C  C39  1  0.97918973  0.35478104  0.93909146  1  0  0.16959  0  3.785177  0  0  0.160827  0  4.035093  0  0  0.165222  0  4.05875  0  0  0.091659  0.157844  0  4.018968  0
C  C40  1  0.54009164  0.41562461  0.06091743  1  0  0.168986  0  3.785424  0  0  0.160403  0  4.034717  0  0  0.164799  0  4.058397  0  0  0.090941  0.157343  0  4.018673  0
C  C41  1  0.02081573  0.64522085  0.06091220  1  0  0.169622  0  3.785094  0  0  0.160954  0  4.034936  0  0  0.165356  0  4.058583  0  0  0.091637  0.157971  0  4.018808  0
C  C42  1  0.53719520  0.64734060  0.08508854  1  0  -0.14071  0  3.72455  0  0  -0.16419  0  3.981904  0  0  -0.167166  0  4.001775  0  0  -0.091292  -0.161926  0  3.968384  0
C  C43  1  0.04797947  0.43766375  0.08509744  1  0  -0.140135  0  3.724471  0  0  -0.163522  0  3.981688  0  0  -0.166504  0  4.001563  0  0  -0.0903  -0.161333  0  3.968245  0
C  C44  1  0.46280485  0.35265705  0.91490962  1  0  -0.140676  0  3.724503  0  0  -0.164145  0  3.981859  0  0  -0.167122  0  4.00173  0  0  -0.091274  -0.161881  0  3.968337  0
C  C45  1  0.95203203  0.56233918  0.91490787  1  0  -0.140212  0  3.724346  0  0  -0.163658  0  3.981591  0  0  -0.166637  0  4.001458  0  0  -0.090305  -0.16147  0  3.968151  0
C  C46  1  0.57846362  0.56239503  0.14672982  1  0  -0.12655  0  3.719369  0  0  -0.144303  0  3.96771  0  0  -0.148041  0  3.988513  0  0  -0.085057  -0.141621  0  3.953999  0
C  C47  1  0.06828349  0.58417798  0.14674940  1  0  -0.127248  0  3.720466  0  0  -0.144592  0  3.969461  0  0  -0.148326  0  3.99019  0  0  -0.085585  -0.142017  0  3.955571  0
C  C48  1  0.42153406  0.43760475  0.85326879  1  0  -0.126551  0  3.719339  0  0  -0.144314  0  3.967683  0  0  -0.148049  0  3.98848  0  0  -0.085092  -0.14163  0  3.953969  0
C  C49  1  0.93172369  0.41582499  0.85325680  1  0  -0.127157  0  3.720441  0  0  -0.144488  0  3.969463  0  0  -0.148218  0  3.990191  0  0  -0.085566  -0.141922  0  3.955591  0
C  C50  1  0.31667448  0.93269333  0.55564944  1  0  0.673387  0  3.914431  0  0  0.63248  0  4.198235  0  0  0.666606  0  4.189966  0  0  0.20041  0.609395  0  4.202933  0
C  C51  1  0.73853363  0.62307861  0.55538291  1  0  0.668235  0  3.917043  0  0  0.627712  0  4.200745  0  0  0.661823  0  4.192545  0  0  0.198254  0.604663  0  4.205338  0
C  C52  1  0.68332044  0.06730115  0.44434460  1  0  0.673264  0  3.914673  0  0  0.632348  0  4.198497  0  0  0.666475  0  4.190229  0  0  0.200358  0.609261  0  4.203193  0
C  C53  1  0.26146747  0.37692328  0.44461816  1  0  0.66825  0  3.917007  0  0  0.627732  0  4.200699  0  0  0.661845  0  4.192495  0  0  0.198264  0.604682  0  4.205294  0
C  C54  1  0.43101534  0.94384194  0.47368916  1  0  -0.155414  0  3.650024  0  0  -0.174261  0  3.903238  0  0  -0.179915  0  3.918045  0  0  -0.085202  -0.170523  0  3.893279  0
C  C55  1  0.54247742  0.52971511  0.47349158  1  0  -0.15359  0  3.650095  0  0  -0.172579  0  3.903327  0  0  -0.178289  0  3.918247  0  0  -0.08417  -0.168812  0  3.893377  0
C  C56  1  0.56897395  0.05614729  0.52630320  1  0  -0.155328  0  3.650053  0  0  -0.174139  0  3.90322  0  0  -0.179792  0  3.918026  0  0  -0.08523  -0.170403  0  3.89326  0
C  C57  1  0.45752025  0.47028465  0.52650617  1  0  -0.153585  0  3.650106  0  0  -0.172571  0  3.903343  0  0  -0.178281  0  3.918261  0  0  -0.084107  -0.168806  0  3.893399  0
N  N58  1  0.26663337  0.75815523  0.74102138  1  0  -0.382913  0  3.299402  0  0  -0.300412  0  3.596355  0  0  -0.32114  0  3.608962  0  0  -0.354988  -0.286023  0  3.587609  0
N  N59  1  0.97425547  0.98313336  0.74119551  1  0  -0.382296  0  3.298108  0  0  -0.300643  0  3.596114  0  0  -0.321358  0  3.608643  0  0  -0.354613  -0.286365  0  3.587461  0
N  N60  1  0.73336630  0.24184668  0.25898028  1  0  -0.382925  0  3.299417  0  0  -0.300448  0  3.596388  0  0  -0.321175  0  3.608995  0  0  -0.35501  -0.28606  0  3.587643  0
N  N61  1  0.02574369  0.01686646  0.25880686  1  0  -0.382282  0  3.298179  0  0  -0.300606  0  3.596163  0  0  -0.321325  0  3.608694  0  0  -0.354637  -0.28633  0  3.587515  0
N  N62  1  0.42011909  0.67256043  0.87725760  1  0  -0.097804  0  3.603956  0  0  -0.008142  0  3.818805  0  0  -0.022908  0  3.844028  0  0  -0.225548  0.002022  0  3.801462  0
N  N63  1  0.95697555  0.20483647  0.87730221  1  0  -0.097813  0  3.60214  0  0  -0.008921  0  3.818342  0  0  -0.023654  0  3.843492  0  0  -0.226531  0.001258  0  3.800942  0
N  N64  1  0.57988123  0.32743828  0.12274107  1  0  -0.097876  0  3.604047  0  0  -0.008201  0  3.81889  0  0  -0.022967  0  3.844115  0  0  -0.225598  0.001964  0  3.801545  0
N  N65  1  0.04302821  0.79516438  0.12270152  1  0  -0.097879  0  3.60207  0  0  -0.009072  0  3.818348  0  0  -0.023811  0  3.843498  0  0  -0.226538  0.001108  0  3.800946  0
O  O66  1  0.35660307  0.02359614  0.68184510  1  0  -0.628877  0  1.951402  0  0  -0.58062  0  2.176196  0  0  -0.603591  0  2.167836  0  0  -0.320248  -0.564465  0  2.181415  0
O  O67  1  0.82500248  0.65839581  0.68161184  1  0  -0.6279  0  1.950159  0  0  -0.580108  0  2.175269  0  0  -0.603008  0  2.166756  0  0  -0.320977  -0.56396  0  2.180554  0
O  O68  1  0.64340049  0.97639826  0.31814715  1  0  -0.628868  0  1.951671  0  0  -0.580573  0  2.176417  0  0  -0.603547  0  2.168059  0  0  -0.320221  -0.564416  0  2.181633  0
O  O69  1  0.17499980  0.34160500  0.31838726  1  0  -0.627903  0  1.950081  0  0  -0.580123  0  2.175205  0  0  -0.603024  0  2.166694  0  0  -0.321003  -0.563975  0  2.180489  0
O  O70  1  0.17608659  0.82308358  0.48662992  1  0  -0.65707  0  1.994146  0  0  -0.5817  0  2.254801  0  0  -0.610852  0  2.238271  0  0  -0.335146  -0.561339  0  2.265464  0
O  O71  1  0.80971106  0.66395577  0.48637850  1  0  -0.654937  0  1.993995  0  0  -0.579545  0  2.253977  0  0  -0.608671  0  2.23755  0  0  -0.333316  -0.559083  0  2.264635  0
O  O72  1  0.82391083  0.17691515  0.51336818  1  0  -0.657019  0  1.994112  0  0  -0.58167  0  2.254789  0  0  -0.610821  0  2.23826  0  0  -0.335136  -0.561307  0  2.265452  0
O  O73  1  0.19028544  0.33604507  0.51362034  1  0  -0.654936  0  1.993963  0  0  -0.579543  0  2.253942  0  0  -0.608671  0  2.237513  0  0  -0.333315  -0.559084  0  2.264605  0
