# generated using pymatgen
data_ZnH22C14(IN2)2
_symmetry_space_group_name_H-M   'P 1'
_cell_length_a   8.50224782
_cell_length_b   8.49482373
_cell_length_c   14.83281471
_cell_angle_alpha   104.05609679
_cell_angle_beta   105.94095554
_cell_angle_gamma   95.59477980
_symmetry_Int_Tables_number   1
_chemical_formula_structural   ZnH22C14(IN2)2
_chemical_formula_sum   'Zn2 H44 C28 I4 N8'
_cell_volume   983.65754749
_cell_formula_units_Z   2
loop_
 _symmetry_equiv_pos_site_id
 _symmetry_equiv_pos_as_xyz
  1  'x, y, z'
loop_
 _atom_site_type_symbol
 _atom_site_label
 _atom_site_symmetry_multiplicity
 _atom_site_fract_x
 _atom_site_fract_y
 _atom_site_fract_z
 _atom_site_occupancy
 _atom_site_hle17_bader_spin_density
 _atom_site_hle17_ddec_charge
 _atom_site_hle17_ddec_spin_density
 _atom_site_hle17_ddec_sum_bond_order
 _atom_site_hle17_magmom
 _atom_site_hse06_10hf_bader_spin_density
 _atom_site_hse06_10hf_ddec_charge
 _atom_site_hse06_10hf_ddec_spin_density
 _atom_site_hse06_10hf_ddec_sum_bond_order
 _atom_site_hse06_10hf_magmom
 _atom_site_hse06_bader_spin_density
 _atom_site_hse06_ddec_charge
 _atom_site_hse06_ddec_spin_density
 _atom_site_hse06_ddec_sum_bond_order
 _atom_site_hse06_magmom
 _atom_site_pbe_bader_spin_density
 _atom_site_pbe_cm5_charge
 _atom_site_pbe_ddec_charge
 _atom_site_pbe_ddec_spin_density
 _atom_site_pbe_ddec_sum_bond_order
 _atom_site_pbe_magmom
Zn  Zn0  1  0.32639844  0.07612717  0.25004535  1  0  0.708762  0  2.166359  0  0  0.552326  0  2.613873  0  0  0.593794  0  2.574595  0  0  0.498903  0.52422  0  2.639993  0
Zn  Zn1  1  0.67360303  0.92387337  0.74995513  1  0  0.708814  0  2.166324  0  0  0.552382  0  2.613827  0  0  0.593859  0  2.574529  0  0  0.498911  0.524272  0  2.63996  0
H  H2  1  0.78035436  0.56328242  0.49873055  1  0  0.134406  0  0.988132  0  0  0.142026  0  1.053112  0  0  0.145666  0  1.052296  0  0  0.094044  0.139419  0  1.053861  0
H  H3  1  0.56440136  0.28165339  0.00144340  1  0  0.134751  0  0.988311  0  0  0.142116  0  1.053416  0  0  0.145877  0  1.052432  0  0  0.093814  0.139416  0  1.054272  0
H  H4  1  0.21964367  0.43671939  0.50127158  1  0  0.134381  0  0.988128  0  0  0.142003  0  1.053117  0  0  0.145647  0  1.052296  0  0  0.094033  0.139397  0  1.053871  0
H  H5  1  0.43559955  0.71835086  0.99855817  1  0  0.134763  0  0.988319  0  0  0.14213  0  1.053428  0  0  0.145891  0  1.052446  0  0  0.093817  0.139445  0  1.054271  0
H  H6  1  0.88392660  0.22495155  0.61305550  1  0  0.118451  0  0.962289  0  0  0.134014  0  1.030235  0  0  0.136509  0  1.028907  0  0  0.088651  0.132227  0  1.031186  0
H  H7  1  0.11197286  0.27062770  0.88707855  1  0  0.118855  0  0.962347  0  0  0.134497  0  1.030174  0  0  0.137057  0  1.02874  0  0  0.088672  0.132644  0  1.031221  0
H  H8  1  0.11607409  0.77505148  0.38694654  1  0  0.118468  0  0.96228  0  0  0.133999  0  1.030255  0  0  0.136492  0  1.028929  0  0  0.088646  0.132213  0  1.031203  0
H  H9  1  0.88802638  0.72937407  0.11292107  1  0  0.118855  0  0.962419  0  0  0.134493  0  1.030245  0  0  0.137051  0  1.028812  0  0  0.08868  0.132638  0  1.03129  0
H  H10  1  0.99205764  0.40622963  0.60211157  1  0  0.127549  0  0.934378  0  0  0.150317  0  0.987459  0  0  0.151991  0  0.98727  0  0  0.098665  0.149061  0  0.987688  0
H  H11  1  0.30396733  0.38989710  0.89799770  1  0  0.127837  0  0.934056  0  0  0.150428  0  0.987424  0  0  0.152159  0  0.987091  0  0  0.098635  0.149158  0  0.987697  0
H  H12  1  0.00794450  0.59377462  0.39789086  1  0  0.127573  0  0.934404  0  0  0.150351  0  0.987466  0  0  0.152025  0  0.987276  0  0  0.098688  0.14909  0  0.987703  0
H  H13  1  0.69603414  0.61010344  0.10200278  1  0  0.127845  0  0.934051  0  0  0.150431  0  0.987423  0  0  0.152162  0  0.98709  0  0  0.098633  0.149158  0  0.987701  0
H  H14  1  0.00315433  0.20872379  0.53088673  1  0  0.113615  0  0.956664  0  0  0.12965  0  1.025379  0  0  0.132176  0  1.023869  0  0  0.085945  0.127861  0  1.026448  0
H  H15  1  0.17785188  0.47228709  0.96921188  1  0  0.113999  0  0.957317  0  0  0.130086  0  1.025869  0  0  0.132658  0  1.024274  0  0  0.085472  0.128266  0  1.026987  0
H  H16  1  0.99684514  0.79127924  0.46911512  1  0  0.113571  0  0.956665  0  0  0.129617  0  1.025376  0  0  0.132145  0  1.023864  0  0  0.085926  0.127829  0  1.026443  0
H  H17  1  0.82215103  0.52771469  0.03078967  1  0  0.113993  0  0.957292  0  0  0.130077  0  1.025852  0  0  0.132642  0  1.024263  0  0  0.085478  0.128256  0  1.02697  0
H  H18  1  0.52305047  0.82017688  0.47004293  1  0  0.074644  0  0.956541  0  0  0.093247  0  1.016632  0  0  0.093955  0  1.017338  0  0  0.093844  0.092729  0  1.016102  0
H  H19  1  0.85049195  0.05324848  0.03012245  1  0  0.074676  0  0.95651  0  0  0.092817  0  1.016622  0  0  0.09341  0  1.017586  0  0  0.093596  0.092327  0  1.016071  0
H  H20  1  0.47694900  0.17982613  0.52995757  1  0  0.074645  0  0.956537  0  0  0.093245  0  1.016636  0  0  0.093952  0  1.017342  0  0  0.093851  0.092727  0  1.016113  0
H  H21  1  0.14950695  0.94674464  0.96987460  1  0  0.074666  0  0.956557  0  0  0.092782  0  1.016673  0  0  0.093371  0  1.017636  0  0  0.093592  0.092297  0  1.016124  0
H  H22  1  0.38792136  0.91450525  0.39478845  1  0  0.054235  0  0.99039  0  0  0.068111  0  1.065391  0  0  0.068905  0  1.065471  0  0  0.073951  0.067422  0  1.065485  0
H  H23  1  0.01988844  0.99283603  0.10516435  1  0  0.054492  0  0.989457  0  0  0.067757  0  1.065237  0  0  0.068598  0  1.065155  0  0  0.073702  0.066997  0  1.06548  0
H  H24  1  0.61207933  0.08549775  0.60521224  1  0  0.054235  0  0.990381  0  0  0.068109  0  1.0654  0  0  0.068903  0  1.065479  0  0  0.073953  0.067424  0  1.065488  0
H  H25  1  0.98011169  0.00715710  0.89483357  1  0  0.054465  0  0.989453  0  0  0.067681  0  1.065287  0  0  0.068519  0  1.065203  0  0  0.073688  0.066924  0  1.065542  0
H  H26  1  0.76841563  0.98482999  0.47109102  1  0  0.078601  0  0.943711  0  0  0.094043  0  1.010011  0  0  0.094894  0  1.008865  0  0  0.10782  0.093508  0  1.010387  0
H  H27  1  0.01427042  0.29770161  0.02925996  1  0  0.078517  0  0.942614  0  0  0.094462  0  1.007865  0  0  0.095254  0  1.007588  0  0  0.108035  0.09379  0  1.008149  0
H  H28  1  0.23158606  0.01517179  0.52891034  1  0  0.078647  0  0.94369  0  0  0.09408  0  1.009982  0  0  0.094931  0  1.008837  0  0  0.107826  0.093543  0  1.010351  0
H  H29  1  0.98572826  0.70229027  0.97073689  1  0  0.078455  0  0.942644  0  0  0.094434  0  1.007883  0  0  0.095227  0  1.007606  0  0  0.108044  0.093764  0  1.008169  0
H  H30  1  0.63830721  0.91528559  0.34737309  1  0  0.075156  0  0.934224  0  0  0.088083  0  1.000936  0  0  0.089647  0  0.99846  0  0  0.101687  0.08707  0  1.002167  0
H  H31  1  0.06856851  0.29095112  0.15290338  1  0  0.075058  0  0.932679  0  0  0.08851  0  0.998562  0  0  0.089902  0  0.997079  0  0  0.10156  0.087387  0  0.999727  0
H  H32  1  0.36169326  0.08471619  0.65262740  1  0  0.075177  0  0.934221  0  0  0.088092  0  1.000928  0  0  0.089654  0  0.998457  0  0  0.101684  0.087078  0  1.002158  0
H  H33  1  0.93142917  0.70904201  0.84709348  1  0  0.07518  0  0.932681  0  0  0.088612  0  0.998591  0  0  0.090007  0  0.9971  0  0  0.101601  0.087489  0  0.999755  0
H  H34  1  0.48714104  0.48376093  0.26284118  1  0  0.12234  0  0.950305  0  0  0.138351  0  1.015266  0  0  0.140577  0  1.01471  0  0  0.088118  0.136772  0  1.015701  0
H  H35  1  0.72089388  0.22408980  0.23731666  1  0  0.122153  0  0.951945  0  0  0.138394  0  1.016608  0  0  0.140604  0  1.016012  0  0  0.08836  0.136862  0  1.017009  0
H  H36  1  0.51285699  0.51624087  0.73716028  1  0  0.122337  0  0.95035  0  0  0.138354  0  1.015299  0  0  0.14058  0  1.014744  0  0  0.088114  0.136776  0  1.015732  0
H  H37  1  0.27910514  0.77591074  0.76268276  1  0  0.122126  0  0.951874  0  0  0.138363  0  1.016554  0  0  0.140573  0  1.015959  0  0  0.088325  0.136831  0  1.01695  0
H  H38  1  0.48873903  0.60665260  0.37786376  1  0  0.117138  0  0.971007  0  0  0.140938  0  1.02471  0  0  0.142298  0  1.025138  0  0  0.090848  0.139918  0  1.024523  0
H  H39  1  0.72857523  0.11059864  0.12225967  1  0  0.117384  0  0.971983  0  0  0.141244  0  1.0253  0  0  0.14267  0  1.025546  0  0  0.091149  0.140212  0  1.025156  0
H  H40  1  0.51126122  0.39334795  0.62213721  1  0  0.117108  0  0.970991  0  0  0.140908  0  1.024698  0  0  0.142269  0  1.025127  0  0  0.090835  0.139888  0  1.024515  0
H  H41  1  0.27142501  0.88940190  0.87773994  1  0  0.11739  0  0.971972  0  0  0.141255  0  1.025282  0  0  0.14268  0  1.025528  0  0  0.091154  0.140214  0  1.025152  0
H  H42  1  0.33173996  0.43097566  0.31479899  1  0  0.110921  0  0.969552  0  0  0.125967  0  1.041255  0  0  0.128317  0  1.039908  0  0  0.08331  0.124262  0  1.042266  0
H  H43  1  0.61603312  0.01658359  0.18527079  1  0  0.111397  0  0.968706  0  0  0.126572  0  1.040427  0  0  0.128913  0  1.03903  0  0  0.083669  0.124878  0  1.041456  0
H  H44  1  0.66825806  0.56902613  0.68520179  1  0  0.110916  0  0.969574  0  0  0.125946  0  1.041292  0  0  0.128295  0  1.039947  0  0  0.083295  0.124239  0  1.0423  0
H  H45  1  0.38396712  0.98341696  0.81472950  1  0  0.111386  0  0.968717  0  0  0.126575  0  1.04043  0  0  0.128917  0  1.039032  0  0  0.083658  0.124878  0  1.041462  0
C  C46  1  0.77450022  0.29677945  0.48301626  1  0  0.240257  0  3.719937  0  0  0.218541  0  3.987876  0  0  0.238428  0  4.007074  0  0  0.104399  0.209508  0  3.975965  0
C  C47  1  0.31386492  0.29149127  0.01715096  1  0  0.241045  0  3.720424  0  0  0.227531  0  3.989483  0  0  0.239244  0  4.007228  0  0  0.10576  0.219976  0  3.977172  0
C  C48  1  0.22549902  0.70322234  0.51698472  1  0  0.240212  0  3.719891  0  0  0.218529  0  3.987771  0  0  0.238428  0  4.006961  0  0  0.104409  0.209507  0  3.975859  0
C  C49  1  0.68613510  0.70850804  0.98284845  1  0  0.241138  0  3.720261  0  0  0.22763  0  3.989335  0  0  0.239345  0  4.007076  0  0  0.105775  0.220063  0  3.977037  0
C  C50  1  0.72067761  0.43641314  0.46079472  1  0  -0.332367  0  3.714757  0  0  -0.355412  0  3.971577  0  0  -0.366855  0  3.987217  0  0  -0.124352  -0.347436  0  3.959301  0
C  C51  1  0.47561760  0.25991618  0.03938869  1  0  -0.33326  0  3.715192  0  0  -0.355382  0  3.969095  0  0  -0.367592  0  3.987798  0  0  -0.123912  -0.347408  0  3.956509  0
C  C52  1  0.27931919  0.56358866  0.53920654  1  0  -0.332317  0  3.714698  0  0  -0.355364  0  3.971518  0  0  -0.366812  0  3.987159  0  0  -0.124347  -0.347399  0  3.959249  0
C  C53  1  0.52438287  0.74008560  0.96061180  1  0  -0.33328  0  3.71523  0  0  -0.355418  0  3.969128  0  0  -0.367623  0  3.987832  0  0  -0.123915  -0.347461  0  3.956534  0
C  C54  1  0.92076662  0.28265532  0.56135269  1  0  -0.358264  0  3.73092  0  0  -0.431602  0  3.96517  0  0  -0.435016  0  3.969223  0  0  -0.235233  -0.428797  0  3.961324  0
C  C55  1  0.22131244  0.35933977  0.93877516  1  0  -0.360067  0  3.731703  0  0  -0.433219  0  3.963957  0  0  -0.436865  0  3.969542  0  0  -0.235108  -0.430495  0  3.959969  0
C  C56  1  0.07923263  0.71734647  0.43864829  1  0  -0.358244  0  3.730944  0  0  -0.431589  0  3.965201  0  0  -0.435007  0  3.969253  0  0  -0.235234  -0.428784  0  3.961359  0
C  C57  1  0.77868780  0.64066077  0.06122513  1  0  -0.360121  0  3.731737  0  0  -0.433262  0  3.963999  0  0  -0.436899  0  3.96959  0  0  -0.235151  -0.430534  0  3.960012  0
C  C58  1  0.50528949  0.93848366  0.45463665  1  0  -0.132108  0  3.695901  0  0  -0.175371  0  3.958763  0  0  -0.17647  0  3.97061  0  0  -0.173245  -0.173974  0  3.949152  0
C  C59  1  0.98404886  0.05064402  0.04542793  1  0  -0.132217  0  3.697597  0  0  -0.173403  0  3.95669  0  0  -0.175132  0  3.970943  0  0  -0.172754  -0.172071  0  3.946947  0
C  C60  1  0.49470998  0.06151934  0.54536318  1  0  -0.132105  0  3.695937  0  0  -0.175391  0  3.958805  0  0  -0.176491  0  3.970655  0  0  -0.173238  -0.174002  0  3.949206  0
C  C61  1  0.01595149  0.94935033  0.95456952  1  0  -0.132164  0  3.69773  0  0  -0.173206  0  3.956696  0  0  -0.174915  0  3.970932  0  0  -0.172709  -0.171903  0  3.946982  0
C  C62  1  0.57182895  0.38051983  0.38316220  1  0  0.283376  0  3.763708  0  0  0.277812  0  4.029926  0  0  0.29039  0  4.04524  0  0  0.097167  0.270078  0  4.017868  0
C  C63  1  0.49743341  0.18863300  0.11700867  1  0  0.283379  0  3.764321  0  0  0.277939  0  4.028752  0  0  0.290065  0  4.046441  0  0  0.09624  0.270047  0  4.016543  0
C  C64  1  0.42816863  0.61947950  0.61683885  1  0  0.283393  0  3.763783  0  0  0.277792  0  4.030053  0  0  0.290369  0  4.04537  0  0  0.097198  0.270067  0  4.017983  0
C  C65  1  0.50256783  0.81136630  0.88299093  1  0  0.283311  0  3.764432  0  0  0.277908  0  4.028807  0  0  0.29002  0  4.046517  0  0  0.096209  0.270019  0  4.016592  0
C  C66  1  0.65027547  0.99361021  0.42067704  1  0  -0.015366  0  3.640464  0  0  -0.085108  0  3.895918  0  0  -0.073262  0  3.909427  0  0  -0.054952  -0.089012  0  3.888573  0
C  C67  1  0.07334067  0.22967160  0.07953943  1  0  -0.016161  0  3.638565  0  0  -0.079438  0  3.897807  0  0  -0.075475  0  3.908587  0  0  -0.055202  -0.081878  0  3.890365  0
C  C68  1  0.34972544  0.00639404  0.57932385  1  0  -0.01547  0  3.640427  0  0  -0.085166  0  3.895835  0  0  -0.073319  0  3.909349  0  0  -0.054955  -0.089066  0  3.888508  0
C  C69  1  0.92665845  0.77032276  0.92045782  1  0  -0.016278  0  3.638641  0  0  -0.079636  0  3.897971  0  0  -0.075677  0  3.908747  0  0  -0.055302  -0.082063  0  3.890527  0
C  C70  1  0.46411649  0.47976426  0.33164892  1  0  -0.362882  0  3.731933  0  0  -0.43993  0  3.968127  0  0  -0.444059  0  3.974895  0  0  -0.246034  -0.436903  0  3.963413  0
C  C71  1  0.64804256  0.13224716  0.16848159  1  0  -0.364289  0  3.734712  0  0  -0.441822  0  3.971344  0  0  -0.445778  0  3.977873  0  0  -0.247214  -0.438892  0  3.96674  0
C  C72  1  0.53588131  0.52023630  0.66835166  1  0  -0.362854  0  3.732031  0  0  -0.439881  0  3.968236  0  0  -0.444011  0  3.975007  0  0  -0.246021  -0.436859  0  3.963521  0
C  C73  1  0.35195913  0.86775461  0.83151909  1  0  -0.364248  0  3.734663  0  0  -0.441799  0  3.97126  0  0  -0.445749  0  3.977793  0  0  -0.247164  -0.438868  0  3.96666  0
I  I74  1  0.08907149  0.13075068  0.32709721  1  0  -0.483204  0  1.020486  0  0  -0.426785  0  1.317141  0  0  -0.444836  0  1.295237  0  0  -0.213675  -0.414098  0  1.331903  0
I  I75  1  0.30417420  0.76161048  0.17267435  1  0  -0.483415  0  1.021182  0  0  -0.426978  0  1.31762  0  0  -0.445039  0  1.295819  0  0  -0.213763  -0.41432  0  1.332356  0
I  I76  1  0.91092941  0.86925355  0.67290233  1  0  -0.483227  0  1.020512  0  0  -0.426791  0  1.317157  0  0  -0.444851  0  1.295265  0  0  -0.213679  -0.414105  0  1.331919  0
I  I77  1  0.69582582  0.23838884  0.82732573  1  0  -0.483425  0  1.021172  0  0  -0.426986  0  1.317609  0  0  -0.445048  0  1.295806  0  0  -0.213768  -0.414324  0  1.332345  0
N  N78  1  0.53616720  0.21410146  0.35844502  1  0  -0.332821  0  3.147886  0  0  -0.280697  0  3.420594  0  0  -0.290349  0  3.441579  0  0  -0.260386  -0.270212  0  3.409482  0
N  N79  1  0.35587687  0.17766173  0.14171348  1  0  -0.331943  0  3.148714  0  0  -0.271779  0  3.42635  0  0  -0.289565  0  3.442614  0  0  -0.25957  -0.259867  0  3.415231  0
N  N80  1  0.46383183  0.78589908  0.64155508  1  0  -0.332857  0  3.147943  0  0  -0.280712  0  3.420653  0  0  -0.290358  0  3.44164  0  0  -0.260402  -0.270214  0  3.409529  0
N  N81  1  0.64412292  0.82233633  0.85828505  1  0  -0.331969  0  3.148654  0  0  -0.271814  0  3.42632  0  0  -0.289597  0  3.442591  0  0  -0.259572  -0.25991  0  3.415218  0
N  N82  1  0.66160178  0.16475886  0.41888045  1  0  0.012156  0  3.507393  0  0  0.117763  0  3.692019  0  0  0.080494  0  3.752377  0  0  -0.149768  0.128513  0  3.670234  0
N  N83  1  0.24612163  0.24269287  0.08128283  1  0  0.013235  0  3.507944  0  0  0.093396  0  3.725628  0  0  0.081851  0  3.753387  0  0  -0.150841  0.100873  0  3.706953  0
N  N84  1  0.33839869  0.83524293  0.58112072  1  0  0.012212  0  3.507372  0  0  0.117804  0  3.691972  0  0  0.080519  0  3.752332  0  0  -0.149754  0.128528  0  3.670205  0
N  N85  1  0.75387772  0.75730272  0.91871530  1  0  0.01328  0  3.507684  0  0  0.09342  0  3.725432  0  0  0.081873  0  3.753192  0  0  -0.150824  0.100901  0  3.706754  0
