# generated using pymatgen
data_NiH28C20(NO2)4
_symmetry_space_group_name_H-M   'P 1'
_cell_length_a   7.94974330
_cell_length_b   7.96842262
_cell_length_c   9.46903338
_cell_angle_alpha   69.23604512
_cell_angle_beta   82.34296342
_cell_angle_gamma   73.60292163
_symmetry_Int_Tables_number   1
_chemical_formula_structural   NiH28C20(NO2)4
_chemical_formula_sum   'Ni1 H28 C20 N4 O8'
_cell_volume   537.69461115
_cell_formula_units_Z   1
loop_
 _symmetry_equiv_pos_site_id
 _symmetry_equiv_pos_as_xyz
  1  'x, y, z'
loop_
 _atom_site_type_symbol
 _atom_site_label
 _atom_site_symmetry_multiplicity
 _atom_site_fract_x
 _atom_site_fract_y
 _atom_site_fract_z
 _atom_site_occupancy
 _atom_site_hle17_ddec_charge
 _atom_site_hle17_ddec_spin_density
 _atom_site_hle17_ddec_sum_bond_order
 _atom_site_hle17_magmom
 _atom_site_hse06_10hf_ddec_charge
 _atom_site_hse06_10hf_ddec_spin_density
 _atom_site_hse06_10hf_ddec_sum_bond_order
 _atom_site_hse06_10hf_magmom
 _atom_site_hse06_ddec_charge
 _atom_site_hse06_ddec_spin_density
 _atom_site_hse06_ddec_sum_bond_order
 _atom_site_hse06_magmom
 _atom_site_pbe_cm5_charge
 _atom_site_pbe_ddec_charge
 _atom_site_pbe_ddec_spin_density
 _atom_site_pbe_ddec_sum_bond_order
 _atom_site_pbe_magmom
Ni  Ni0  1  0.00000134  0.99999937  0.00000128  1  0.683817  -1.710399  2.070574  -1.436  0.675053  -1.775837  2.442783  -1.555  0.761599  -1.837343  2.386721  -1.65  0.640115  0.614962  -1.717441  2.482615  -1.469
H  H1  1  0.11138928  0.83744741  0.26422742  1  0.259854  0.001931  0.895523  0.002  0.257269  0.000576  0.942326  0.001  0.262249  0.000735  0.940579  0.001  0.301555  0.253856  0.000314  0.943566  0.0
H  H2  1  0.88861641  0.16255318  0.73577517  1  0.25986  0.001932  0.89552  0.002  0.257292  0.000576  0.942312  0.001  0.262273  0.000736  0.940567  0.001  0.301556  0.253882  0.000314  0.943553  0.0
H  H3  1  0.02823865  0.73335008  0.91203395  1  0.249189  0.001443  0.967966  0.002  0.238601  0.000345  1.030477  0.001  0.246347  0.000563  1.025252  0.001  0.281233  0.232996  8.9e-05  1.034382  0.0
H  H4  1  0.97176892  0.26664756  0.08796730  1  0.24918  0.001443  0.967963  0.002  0.238596  0.000345  1.030478  0.001  0.246344  0.000563  1.025257  0.001  0.281247  0.232992  8.9e-05  1.034383  0.0
H  H5  1  0.28696233  0.53986793  0.25354973  1  0.049904  -0.001702  0.967609  -0.002  0.067156  -0.001241  1.032741  -0.002  0.067145  -0.000885  1.032805  -0.001  0.095186  0.06752  -0.001575  1.032436  -0.002
H  H6  1  0.71304341  0.46013802  0.74644889  1  0.049912  -0.001705  0.967623  -0.002  0.067142  -0.001241  1.032766  -0.002  0.06713  -0.000885  1.032828  -0.001  0.09518  0.067508  -0.001575  1.032462  -0.002
H  H7  1  0.29766352  0.64408230  0.05368528  1  0.070441  -0.000114  0.919084  0.0  0.089964  -0.000178  0.977867  0.0  0.090627  -9.9e-05  0.977463  0.0  0.109501  0.089337  -0.000257  0.978411  0.0
H  H8  1  0.70233682  0.35592539  0.94631659  1  0.070415  -0.000116  0.919093  0.0  0.089951  -0.000178  0.977851  0.0  0.090602  -9.9e-05  0.977457  0.0  0.109489  0.089325  -0.000258  0.978394  0.0
H  H9  1  0.05675001  0.46905749  0.14626470  1  0.0662  -0.002289  0.9491  -0.003  0.084367  -0.001682  1.010209  -0.002  0.084601  -0.001219  1.010534  -0.001  0.103343  0.084362  -0.002078  1.009804  -0.002
H  H10  1  0.94326012  0.53094009  0.85373625  1  0.066239  -0.002295  0.949062  -0.003  0.084381  -0.001682  1.010212  -0.002  0.084612  -0.001219  1.010534  -0.001  0.103366  0.084377  -0.002077  1.009805  -0.002
H  H11  1  0.95360309  0.62707033  0.24139327  1  0.065946  -2.9e-05  0.960306  0.0  0.081136  8e-06  1.026875  0.0  0.081187  1.8e-05  1.027598  0.0  0.106019  0.081209  -9e-06  1.026376  0.0
H  H12  1  0.04640254  0.37292453  0.75860812  1  0.065937  -3.9e-05  0.960326  0.0  0.081166  8e-06  1.026849  0.0  0.081217  1.9e-05  1.027574  0.0  0.106036  0.08124  -9e-06  1.026348  0.0
H  H13  1  0.70015517  0.79829214  0.09568527  1  0.066001  -0.000506  0.948289  -0.001  0.080542  -0.000425  1.017332  -0.001  0.081196  -0.000289  1.016912  -0.001  0.102991  0.080139  -0.000562  1.017533  -0.001
H  H14  1  0.29984822  0.20170161  0.90431994  1  0.066006  -0.000509  0.948328  -0.001  0.080547  -0.000425  1.017339  -0.001  0.0812  -0.000289  1.016921  -0.001  0.102997  0.080146  -0.000563  1.017541  -0.001
H  H15  1  0.75438421  0.62300451  0.01142669  1  0.047401  -0.003606  0.934649  -0.005  0.065355  -0.002741  0.996892  -0.003  0.065411  -0.002006  0.996751  -0.002  0.093413  0.065486  -0.003341  0.997027  -0.004
H  H16  1  0.24562300  0.37698886  0.98857395  1  0.047484  -0.003604  0.934653  -0.005  0.065417  -0.002741  0.99688  -0.003  0.065473  -0.002006  0.99674  -0.002  0.093441  0.065546  -0.003341  0.997015  -0.004
H  H17  1  0.56933673  0.88027686  0.83602177  1  0.072325  0.000318  0.959976  0.0  0.090288  0.000117  1.023555  0.0  0.090177  0.000117  1.025304  0.0  0.091974  0.090439  9.1e-05  1.022278  0.0
H  H18  1  0.43067278  0.11972356  0.16397934  1  0.072407  0.000326  0.959921  0.0  0.090344  0.000117  1.023527  0.0  0.090237  0.000117  1.025279  0.0  0.091988  0.090491  9.1e-05  1.022243  0.0
H  H19  1  0.78117725  0.88061290  0.75425515  1  0.084823  0.000117  0.921465  0.0  0.104167  3.6e-05  0.978499  0.0  0.104536  3.7e-05  0.979946  0.0  0.097281  0.103954  3.6e-05  0.977459  0.0
H  H20  1  0.21882589  0.11938782  0.24574876  1  0.084836  0.00011  0.921441  0.0  0.104154  3.6e-05  0.978494  0.0  0.104524  3.7e-05  0.979941  0.0  0.097262  0.10394  3.6e-05  0.977454  0.0
H  H21  1  0.42404232  0.80356745  0.25566076  1  0.054582  -0.003178  0.916892  -0.004  0.071988  -0.00244  0.977122  -0.003  0.071636  -0.001805  0.977689  -0.002  0.096525  0.072699  -0.003017  0.97636  -0.004
H  H22  1  0.57596174  0.19642928  0.74434653  1  0.054649  -0.003182  0.916795  -0.004  0.071978  -0.002441  0.977122  -0.003  0.071623  -0.001805  0.977692  -0.002  0.09651  0.072692  -0.003018  0.97636  -0.004
H  H23  1  0.41599078  0.87726246  0.05542848  1  0.060347  -0.000119  0.951581  -0.001  0.078998  -0.000117  1.015317  0.0  0.078637  -7.3e-05  1.016492  0.0  0.105661  0.079173  -0.000145  1.014619  0.0
H  H24  1  0.58401583  0.12273397  0.94457542  1  0.060343  -0.000123  0.95162  -0.001  0.078984  -0.000117  1.015366  0.0  0.07862  -7.3e-05  1.016544  0.0  0.105679  0.079159  -0.000145  1.014665  0.0
H  H25  1  0.87617555  0.44908593  0.48295309  1  0.405761  -1.4e-05  0.869983  0.0  0.37484  -2.1e-05  0.947381  0.0  0.387698  -1.6e-05  0.933397  0.0  0.311253  0.365619  -4.7e-05  0.957554  0.0
H  H26  1  0.12381329  0.55092074  0.51703258  1  0.405849  -1.5e-05  0.869903  0.0  0.374918  -2.1e-05  0.947294  0.0  0.387774  -1.6e-05  0.933311  0.0  0.311296  0.365702  -4.7e-05  0.957457  0.0
H  H27  1  0.50394310  0.32847542  0.36636882  1  0.111121  -5e-05  0.948432  0.0  0.118235  -0.000109  1.013081  0.0  0.122849  -7.1e-05  1.009339  0.0  0.10876  0.114629  -0.000142  1.016239  0.0
H  H28  1  0.49604793  0.67152782  0.63362833  1  0.111142  -5.3e-05  0.94843  0.0  0.118298  -0.000109  1.013031  0.0  0.122913  -7.2e-05  1.009288  0.0  0.108779  0.114692  -0.000142  1.016197  0.0
C  C29  1  0.21514019  0.64689542  0.15627974  1  0.001093  0.003428  3.660108  0.003  -0.061772  0.000945  3.935435  0.001  -0.057522  0.001455  3.947562  0.002  -0.075548  -0.064787  0.000354  3.926909  0.001
C  C30  1  0.78486361  0.35310782  0.84372006  1  0.001032  0.003438  3.660167  0.003  -0.061785  0.000945  3.935444  0.001  -0.057521  0.001455  3.947561  0.002  -0.075547  -0.064794  0.000354  3.926922  0.001
C  C31  1  0.04022625  0.61156882  0.14428924  1  0.009765  0.003676  3.636851  0.004  -0.047556  0.000906  3.904718  0.002  -0.04319  0.001383  3.917421  0.002  -0.075293  -0.050573  0.000383  3.89557  0.001
C  C32  1  0.95978357  0.38843022  0.85571231  1  0.009738  0.003731  3.63698  0.004  -0.047617  0.000906  3.904925  0.002  -0.043236  0.001382  3.917594  0.002  -0.075339  -0.050628  0.000382  3.895774  0.001
C  C33  1  0.77106802  0.76080148  0.99894655  1  0.034733  0.004753  3.647535  0.005  -0.022505  0.001557  3.918341  0.002  -0.016836  0.002031  3.929953  0.003  -0.074691  -0.026668  0.001067  3.910407  0.002
C  C34  1  0.22893317  0.23919624  0.00105441  1  0.034473  0.004761  3.647681  0.005  -0.022684  0.001559  3.918391  0.002  -0.017018  0.002029  3.930011  0.003  -0.074746  -0.026851  0.001067  3.910459  0.002
C  C35  1  0.69483041  0.90345227  0.85060249  1  -0.157922  -0.000628  3.667939  -0.002  -0.201037  -0.000435  3.934317  -0.001  -0.203568  -0.000232  3.948676  -0.001  -0.163813  -0.199231  -0.000695  3.924255  -0.002
C  C36  1  0.30517650  0.09654286  0.14940287  1  -0.157907  -0.000627  3.667851  -0.002  -0.201006  -0.000436  3.934151  -0.001  -0.203547  -0.000232  3.948524  -0.001  -0.163796  -0.199198  -0.000695  3.924082  -0.002
C  C37  1  0.34206229  0.89444598  0.15806448  1  0.044784  0.003935  3.630954  0.004  -0.011595  0.001262  3.89872  0.002  -0.006165  0.001718  3.911215  0.002  -0.069035  -0.015448  0.000719  3.889813  0.002
C  C38  1  0.65794462  0.10554915  0.84194088  1  0.044798  0.003962  3.630941  0.004  -0.011527  0.001262  3.898757  0.002  -0.006092  0.001719  3.911243  0.002  -0.069013  -0.015375  0.000719  3.889855  0.002
C  C39  1  0.64085240  0.04566781  0.39808255  1  -0.031557  -0.005047  3.681745  -0.006  -0.020775  -0.003655  3.918236  -0.004  -0.023183  -0.002361  3.935593  -0.003  -0.0006  -0.020372  -0.00586  3.90792  -0.007
C  C40  1  0.35914022  0.95433394  0.60191386  1  -0.03151  -0.005064  3.681677  -0.006  -0.020892  -0.003655  3.918345  -0.004  -0.023307  -0.002362  3.935718  -0.003  -0.000619  -0.020371  -0.005861  3.907875  -0.007
C  C41  1  0.63972878  0.85890021  0.47574966  1  -0.064329  -0.000542  3.720138  0.0  -0.054463  -0.000687  3.965625  -0.001  -0.059082  -0.000418  3.984517  0.0  -0.004555  -0.052215  -0.001611  3.954664  -0.001
C  C42  1  0.36026603  0.14109781  0.52425410  1  -0.064412  -0.000522  3.720427  0.0  -0.054407  -0.000687  3.965908  -0.001  -0.059029  -0.000418  3.984799  0.0  -0.004547  -0.052191  -0.001611  3.954918  -0.001
C  C43  1  0.50198842  0.18430751  0.42631605  1  -0.085801  -0.000407  3.691893  0.0  -0.121465  -0.000889  3.947244  -0.001  -0.121451  -0.000493  3.964516  -0.001  -0.075175  -0.121623  -0.001474  3.936988  -0.001
C  C44  1  0.49800542  0.81568862  0.57368107  1  -0.08585  -0.000377  3.691724  0.0  -0.121508  -0.000889  3.947161  -0.001  -0.121498  -0.000492  3.964442  -0.001  -0.075214  -0.121703  -0.001474  3.936871  -0.001
C  C45  1  0.77177384  0.10256590  0.26994457  1  0.624326  0.004096  3.933953  0.003  0.579217  0.000642  4.241273  0.0  0.614609  0.00075  4.232354  0.0  0.199897  0.554875  0.000678  4.246643  0.001
C  C46  1  0.22821877  0.89743600  0.73005390  1  0.624389  0.004094  3.933919  0.003  0.579371  0.000642  4.24118  0.0  0.614757  0.00075  4.232268  0.0  0.199983  0.554992  0.000677  4.246552  0.001
C  C47  1  0.79739513  0.70577103  0.47153516  1  0.672425  -0.000122  3.77463  0.0  0.613261  -0.000132  4.089509  0.0  0.647776  -7.7e-05  4.07779  0.0  0.24494  0.589038  -0.000883  4.098289  -0.001
C  C48  1  0.20259907  0.29422900  0.52845741  1  0.672435  -0.000123  3.774282  0.0  0.613153  -0.000133  4.089408  0.0  0.647689  -7.6e-05  4.077662  0.0  0.244954  0.588919  -0.000883  4.098208  -0.001
N  N49  1  0.18160501  0.83430834  0.16560639  1  -0.369029  -0.055007  3.265841  -0.086  -0.3197  -0.03789  3.531456  -0.06  -0.34653  -0.029991  3.546558  -0.051  -0.488662  -0.300491  -0.043727  3.520634  -0.066
N  N50  1  0.81839588  0.16569107  0.83439826  1  -0.368999  -0.055015  3.265785  -0.086  -0.3197  -0.037892  3.531399  -0.06  -0.346534  -0.029992  3.546491  -0.051  -0.488638  -0.300501  -0.043728  3.520592  -0.066
N  N51  1  0.95608807  0.75236762  0.00784896  1  -0.386264  -0.05824  3.291485  -0.091  -0.341634  -0.038799  3.565596  -0.061  -0.36935  -0.030619  3.578578  -0.052  -0.500694  -0.321237  -0.044198  3.555791  -0.066
N  N52  1  0.04391567  0.24763011  0.99215273  1  -0.38611  -0.058242  3.291488  -0.091  -0.341556  -0.038798  3.565655  -0.061  -0.369271  -0.030617  3.57864  -0.052  -0.500704  -0.321169  -0.044194  3.555887  -0.066
O  O53  1  0.80810822  0.00209458  0.18395245  1  -0.617737  -0.040217  2.048295  -0.068  -0.586859  -0.02843  2.320839  -0.049  -0.623259  -0.021237  2.314666  -0.039  -0.318269  -0.559877  -0.03595  2.323802  -0.058
O  O54  1  0.19187735  0.99790481  0.81604882  1  -0.617797  -0.040221  2.048357  -0.068  -0.586946  -0.028431  2.320866  -0.049  -0.623354  -0.021238  2.31471  -0.039  -0.318347  -0.559967  -0.035952  2.32385  -0.058
O  O55  1  0.82335242  0.24405108  0.25328774  1  -0.593691  0.002918  1.904044  0.002  -0.556802  0.001279  2.122156  0.001  -0.578423  0.001608  2.112637  0.001  -0.329635  -0.541642  0.001015  2.128226  0.0
O  O56  1  0.17664311  0.75595504  0.74671104  1  -0.593682  0.00292  1.904129  0.002  -0.556817  0.00128  2.122224  0.001  -0.57843  0.001608  2.112703  0.001  -0.329627  -0.541659  0.001015  2.128307  0.0
O  O57  1  0.94809012  0.71939511  0.47871909  1  -0.560271  0.000434  1.984234  0.0  -0.511541  0.000248  2.202284  0.0  -0.532412  0.00023  2.191366  0.0  -0.275856  -0.497867  -1.4e-05  2.2102  0.0
O  O58  1  0.05189418  0.28060408  0.52127923  1  -0.560205  0.000428  1.983809  0.0  -0.511507  0.000249  2.202005  0.0  -0.532386  0.00023  2.19108  0.0  -0.275885  -0.497829  -1.4e-05  2.209934  0.0
O  O59  1  0.76290163  0.55289792  0.46996183  1  -0.526462  -7.7e-05  2.073263  0.0  -0.475263  -0.000131  2.289257  0.0  -0.496561  -8.3e-05  2.2731  0.0  -0.317783  -0.460838  -0.000438  2.300734  0.0
O  O60  1  0.23708240  0.44710733  0.53002281  1  -0.526425  -6.9e-05  2.073109  0.0  -0.475209  -0.000131  2.289239  0.0  -0.496512  -8.3e-05  2.273069  0.0  -0.317779  -0.460787  -0.000437  2.300723  0.0
