# generated using pymatgen
data_CuH11C16IN5
_symmetry_space_group_name_H-M   'P 1'
_cell_length_a   9.03408244
_cell_length_b   9.42699207
_cell_length_c   10.22907034
_cell_angle_alpha   71.94897525
_cell_angle_beta   71.54062823
_cell_angle_gamma   67.65043731
_symmetry_Int_Tables_number   1
_chemical_formula_structural   CuH11C16IN5
_chemical_formula_sum   'Cu2 H22 C32 I2 N10'
_cell_volume   746.22074121
_cell_formula_units_Z   2
loop_
 _symmetry_equiv_pos_site_id
 _symmetry_equiv_pos_as_xyz
  1  'x, y, z'
loop_
 _atom_site_type_symbol
 _atom_site_label
 _atom_site_symmetry_multiplicity
 _atom_site_fract_x
 _atom_site_fract_y
 _atom_site_fract_z
 _atom_site_occupancy
 _atom_site_hle17_bader_spin_density
 _atom_site_hle17_ddec_charge
 _atom_site_hle17_ddec_spin_density
 _atom_site_hle17_ddec_sum_bond_order
 _atom_site_hle17_magmom
 _atom_site_hse06_10hf_bader_spin_density
 _atom_site_hse06_10hf_ddec_charge
 _atom_site_hse06_10hf_ddec_spin_density
 _atom_site_hse06_10hf_ddec_sum_bond_order
 _atom_site_hse06_10hf_magmom
 _atom_site_hse06_bader_spin_density
 _atom_site_hse06_ddec_charge
 _atom_site_hse06_ddec_spin_density
 _atom_site_hse06_ddec_sum_bond_order
 _atom_site_hse06_magmom
 _atom_site_pbe_bader_spin_density
 _atom_site_pbe_cm5_charge
 _atom_site_pbe_ddec_charge
 _atom_site_pbe_ddec_spin_density
 _atom_site_pbe_ddec_sum_bond_order
 _atom_site_pbe_magmom
Cu  Cu0  1  0.52082370  0.96539717  0.88205605  1  0  0.296128  0  2.150941  0  0  0.197886  0  2.65082  0  0  0.205666  0  2.598306  0  0  0.338666  0.196791  0  2.682186  0
Cu  Cu1  1  0.47917750  0.03460016  0.11794829  1  0  0.296148  0  2.150953  0  0  0.197885  0  2.650808  0  0  0.205638  0  2.598288  0  0  0.338685  0.196818  0  2.682207  0
H  H2  1  0.16341498  0.60604690  0.00227822  1  0  0.103293  0  0.95767  0  0  0.112637  0  1.017296  0  0  0.115884  0  1.01692  0  0  0.098717  0.1093  0  1.019625  0
H  H3  1  0.83658079  0.39395283  0.99772596  1  0  0.103307  0  0.957659  0  0  0.11267  0  1.017265  0  0  0.115918  0  1.016885  0  0  0.098735  0.109332  0  1.019595  0
H  H4  1  0.12359212  0.66624192  0.75760928  1  0  0.107132  0  0.958112  0  0  0.1113  0  1.028899  0  0  0.115739  0  1.024081  0  0  0.106608  0.108556  0  1.03145  0
H  H5  1  0.87640684  0.33376245  0.24239466  1  0  0.107205  0  0.958067  0  0  0.111364  0  1.028858  0  0  0.115803  0  1.024041  0  0  0.106664  0.108617  0  1.031417  0
H  H6  1  0.42657965  0.96866937  0.63312538  1  0  0.091027  0  0.985083  0  0  0.087201  0  1.069177  0  0  0.091798  0  1.064064  0  0  0.115989  0.084049  0  1.072473  0
H  H7  1  0.57342234  0.03132912  0.36687939  1  0  0.09105  0  0.985075  0  0  0.087195  0  1.069198  0  0  0.091792  0  1.064092  0  0  0.115982  0.084045  0  1.072497  0
H  H8  1  0.13476815  0.96139158  0.12612850  1  0  0.1273  0  0.940846  0  0  0.136554  0  1.000574  0  0  0.140226  0  0.997988  0  0  0.113923  0.13313  0  1.0043  0
H  H9  1  0.86523698  0.03860805  0.87387509  1  0  0.127292  0  0.940788  0  0  0.136534  0  1.000519  0  0  0.140205  0  0.997933  0  0  0.113918  0.133109  0  1.004244  0
H  H10  1  0.34159458  0.72693637  0.04868637  1  0  0.071214  0  0.9629  0  0  0.076971  0  1.036128  0  0  0.079962  0  1.033259  0  0  0.105501  0.074339  0  1.039256  0
H  H11  1  0.65840465  0.27305981  0.95131885  1  0  0.071248  0  0.962746  0  0  0.077013  0  1.035972  0  0  0.080005  0  1.033101  0  0  0.105518  0.07438  0  1.039101  0
H  H12  1  0.91794359  0.82620267  0.23845116  1  0  0.114645  0  0.955656  0  0  0.124911  0  1.016374  0  0  0.128594  0  1.014528  0  0  0.107132  0.122375  0  1.017272  0
H  H13  1  0.08205966  0.17379932  0.76154640  1  0  0.114656  0  0.955711  0  0  0.124921  0  1.016422  0  0  0.128602  0  1.014578  0  0  0.107159  0.122386  0  1.017318  0
H  H14  1  0.81219921  0.65419099  0.32860794  1  0  0.084894  0  0.991682  0  0  0.09521  0  1.057347  0  0  0.09803  0  1.05609  0  0  0.086467  0.092374  0  1.059559  0
H  H15  1  0.18780301  0.34581804  0.67138303  1  0  0.084971  0  0.991647  0  0  0.095281  0  1.057301  0  0  0.098107  0  1.056034  0  0  0.086487  0.092446  0  1.059511  0
H  H16  1  0.83652851  0.69073817  0.73234412  1  0  0.092619  0  0.974893  0  0  0.096194  0  1.050824  0  0  0.100069  0  1.047506  0  0  0.094709  0.092036  0  1.055753  0
H  H17  1  0.16346138  0.30925811  0.26765777  1  0  0.092623  0  0.974859  0  0  0.096148  0  1.050824  0  0  0.100024  0  1.047504  0  0  0.094677  0.09199  0  1.055758  0
H  H18  1  0.54027553  0.43535940  0.71345272  1  0  0.082432  0  0.971086  0  0  0.088989  0  1.043754  0  0  0.092133  0  1.042376  0  0  0.087448  0.08666  0  1.04477  0
H  H19  1  0.45972268  0.56464031  0.28653320  1  0  0.08245  0  0.970997  0  0  0.088997  0  1.04367  0  0  0.092139  0  1.042295  0  0  0.087452  0.08668  0  1.044656  0
H  H20  1  0.64596477  0.53678799  0.85199555  1  0  0.082473  0  0.970987  0  0  0.093638  0  1.033554  0  0  0.095628  0  1.033911  0  0  0.095133  0.091978  0  1.033692  0
H  H21  1  0.35402863  0.46320475  0.14799660  1  0  0.082533  0  0.970996  0  0  0.093644  0  1.033627  0  0  0.095686  0  1.033931  0  0  0.095162  0.092004  0  1.033744  0
H  H22  1  0.62477889  0.50035126  0.44849742  1  0  0.082926  0  0.971098  0  0  0.093958  0  1.036047  0  0  0.096281  0  1.035304  0  0  0.09558  0.092355  0  1.036516  0
H  H23  1  0.37522103  0.49965779  0.55148635  1  0  0.083059  0  0.971057  0  0  0.094052  0  1.036041  0  0  0.096374  0  1.035301  0  0  0.09559  0.092452  0  1.03651  0
C  C24  1  0.22001187  0.68590698  0.91772406  1  0  -0.116429  0  3.764052  0  0  -0.125684  0  4.01278  0  0  -0.132884  0  4.034424  0  0  -0.088501  -0.120541  0  3.999508  0
C  C25  1  0.77998623  0.31409272  0.08228144  1  0  -0.116501  0  3.764109  0  0  -0.12578  0  4.012832  0  0  -0.132975  0  4.034467  0  0  -0.088544  -0.120635  0  3.999562  0
C  C26  1  0.19789915  0.71863928  0.78129325  1  0  -0.039404  0  3.689624  0  0  -0.071781  0  3.946163  0  0  -0.066459  0  3.960645  0  0  -0.07111  -0.077548  0  3.93701  0
C  C27  1  0.80210019  0.28136392  0.21871092  1  0  -0.039426  0  3.689623  0  0  -0.071791  0  3.946168  0  0  -0.066468  0  3.960648  0  0  -0.071156  -0.077555  0  3.937018  0
C  C28  1  0.27527045  0.82017142  0.67532944  1  0  -0.042521  0  3.80636  0  0  -0.019674  0  4.042321  0  0  -0.026349  0  4.066087  0  0  -0.004227  -0.016226  0  4.02821  0
C  C29  1  0.72473005  0.17983177  0.32467441  1  0  -0.042555  0  3.806389  0  0  -0.019718  0  4.04232  0  0  -0.0264  0  4.066104  0  0  -0.004242  -0.016269  0  4.028217  0
C  C30  1  0.36678736  0.88749638  0.71250112  1  0  0.103716  0  3.616769  0  0  0.068856  0  3.862295  0  0  0.075661  0  3.876923  0  0  0.048798  0.06363  0  3.852647  0
C  C31  1  0.63321271  0.11250447  0.28750351  1  0  0.103825  0  3.616856  0  0  0.069002  0  3.862388  0  0  0.075793  0  3.877033  0  0  0.048894  0.063771  0  3.852756  0
C  C32  1  0.11036730  0.90549190  0.23778748  1  0  -0.100468  0  3.698849  0  0  -0.120731  0  3.955921  0  0  -0.120544  0  3.969358  0  0  -0.059245  -0.122345  0  3.949246  0
C  C33  1  0.88963507  0.09450541  0.76221655  1  0  -0.100439  0  3.698604  0  0  -0.120689  0  3.955671  0  0  -0.120502  0  3.969109  0  0  -0.059276  -0.122304  0  3.948997  0
C  C34  1  0.20243841  0.90903480  0.32402459  1  0  0.255876  0  3.769051  0  0  0.218229  0  4.033525  0  0  0.229146  0  4.049644  0  0  0.213069  0.210156  0  4.024897  0
C  C35  1  0.79756550  0.09096132  0.67597934  1  0  0.255773  0  3.769043  0  0  0.218172  0  4.033479  0  0  0.229085  0  4.049601  0  0  0.213065  0.2101  0  4.02484  0
C  C36  1  0.84147428  0.68165971  0.52164545  1  0  0.009949  0  3.765888  0  0  0.030394  0  3.992204  0  0  0.026136  0  4.017613  0  0  -0.008531  0.032926  0  3.975644  0
C  C37  1  0.15852775  0.31833878  0.47835345  1  0  0.009888  0  3.765978  0  0  0.030277  0  3.992341  0  0  0.026019  0  4.017745  0  0  -0.008571  0.03281  0  3.97578  0
C  C38  1  0.26871347  0.86323167  0.52759981  1  0  0.218297  0  3.74331  0  0  0.17172  0  4.018417  0  0  0.182168  0  4.035633  0  0  0.221209  0.165748  0  4.007607  0
C  C39  1  0.73128624  0.13677036  0.47240459  1  0  0.218204  0  3.743408  0  0  0.171687  0  4.018429  0  0  0.182129  0  4.035641  0  0  0.221208  0.165712  0  4.007615  0
C  C40  1  0.31698499  0.75356064  0.94452214  1  0  0.099363  0  3.701059  0  0  0.070468  0  3.95021  0  0  0.076869  0  3.966878  0  0  0.03387  0.066953  0  3.940849  0
C  C41  1  0.68301508  0.24644021  0.05548346  1  0  0.099402  0  3.700909  0  0  0.070514  0  3.950059  0  0  0.076914  0  3.966722  0  0  0.033897  0.067013  0  3.940687  0
C  C42  1  0.99238704  0.83203954  0.30098228  1  0  -0.117743  0  3.667533  0  0  -0.142547  0  3.921936  0  0  -0.14495  0  3.937949  0  0  -0.072713  -0.137912  0  3.909323  0
C  C43  1  0.00761582  0.16796362  0.69901897  1  0  -0.117823  0  3.667465  0  0  -0.142617  0  3.921844  0  0  -0.145028  0  3.937877  0  0  -0.072751  -0.137983  0  3.909229  0
C  C44  1  0.96315583  0.76612112  0.45018687  1  0  0.198497  0  3.744177  0  0  0.191678  0  4.006314  0  0  0.201116  0  4.02146  0  0  0.138741  0.184936  0  3.994209  0
C  C45  1  0.03684427  0.23387973  0.54981384  1  0  0.198513  0  3.744219  0  0  0.191703  0  4.00636  0  0  0.201138  0  4.021517  0  0  0.138726  0.184965  0  3.994246  0
C  C46  1  0.77778038  0.62915199  0.44354662  1  0  -0.079469  0  3.712583  0  0  -0.101219  0  3.956499  0  0  -0.103078  0  3.978147  0  0  -0.085838  -0.100337  0  3.943906  0
C  C47  1  0.22222056  0.37085003  0.55644571  1  0  -0.079578  0  3.712784  0  0  -0.101314  0  3.956727  0  0  -0.103174  0  3.978364  0  0  -0.085887  -0.100431  0  3.944132  0
C  C48  1  0.79274909  0.64656027  0.66996533  1  0  -0.079316  0  3.702752  0  0  -0.104563  0  3.951837  0  0  -0.104848  0  3.971295  0  0  -0.086226  -0.103891  0  3.939696  0
C  C49  1  0.20724859  0.35343359  0.33003217  1  0  -0.079171  0  3.702624  0  0  -0.104324  0  3.951677  0  0  -0.10461  0  3.971144  0  0  -0.08612  -0.103656  0  3.939552  0
C  C50  1  0.62452185  0.50427981  0.65907803  1  0  -0.067865  0  3.757358  0  0  -0.085048  0  4.010919  0  0  -0.087156  0  4.033885  0  0  -0.094536  -0.083779  0  3.995955  0
C  C51  1  0.37547709  0.49571755  0.34091128  1  0  -0.067823  0  3.757062  0  0  -0.084974  0  4.010608  0  0  -0.087084  0  4.033585  0  0  -0.09448  -0.083703  0  3.995658  0
C  C52  1  0.68552661  0.55880210  0.73736058  1  0  -0.073912  0  3.773594  0  0  -0.081252  0  4.016032  0  0  -0.085344  0  4.040745  0  0  -0.095927  -0.078324  0  3.999171  0
C  C53  1  0.31447343  0.44119173  0.26263334  1  0  -0.07408  0  3.773678  0  0  -0.081409  0  4.016152  0  0  -0.085548  0  4.040856  0  0  -0.096043  -0.078492  0  3.999282  0
C  C54  1  0.67065578  0.54098273  0.51197898  1  0  -0.071642  0  3.770961  0  0  -0.088854  0  4.029002  0  0  -0.091045  0  4.050668  0  0  -0.099617  -0.087583  0  4.015288  0
C  C55  1  0.32934516  0.45901929  0.48801237  1  0  -0.07176  0  3.770844  0  0  -0.088923  0  4.028847  0  0  -0.091112  0  4.050507  0  0  -0.099597  -0.087657  0  4.015136  0
I  I56  1  0.70080532  0.76317058  0.05783804  1  0  -0.487806  0  1.287937  0  0  -0.435  0  1.66704  0  0  -0.45256  0  1.634778  0  0  -0.249068  -0.41952  0  1.688456  0
I  I57  1  0.29919238  0.23682679  0.94216530  1  0  -0.487812  0  1.287883  0  0  -0.435003  0  1.66697  0  0  -0.452564  0  1.634712  0  0  -0.249065  -0.419523  0  1.68839  0
N  N58  1  0.38787819  0.85542790  0.84378895  1  0  -0.26281  0  3.359758  0  0  -0.189183  0  3.644764  0  0  -0.200638  0  3.653659  0  0  -0.354267  -0.181596  0  3.637521  0
N  N59  1  0.61212262  0.14457060  0.15621712  1  0  -0.262923  0  3.359862  0  0  -0.189336  0  3.644923  0  0  -0.20078  0  3.653796  0  0  -0.354347  -0.181765  0  3.637723  0
N  N60  1  0.16204058  0.84458833  0.46791795  1  0  -0.016469  0  3.603574  0  0  0.092787  0  3.786263  0  0  0.07991  0  3.812999  0  0  -0.097809  0.09892  0  3.771401  0
N  N61  1  0.83796025  0.15541018  0.53208518  1  0  -0.016436  0  3.603532  0  0  0.09279  0  3.786214  0  0  0.07993  0  3.812932  0  0  -0.097843  0.098924  0  3.771347  0
N  N62  1  0.32896961  0.96234336  0.29954004  1  0  -0.225957  0  3.242927  0  0  -0.175623  0  3.563392  0  0  -0.184293  0  3.568783  0  0  -0.255479  -0.17029  0  3.560042  0
N  N63  1  0.67103084  0.03765632  0.70046482  1  0  -0.225894  0  3.242744  0  0  -0.175629  0  3.563269  0  0  -0.184308  0  3.568682  0  0  -0.255527  -0.170289  0  3.559887  0
N  N64  1  0.04524352  0.77458734  0.53327412  1  0  -0.223307  0  2.945695  0  0  -0.223876  0  3.214236  0  0  -0.229103  0  3.228697  0  0  -0.182282  -0.216091  0  3.202974  0
N  N65  1  0.95475774  0.22541350  0.46672921  1  0  -0.223311  0  2.945635  0  0  -0.223859  0  3.214143  0  0  -0.229092  0  3.228602  0  0  -0.182262  -0.216076  0  3.20288  0
N  N66  1  0.36850929  0.93376421  0.42503524  1  0  -0.216681  0  2.934747  0  0  -0.194559  0  3.219525  0  0  -0.201758  0  3.233922  0  0  -0.196187  -0.191267  0  3.210418  0
N  N67  1  0.63148732  0.06624019  0.57497031  1  0  -0.216596  0  2.934546  0  0  -0.19447  0  3.219298  0  0  -0.201667  0  3.233699  0  0  -0.196103  -0.191179  0  3.21018  0
