# generated using pymatgen
data_Zr3H14C31(Cl3O8)2
_symmetry_space_group_name_H-M   'P 1'
_cell_length_a   14.95811845
_cell_length_b   14.86387873
_cell_length_c   14.89873538
_cell_angle_alpha   60.12729164
_cell_angle_beta   59.82209128
_cell_angle_gamma   59.86937005
_symmetry_Int_Tables_number   1
_chemical_formula_structural   Zr3H14C31(Cl3O8)2
_chemical_formula_sum   'Zr6 H28 C62 Cl12 O32'
_cell_volume   2339.05721815
_cell_formula_units_Z   2
loop_
 _symmetry_equiv_pos_site_id
 _symmetry_equiv_pos_as_xyz
  1  'x, y, z'
loop_
 _atom_site_type_symbol
 _atom_site_label
 _atom_site_symmetry_multiplicity
 _atom_site_fract_x
 _atom_site_fract_y
 _atom_site_fract_z
 _atom_site_occupancy
 _atom_site_pbe_bader_charge
 _atom_site_pbe_bader_spin_density
 _atom_site_pbe_cm5_charge
 _atom_site_pbe_ddec_charge
 _atom_site_pbe_ddec_spin_density
 _atom_site_pbe_ddec_sum_bond_order
 _atom_site_pbe_magmom
Zr  Zr0  1  0.88042348  0.38129887  0.61312185  1  2.638541  0  1.62805  2.381429  0  2.755379  0
Zr  Zr1  1  0.11546032  0.62128088  0.37813956  1  2.632269  0  1.614972  2.377204  0  2.707815  0
Zr  Zr2  1  0.11564275  0.38416500  0.61748323  1  2.636494  0  1.626005  2.382468  0  2.751337  0
Zr  Zr3  1  0.88402360  0.61740750  0.37531286  1  2.632224  0  1.618556  2.3759  0  2.72214  0
Zr  Zr4  1  0.87748881  0.61672063  0.61846054  1  2.632957  0  1.624645  2.375528  0  2.747424  0
Zr  Zr5  1  0.12148877  0.37674785  0.38259730  1  2.633947  0  1.627493  2.375586  0  2.748684  0
H  H6  1  0.90306765  0.40788755  0.77824247  1  0.619583  0  0.326537  0.416072  0  0.871117  0
H  H7  1  0.90502451  0.78150026  0.40236081  1  0.584826  0  0.325092  0.414323  0  0.873975  0
H  H8  1  0.27858954  0.40713887  0.40830453  1  0.606393  0  0.331435  0.424056  0  0.85544  0
H  H9  1  0.91209667  0.40174327  0.40245391  1  0.618564  0  0.332389  0.425397  0  0.853815  0
H  H10  1  0.53922384  0.74363435  0.86430367  1  0.078633  0  0.088045  0.105297  0  1.032058  0
H  H11  1  0.62374374  0.66268078  0.94797983  1  0.041177  0  0.096009  0.107557  0  0.994293  0
H  H12  1  0.45503838  0.66544927  0.11795193  1  0.064823  0  0.08447  0.098213  0  1.042568  0
H  H13  1  0.36989005  0.74562899  0.03451787  1  0.073105  0  0.09595  0.113618  0  0.988698  0
H  H14  1  0.23674872  0.05426707  0.30805483  1  0.041307  0  0.093442  0.104677  0  1.008518  0
H  H15  1  0.12656539  0.13537555  0.25528644  1  0.089193  0  0.085322  0.100821  0  1.042007  0
H  H16  1  0.12722713  0.96568042  0.25587557  1  0.056961  0  0.100165  0.116145  0  0.970989  0
H  H17  1  0.23145441  0.88246523  0.31748154  1  0.066874  0  0.085831  0.099606  0  1.043031  0
H  H18  1  0.52352890  0.86117278  0.35799147  1  0.081526  0  0.087087  0.101053  0  1.031585  0
H  H19  1  0.60665650  0.94659237  0.26754082  1  0.072268  0  0.098181  0.113944  0  0.982459  0
H  H20  1  0.43713653  0.11532125  0.27358686  1  0.090665  0  0.084136  0.100694  0  1.051812  0
H  H21  1  0.35330784  0.03034420  0.36337806  1  0.071468  0  0.097471  0.111275  0  0.998862  0
H  H22  1  0.87914793  0.74524966  0.02842484  1  0.058315  0  0.100859  0.119156  0  0.9689  0
H  H23  1  0.77820670  0.67918614  0.11525884  1  0.056712  0  0.084511  0.098842  0  1.049226  0
H  H24  1  0.76774606  0.68752222  0.94661112  1  0.038574  0  0.093832  0.104961  0  0.996973  0
H  H25  1  0.87280880  0.74786447  0.86248552  1  0.076072  0  0.083311  0.100177  0  1.061844  0
H  H26  1  0.82503915  0.27189342  0.93726860  1  0.062281  0  0.097388  0.098337  0  1.028669  0
H  H27  1  0.67674994  0.28043994  0.11404570  1  0.087595  0  0.098291  0.097229  0  1.005471  0
H  H28  1  0.82056299  0.93291578  0.26512913  1  0.05524  0  0.09903  0.100226  0  1.040571  0
H  H29  1  0.67367148  0.10935666  0.27855516  1  0.057645  0  0.101479  0.100777  0  0.996227  0
H  H30  1  0.53957228  0.34972010  0.73895140  1  0.0639  0  0.089705  0.105332  0  1.022921  0
H  H31  1  0.62052203  0.26280931  0.65639767  1  0.066776  0  0.097768  0.112961  0  0.980834  0
H  H32  1  0.44804202  0.26648258  0.66015105  1  0.062552  0  0.088691  0.103638  0  1.023303  0
H  H33  1  0.36692581  0.35263566  0.74346804  1  0.063775  0  0.095875  0.112654  0  0.98891  0
C  C34  1  0.69373149  0.49782584  0.79598537  1  1.559042  0  0.235907  0.653661  0  4.102578  0
C  C35  1  0.99341169  0.79924805  0.50714932  1  1.576899  0  0.236738  0.657549  0  4.091978  0
C  C36  1  0.30129417  0.49780244  0.19681158  1  1.574584  0  0.234179  0.652917  0  4.095582  0
C  C37  1  0.00916444  0.18739579  0.50744332  1  1.58068  0  0.236949  0.657101  0  4.099251  0
C  C38  1  0.99947055  0.19401409  0.79602398  1  1.603787  0  0.233105  0.651252  0  4.117734  0
C  C39  1  0.69769809  0.50556640  0.49048285  1  1.566931  0  0.237439  0.657466  0  4.089186  0
C  C40  1  0.00344484  0.79774985  0.18643179  1  1.570341  0  0.236847  0.656722  0  4.114499  0
C  C41  1  0.29374924  0.51218560  0.49851068  1  1.577613  0  0.234766  0.652403  0  4.097975  0
C  C42  1  0.99687698  0.49837289  0.80277362  1  1.581142  0  0.234926  0.653314  0  4.100007  0
C  C43  1  0.29506122  0.19252172  0.51221054  1  1.585138  0  0.235163  0.655068  0  4.100062  0
C  C44  1  0.01539410  0.49199937  0.19252732  1  1.586866  0  0.235509  0.654449  0  4.095259  0
C  C45  1  0.69256873  0.79647612  0.50378713  1  1.569973  0  0.234899  0.653917  0  4.094601  0
C  C46  1  0.59715668  0.48951322  0.89943808  1  0.003131  0  -0.015729  -0.132761  0  3.940328  0
C  C47  1  0.40327376  0.49008404  0.09786425  1  0.079811  0  -0.015771  -0.131631  0  3.927929  0
C  C48  1  0.54530697  0.56978162  0.94902339  1  -0.036993  0  -0.003462  0.072597  0  3.894818  0
C  C49  1  0.45738284  0.40419878  0.05160293  1  0.053911  0  0.015165  0.060747  0  3.98644  0
C  C50  1  0.45231434  0.57061053  0.04336573  1  -0.017814  0  -0.005747  0.069393  0  3.899253  0
C  C51  1  0.55118363  0.40420037  0.95465415  1  0.151709  0  0.015182  0.059413  0  3.993008  0
C  C52  1  0.54988194  0.67393148  0.93901870  1  0.001471  0  -0.154495  -0.191549  0  3.860775  0
C  C53  1  0.44438342  0.67528280  0.04554324  1  -0.039721  0  -0.155271  -0.196876  0  3.861613  0
C  C54  1  0.00991860  0.08174202  0.51789783  1  0.107949  0  -0.01385  -0.127785  0  3.939892  0
C  C55  1  0.99444246  0.89505111  0.51517419  1  -0.004158  0  -0.014793  -0.131163  0  3.937112  0
C  C56  1  0.07456196  0.03953777  0.43114463  1  -0.053295  0  -0.005848  0.068236  0  3.896647  0
C  C57  1  0.92551869  0.93838556  0.60361518  1  0.078701  0  0.015353  0.061437  0  3.995152  0
C  C58  1  0.06926205  0.94842414  0.43129513  1  0.045714  0  -0.002835  0.073866  0  3.900081  0
C  C59  1  0.93828696  0.02393907  0.60859321  1  0.078439  0  0.015569  0.064794  0  3.994856  0
C  C60  1  0.15767017  0.05873589  0.31616526  1  -0.02536  0  -0.156475  -0.196574  0  3.874184  0
C  C61  1  0.15500829  0.95300618  0.31821674  1  -0.014647  0  -0.15313  -0.191204  0  3.863095  0
C  C62  1  0.59061703  0.89543824  0.51282523  1  0.082057  0  -0.014279  -0.12997  0  3.926063  0
C  C63  1  0.39142875  0.08880368  0.52042414  1  -0.073468  0  -0.017578  -0.132409  0  3.948168  0
C  C64  1  0.53416998  0.94359050  0.44000026  1  -0.045651  0  -0.004739  0.068426  0  3.90254  0
C  C65  1  0.44434926  0.03915196  0.59894142  1  0.12015  0  0.01394  0.060855  0  3.998388  0
C  C66  1  0.43974727  0.03646416  0.44321637  1  0.042911  0  -0.006009  0.069367  0  3.90431  0
C  C67  1  0.54302724  0.94720429  0.59301984  1  0.099477  0  0.014402  0.063872  0  3.981853  0
C  C68  1  0.53495535  0.93579128  0.34198444  1  -0.043968  0  -0.154283  -0.195966  0  3.864264  0
C  C69  1  0.42858050  0.04137610  0.34536087  1  -0.051682  0  -0.155274  -0.194859  0  3.864795  0
C  C70  1  0.01698460  0.48634441  0.09425315  1  -0.001767  0  -0.01506  -0.13019  0  3.939797  0
C  C71  1  0.00081708  0.48728420  0.90625478  1  0.060294  0  -0.014568  -0.127031  0  3.93059  0
C  C72  1  0.94110627  0.57024359  0.04262571  1  0.010272  0  -0.004246  0.07303  0  3.906445  0
C  C73  1  0.07525399  0.39694584  0.96120186  1  0.073126  0  0.015249  0.06407  0  3.984307  0
C  C74  1  0.93439194  0.57162552  0.95192045  1  -0.052731  0  -0.004398  0.070279  0  3.898014  0
C  C75  1  0.08690561  0.39935351  0.04878007  1  0.135863  0  0.014241  0.061281  0  3.994555  0
C  C76  1  0.85244083  0.68129882  0.04243717  1  -0.008486  0  -0.153701  -0.19276  0  3.863257  0
C  C77  1  0.84651736  0.68395795  0.93847787  1  0.005871  0  -0.158601  -0.197257  0  3.878424  0
C  C78  1  0.99852695  0.09095227  0.89606815  1  0.020544  0  -0.010364  -0.11427  0  3.903688  0
C  C79  1  0.91312612  0.09765807  0.99866294  1  0.015857  0  -0.001339  0.067078  0  3.955539  0
C  C80  1  0.07888020  0.99045560  0.88840447  1  0.098713  0  0.010844  0.060953  0  4.044054  0
C  C81  1  0.82677987  0.19810592  0.00955003  1  -0.034231  0  -0.092814  -0.126147  0  3.982078  0
C  C82  1  0.74300918  0.20262817  0.10833549  1  -0.044287  0  -0.094133  -0.083296  0  4.0388  0
C  C83  1  0.00050858  0.89889144  0.08474659  1  0.104402  0  -0.01295  -0.122488  0  3.909607  0
C  C84  1  0.08082246  0.89418592  0.98361173  1  0.05711  0  0.012162  0.063381  0  4.040807  0
C  C85  1  0.91286701  0.00004487  0.09380257  1  0.003238  0  -0.000601  0.06925  0  3.955953  0
C  C86  1  0.82458613  0.00743213  0.19405635  1  -0.079498  0  -0.093171  -0.131073  0  3.974556  0
C  C87  1  0.74146879  0.10619954  0.20117784  1  0.000548  0  -0.09227  -0.078162  0  4.030132  0
C  C88  1  0.59690918  0.51162261  0.48555204  1  -0.007729  0  -0.013837  -0.12948  0  3.924057  0
C  C89  1  0.39549591  0.51657203  0.49115758  1  0.005557  0  -0.013675  -0.127066  0  3.923906  0
C  C90  1  0.54286074  0.43616967  0.56644138  1  0.010118  0  -0.002218  0.074518  0  3.885276  0
C  C91  1  0.44920893  0.59439711  0.40699905  1  0.09867  0  0.014026  0.057133  0  3.990724  0
C  C92  1  0.44718176  0.43828492  0.56890280  1  0.037797  0  -0.002191  0.073824  0  3.885168  0
C  C93  1  0.54753710  0.59101489  0.40342270  1  0.10694  0  0.014403  0.058675  0  3.989406  0
C  C94  1  0.54792836  0.33585392  0.66892436  1  -0.020145  0  -0.152419  -0.193892  0  3.857646  0
C  C95  1  0.44001612  0.33801201  0.67154836  1  -0.013916  0  -0.152306  -0.19354  0  3.856725  0
Cl  Cl96  1  0.41347860  0.29390782  0.11094811  1  -0.163621  0  0.019181  -0.039521  0  1.801017  0
Cl  Cl97  1  0.60826627  0.29508082  0.90852874  1  -0.156123  0  0.025725  -0.029707  0  1.718962  0
Cl  Cl98  1  0.81908050  0.89315621  0.70737278  1  -0.15244  0  0.028913  -0.025862  0  1.827755  0
Cl  Cl99  1  0.86632766  0.05291202  0.72989708  1  -0.162238  0  0.007609  -0.040702  0  1.656822  0
Cl  Cl100  1  0.39138163  0.08732992  0.70551560  1  -0.157458  0  0.015263  -0.036214  0  1.704696  0
Cl  Cl101  1  0.60513363  0.90495848  0.68451598  1  -0.158961  0  0.01583  -0.044894  0  1.807636  0
Cl  Cl102  1  0.15169674  0.27789593  0.92731849  1  -0.160663  0  0.006174  -0.045317  0  1.654642  0
Cl  Cl103  1  0.19179568  0.29370111  0.09563180  1  -0.16592  0  0.019925  -0.038829  0  1.782371  0
Cl  Cl104  1  0.39821514  0.69735822  0.30319859  1  -0.17203  0  0.030008  -0.034239  0  1.758052  0
Cl  Cl105  1  0.60627446  0.68655178  0.29276052  1  -0.161407  0  0.029269  -0.036657  0  1.756742  0
Cl  Cl106  1  0.18240154  0.77037789  0.97161434  1  -0.18202  0  0.010856  -0.040583  0  1.555602  0
Cl  Cl107  1  0.17555661  0.98056481  0.76236270  1  -0.182325  0  0.006119  -0.047057  0  1.591428  0
O  O108  1  0.73391366  0.42864856  0.74743858  1  -1.168808  0  -0.366957  -0.630286  0  2.399791  0
O  O109  1  0.06778983  0.76764460  0.42498987  1  -1.171117  0  -0.33978  -0.597974  0  2.24529  0
O  O110  1  0.26384597  0.57822520  0.23041331  1  -1.166148  0  -0.339778  -0.602702  0  2.23033  0
O  O111  1  0.92721521  0.23758517  0.57340041  1  -1.186057  0  -0.36746  -0.627266  0  2.393823  0
O  O112  1  0.07302855  0.23392114  0.76203865  1  -1.158767  0  -0.341139  -0.606887  0  2.272366  0
O  O113  1  0.74127576  0.57966573  0.41816097  1  -1.17731  0  -0.369104  -0.636077  0  2.391144  0
O  O114  1  0.92807331  0.75764440  0.22632671  1  -1.168221  0  -0.348498  -0.614747  0  2.271452  0
O  O115  1  0.26050687  0.43267801  0.57553334  1  -1.167809  0  -0.331241  -0.586089  0  2.224582  0
O  O116  1  0.91704846  0.57467336  0.76991330  1  -1.1702  0  -0.333703  -0.595481  0  2.211593  0
O  O117  1  0.26250514  0.22860909  0.43216535  1  -1.172041  0  -0.342426  -0.602944  0  2.255488  0
O  O118  1  0.08764686  0.41726045  0.23698719  1  -1.183303  0  -0.361786  -0.619145  0  2.380108  0
O  O119  1  0.73368629  0.74930406  0.57961633  1  -1.178539  0  -0.369053  -0.624576  0  2.411966  0
O  O120  1  0.25387335  0.24007921  0.58233684  1  -1.18011  0  -0.366392  -0.6272  0  2.410503  0
O  O121  1  0.93787927  0.57154083  0.22700437  1  -1.170806  0  -0.341046  -0.601316  0  2.257645  0
O  O122  1  0.73155804  0.76616325  0.42096464  1  -1.167714  0  -0.332847  -0.595562  0  2.215618  0
O  O123  1  0.07618483  0.43131011  0.75220830  1  -1.180096  0  -0.372186  -0.631322  0  2.403185  0
O  O124  1  0.92361132  0.23382785  0.75692554  1  -1.173169  0  -0.348526  -0.614328  0  2.292997  0
O  O125  1  0.24836129  0.58646856  0.42655948  1  -1.179482  0  -0.368055  -0.632306  0  2.398667  0
O  O126  1  0.07715037  0.76325384  0.22629624  1  -1.164537  0  -0.341688  -0.614345  0  2.245207  0
O  O127  1  0.73341129  0.42619152  0.56737507  1  -1.171204  0  -0.332946  -0.588501  0  2.223382  0
O  O128  1  0.08670113  0.22344222  0.42969871  1  -1.177972  0  -0.34048  -0.599881  0  2.232512  0
O  O129  1  0.73019732  0.57419674  0.76346291  1  -1.161526  0  -0.339027  -0.594852  0  2.251188  0
O  O130  1  0.92014895  0.75546197  0.58114366  1  -1.180923  0  -0.364698  -0.628889  0  2.379557  0
O  O131  1  0.25907706  0.42318206  0.24119934  1  -1.183085  0  -0.364887  -0.620582  0  2.413235  0
O  O132  1  0.93674965  0.43063739  0.42851287  1  -1.243474  0  -0.694656  -1.070568  0  2.367935  0
O  O133  1  0.19901273  0.43438740  0.43341332  1  -1.233173  0  -0.693465  -1.068422  0  2.365429  0
O  O134  1  0.93101740  0.70165003  0.42806824  1  -1.216568  0  -0.690227  -1.065326  0  2.356717  0
O  O135  1  0.92986931  0.43330509  0.69855345  1  -1.251388  0  -0.696348  -1.071952  0  2.374744  0
O  O136  1  0.04499027  0.55173286  0.54649705  1  -1.194572  0  -0.790304  -1.148025  0  2.133584  0
O  O137  1  0.85285316  0.54878579  0.54373448  1  -1.198678  0  -0.79095  -1.148484  0  2.135529  0
O  O138  1  0.05069010  0.54762985  0.34985424  1  -1.193841  0  -0.787112  -1.143229  0  2.120924  0
O  O139  1  0.04853943  0.35107727  0.54887296  1  -1.201188  0  -0.792664  -1.149201  0  2.132772  0
