# generated using pymatgen
data_Nd2H12C8SO14
_symmetry_space_group_name_H-M   'P 1'
_cell_length_a   9.48149640
_cell_length_b   12.73578891
_cell_length_c   12.95223104
_cell_angle_alpha   110.21614270
_cell_angle_beta   90.00000830
_cell_angle_gamma   89.99998774
_symmetry_Int_Tables_number   1
_chemical_formula_structural   Nd2H12C8SO14
_chemical_formula_sum   'Nd8 H48 C32 S4 O56'
_cell_volume   1467.68659791
_cell_formula_units_Z   4
loop_
 _symmetry_equiv_pos_site_id
 _symmetry_equiv_pos_as_xyz
  1  'x, y, z'
loop_
 _atom_site_type_symbol
 _atom_site_label
 _atom_site_symmetry_multiplicity
 _atom_site_fract_x
 _atom_site_fract_y
 _atom_site_fract_z
 _atom_site_occupancy
 _atom_site_hle17_bader_spin_density
 _atom_site_hle17_ddec_charge
 _atom_site_hle17_ddec_spin_density
 _atom_site_hle17_ddec_sum_bond_order
 _atom_site_hle17_magmom
 _atom_site_hse06_10hf_bader_spin_density
 _atom_site_hse06_10hf_ddec_charge
 _atom_site_hse06_10hf_ddec_spin_density
 _atom_site_hse06_10hf_ddec_sum_bond_order
 _atom_site_hse06_10hf_magmom
 _atom_site_hse06_bader_spin_density
 _atom_site_hse06_ddec_charge
 _atom_site_hse06_ddec_spin_density
 _atom_site_hse06_ddec_sum_bond_order
 _atom_site_hse06_magmom
 _atom_site_pbe_bader_spin_density
 _atom_site_pbe_cm5_charge
 _atom_site_pbe_ddec_charge
 _atom_site_pbe_ddec_spin_density
 _atom_site_pbe_ddec_sum_bond_order
 _atom_site_pbe_magmom
Nd  Nd0  1  0.16148828  0.04183716  0.61558777  1  0  2.359761  0  1.577686  0  0  2.253175  0  1.936369  0  0  2.293746  0  1.894243  0  0  1.518502  2.172597  0  2.060201  0
Nd  Nd1  1  0.66148844  0.45816335  0.88441299  1  0  2.359774  0  1.577666  0  0  2.253185  0  1.936345  0  0  2.293754  0  1.894219  0  0  1.518504  2.172621  0  2.060153  0
Nd  Nd2  1  0.83851311  0.95816264  0.38441245  1  0  2.359768  0  1.577697  0  0  2.253176  0  1.936377  0  0  2.293748  0  1.89425  0  0  1.518507  2.172602  0  2.060203  0
Nd  Nd3  1  0.33851190  0.54183729  0.11558751  1  0  2.359739  0  1.577714  0  0  2.253159  0  1.936397  0  0  2.293726  0  1.894272  0  0  1.51849  2.172572  0  2.060248  0
Nd  Nd4  1  0.36496977  0.94750662  0.86819937  1  0  2.341235  0  1.602464  0  0  2.236948  0  1.958385  0  0  2.276829  0  1.917474  0  0  1.520413  2.153461  0  2.086716  0
Nd  Nd5  1  0.86496999  0.55249269  0.63180042  1  0  2.341247  0  1.602454  0  0  2.236952  0  1.958377  0  0  2.276832  0  1.917466  0  0  1.520404  2.153471  0  2.086697  0
Nd  Nd6  1  0.63503057  0.05249319  0.13180085  1  0  2.341262  0  1.602442  0  0  2.236976  0  1.958366  0  0  2.276858  0  1.917455  0  0  1.520417  2.153498  0  2.086686  0
Nd  Nd7  1  0.13503035  0.44750712  0.36819979  1  0  2.341253  0  1.602428  0  0  2.236976  0  1.958349  0  0  2.276855  0  1.91744  0  0  1.520416  2.15348  0  2.086696  0
H  H8  1  0.23758370  0.86034763  0.21552217  1  0  0.124451  0  0.935858  0  0  0.138354  0  0.994143  0  0  0.141109  0  0.993161  0  0  0.113445  0.13611  0  0.99551  0
H  H9  1  0.73758393  0.63965232  0.28447700  1  0  0.124461  0  0.93587  0  0  0.138384  0  0.994133  0  0  0.141137  0  0.993152  0  0  0.113453  0.136139  0  0.995502  0
H  H10  1  0.76241558  0.13965301  0.78447755  1  0  0.124423  0  0.935835  0  0  0.138344  0  0.994099  0  0  0.141098  0  0.993118  0  0  0.113429  0.1361  0  0.995469  0
H  H11  1  0.26241535  0.36034749  0.71552244  1  0  0.124441  0  0.935808  0  0  0.138345  0  0.994097  0  0  0.141097  0  0.993118  0  0  0.113427  0.1361  0  0.995468  0
H  H12  1  0.38303647  0.95124568  0.25860299  1  0  0.104899  0  0.945454  0  0  0.115252  0  1.011439  0  0  0.118278  0  1.009738  0  0  0.109927  0.113651  0  1.011679  0
H  H13  1  0.88303672  0.54875425  0.24139697  1  0  0.104909  0  0.945466  0  0  0.115262  0  1.01146  0  0  0.118287  0  1.009759  0  0  0.109919  0.113661  0  1.0117  0
H  H14  1  0.61696281  0.04875496  0.74139751  1  0  0.104921  0  0.945443  0  0  0.115274  0  1.011427  0  0  0.118299  0  1.009727  0  0  0.109939  0.113674  0  1.01167  0
H  H15  1  0.11696256  0.45124556  0.75860324  1  0  0.104901  0  0.945457  0  0  0.115258  0  1.011438  0  0  0.118284  0  1.009736  0  0  0.109915  0.113658  0  1.011676  0
H  H16  1  0.08610246  0.01798191  0.20282958  1  0  0.112221  0  0.943276  0  0  0.124799  0  1.003414  0  0  0.127543  0  1.002066  0  0  0.110494  0.122962  0  1.004092  0
H  H17  1  0.58610259  0.48201840  0.29717029  1  0  0.112219  0  0.94329  0  0  0.124797  0  1.003432  0  0  0.127542  0  1.002084  0  0  0.110499  0.12296  0  1.004107  0
H  H18  1  0.91389682  0.98201873  0.79717092  1  0  0.112222  0  0.943253  0  0  0.124799  0  1.003394  0  0  0.127543  0  1.002046  0  0  0.110496  0.12296  0  1.00407  0
H  H19  1  0.41389669  0.51798057  0.70282964  1  0  0.112219  0  0.943268  0  0  0.124798  0  1.003409  0  0  0.127542  0  1.002062  0  0  0.110501  0.12296  0  1.004086  0
H  H20  1  0.22670157  0.11342903  0.25416361  1  0  0.124136  0  0.935274  0  0  0.137873  0  0.992925  0  0  0.140715  0  0.991655  0  0  0.113081  0.135596  0  0.994451  0
H  H21  1  0.72670172  0.38657210  0.24583656  1  0  0.12409  0  0.935271  0  0  0.137829  0  0.992925  0  0  0.140672  0  0.991656  0  0  0.113057  0.135552  0  0.99445  0
H  H22  1  0.77329771  0.88657245  0.74583718  1  0  0.124089  0  0.935275  0  0  0.137827  0  0.992929  0  0  0.14067  0  0.991661  0  0  0.113059  0.135549  0  0.994454  0
H  H23  1  0.27329757  0.61342854  0.75416395  1  0  0.12414  0  0.935244  0  0  0.137879  0  0.992897  0  0  0.140721  0  0.991627  0  0  0.113087  0.135602  0  0.994422  0
H  H24  1  0.19844228  0.20167789  0.00869449  1  0  0.120173  0  0.947615  0  0  0.131682  0  1.010865  0  0  0.134373  0  1.009688  0  0  0.114552  0.130022  0  1.011231  0
H  H25  1  0.69844250  0.29832240  0.49130539  1  0  0.120187  0  0.947591  0  0  0.131716  0  1.01083  0  0  0.134409  0  1.009652  0  0  0.114556  0.130056  0  1.011195  0
H  H26  1  0.80155701  0.79832275  0.99130601  1  0  0.120168  0  0.947612  0  0  0.131713  0  1.010846  0  0  0.134406  0  1.009669  0  0  0.11456  0.130053  0  1.011211  0
H  H27  1  0.30155783  0.70167740  0.50869483  1  0  0.120186  0  0.947578  0  0  0.131726  0  1.010833  0  0  0.134419  0  1.009655  0  0  0.114562  0.130067  0  1.011196  0
H  H28  1  0.03862996  0.13023428  0.00893784  1  0  0.14286  0  0.928791  0  0  0.155105  0  0.986385  0  0  0.158381  0  0.984784  0  0  0.117778  0.152601  0  0.988071  0
H  H29  1  0.53862911  0.36976604  0.49106202  1  0  0.142855  0  0.928799  0  0  0.155108  0  0.986392  0  0  0.158385  0  0.984788  0  0  0.117774  0.152602  0  0.988081  0
H  H30  1  0.96137038  0.86976552  0.99106237  1  0  0.14284  0  0.928788  0  0  0.155099  0  0.98639  0  0  0.158375  0  0.984788  0  0  0.11777  0.152594  0  0.988076  0
H  H31  1  0.46137017  0.63023376  0.50893896  1  0  0.142826  0  0.928791  0  0  0.155097  0  0.986391  0  0  0.158372  0  0.984789  0  0  0.117768  0.152591  0  0.988079  0
H  H32  1  0.89674027  0.28882442  0.00611194  1  0  0.122098  0  0.911831  0  0  0.136173  0  0.967484  0  0  0.138501  0  0.967051  0  0  0.114984  0.134637  0  0.967699  0
H  H33  1  0.39674119  0.21117417  0.49388738  1  0  0.122085  0  0.911851  0  0  0.136156  0  0.967514  0  0  0.138483  0  0.96708  0  0  0.114981  0.134619  0  0.967729  0
H  H34  1  0.10325902  0.71117454  0.99388800  1  0  0.122068  0  0.911798  0  0  0.136143  0  0.967446  0  0  0.138469  0  0.967012  0  0  0.114971  0.134606  0  0.967661  0
H  H35  1  0.60325809  0.78882563  0.50611284  1  0  0.122084  0  0.911804  0  0  0.136147  0  0.967465  0  0  0.138475  0  0.967029  0  0  0.11497  0.134611  0  0.967678  0
H  H36  1  0.04447826  0.35605055  0.96979863  1  0  0.126991  0  0.943354  0  0  0.137281  0  1.004765  0  0  0.140597  0  1.002803  0  0  0.113928  0.134887  0  1.006284  0
H  H37  1  0.54447843  0.14394914  0.53020107  1  0  0.126982  0  0.943355  0  0  0.137269  0  1.00477  0  0  0.140585  0  1.002807  0  0  0.113927  0.134875  0  1.006289  0
H  H38  1  0.95552102  0.64394925  0.03020159  1  0  0.127  0  0.943429  0  0  0.137286  0  1.004833  0  0  0.140602  0  1.002873  0  0  0.113947  0.134892  0  1.006352  0
H  H39  1  0.45552190  0.85604983  0.46979886  1  0  0.126996  0  0.943364  0  0  0.137267  0  1.00478  0  0  0.140582  0  1.002819  0  0  0.113934  0.134874  0  1.006298  0
H  H40  1  0.41991899  0.22227422  0.69695414  1  0  0.452721  0  0.841579  0  0  0.42495  0  0.899519  0  0  0.435599  0  0.883969  0  0  0.307597  0.417131  0  0.910838  0
H  H41  1  0.91991813  0.27772542  0.80304635  1  0  0.452726  0  0.841571  0  0  0.424956  0  0.899512  0  0  0.435604  0  0.883963  0  0  0.307596  0.417136  0  0.910832  0
H  H42  1  0.58008135  0.77772558  0.30304684  1  0  0.452783  0  0.841527  0  0  0.425013  0  0.899465  0  0  0.435662  0  0.883912  0  0  0.307627  0.417192  0  0.910785  0
H  H43  1  0.08008116  0.72227438  0.19695387  1  0  0.452736  0  0.841556  0  0  0.424966  0  0.899495  0  0  0.435614  0  0.883947  0  0  0.307607  0.417146  0  0.910816  0
H  H44  1  0.37414458  0.17350274  0.78744797  1  0  0.435413  0  0.860492  0  0  0.407437  0  0.919589  0  0  0.417609  0  0.904559  0  0  0.307838  0.40029  0  0.929914  0
H  H45  1  0.87414474  0.32649691  0.71255174  1  0  0.435408  0  0.860498  0  0  0.407434  0  0.919592  0  0  0.417605  0  0.904562  0  0  0.307835  0.400286  0  0.929917  0
H  H46  1  0.62585575  0.82649706  0.21255224  1  0  0.435402  0  0.860507  0  0  0.407425  0  0.919605  0  0  0.417597  0  0.904575  0  0  0.307835  0.400277  0  0.929931  0
H  H47  1  0.12585559  0.67350290  0.28744847  1  0  0.435416  0  0.860501  0  0  0.407442  0  0.919592  0  0  0.417616  0  0.90456  0  0  0.307844  0.400295  0  0.929917  0
H  H48  1  0.12949852  0.76082385  0.78218171  1  0  0.457358  0  0.834406  0  0  0.42852  0  0.892561  0  0  0.439712  0  0.876231  0  0  0.309566  0.420352  0  0.904339  0
H  H49  1  0.62949765  0.73917633  0.71781912  1  0  0.457434  0  0.834319  0  0  0.428617  0  0.892434  0  0  0.439809  0  0.876104  0  0  0.309612  0.420452  0  0.904206  0
H  H50  1  0.87050182  0.23917596  0.21781850  1  0  0.457503  0  0.834248  0  0  0.428686  0  0.89236  0  0  0.439877  0  0.87603  0  0  0.309626  0.420519  0  0.904135  0
H  H51  1  0.37050269  0.26082348  0.28218110  1  0  0.457515  0  0.834232  0  0  0.4287  0  0.892338  0  0  0.439892  0  0.876007  0  0  0.30964  0.420533  0  0.904114  0
H  H52  1  0.16126775  0.81167823  0.68879257  1  0  0.435449  0  0.858606  0  0  0.406258  0  0.920209  0  0  0.416319  0  0.905296  0  0  0.309825  0.399244  0  0.930299  0
H  H53  1  0.66126691  0.68832278  0.81120855  1  0  0.435446  0  0.858605  0  0  0.406252  0  0.920213  0  0  0.416313  0  0.9053  0  0  0.309812  0.399238  0  0.930304  0
H  H54  1  0.83873259  0.18832241  0.31120794  1  0  0.435484  0  0.858558  0  0  0.406296  0  0.920154  0  0  0.416356  0  0.905242  0  0  0.309832  0.399282  0  0.930245  0
H  H55  1  0.33873237  0.31167786  0.18879195  1  0  0.435483  0  0.858564  0  0  0.406297  0  0.920155  0  0  0.416357  0  0.905244  0  0  0.309833  0.399283  0  0.930246  0
C  C56  1  0.26773822  0.94749716  0.26034095  1  0  -0.232702  0  3.613485  0  0  -0.270326  0  3.854323  0  0  -0.276004  0  3.861178  0  0  -0.15081  -0.266868  0  3.851037  0
C  C57  1  0.76773846  0.55250277  0.23965901  1  0  -0.232782  0  3.613545  0  0  -0.270449  0  3.854406  0  0  -0.27612  0  3.861263  0  0  -0.150825  -0.266989  0  3.851121  0
C  C58  1  0.73226106  0.05250348  0.73965878  1  0  -0.23278  0  3.613493  0  0  -0.270434  0  3.854345  0  0  -0.276112  0  3.8612  0  0  -0.150832  -0.266979  0  3.851061  0
C  C59  1  0.23226082  0.44749703  0.76034121  1  0  -0.232762  0  3.613493  0  0  -0.270401  0  3.854342  0  0  -0.276076  0  3.861201  0  0  -0.150815  -0.266944  0  3.851058  0
C  C60  1  0.09919538  0.13884805  0.85588782  1  0  0.755221  0  3.796862  0  0  0.70824  0  4.097431  0  0  0.742335  0  4.087274  0  0  0.226023  0.685318  0  4.098326  0
C  C61  1  0.59919446  0.36115247  0.64411294  1  0  0.755167  0  3.796889  0  0  0.7082  0  4.097443  0  0  0.742293  0  4.087288  0  0  0.226059  0.685279  0  4.098338  0
C  C62  1  0.90080496  0.86115258  0.14411268  1  0  0.755178  0  3.796905  0  0  0.708175  0  4.097538  0  0  0.74227  0  4.087379  0  0  0.226028  0.685254  0  4.098433  0
C  C63  1  0.40080588  0.63884650  0.35588700  1  0  0.755091  0  3.797108  0  0  0.708174  0  4.097633  0  0  0.742269  0  4.087473  0  0  0.226002  0.685252  0  4.098524  0
C  C64  1  0.25672742  0.00061699  0.09137571  1  0  0.750236  0  3.784941  0  0  0.709128  0  4.083451  0  0  0.742811  0  4.073376  0  0  0.222042  0.6865  0  4.084026  0
C  C65  1  0.75672757  0.49938329  0.40862416  1  0  0.750152  0  3.785012  0  0  0.709062  0  4.083497  0  0  0.742744  0  4.073428  0  0  0.222028  0.686436  0  4.084068  0
C  C66  1  0.74327292  0.99938281  0.90862450  1  0  0.75026  0  3.785192  0  0  0.709226  0  4.083579  0  0  0.742908  0  4.073509  0  0  0.222115  0.686599  0  4.084153  0
C  C67  1  0.24327277  0.50061651  0.59137528  1  0  0.750241  0  3.785226  0  0  0.709214  0  4.083608  0  0  0.742895  0  4.073541  0  0  0.222099  0.686587  0  4.08418  0
C  C68  1  0.04381794  0.36174266  0.13508169  1  0  0.765685  0  3.775521  0  0  0.720546  0  4.074263  0  0  0.754793  0  4.063717  0  0  0.231648  0.697504  0  4.075499  0
C  C69  1  0.54381819  0.13825682  0.36491789  1  0  0.765674  0  3.775515  0  0  0.72055  0  4.07424  0  0  0.754787  0  4.063706  0  0  0.231639  0.697508  0  4.075479  0
C  C70  1  0.95618345  0.63825715  0.86491698  1  0  0.765629  0  3.77559  0  0  0.720471  0  4.074359  0  0  0.754702  0  4.063835  0  0  0.231615  0.697429  0  4.075596  0
C  C71  1  0.45618110  0.86174298  0.63508233  1  0  0.765604  0  3.775574  0  0  0.72044  0  4.074346  0  0  0.754677  0  4.063816  0  0  0.23158  0.697398  0  4.075583  0
C  C72  1  0.20105689  0.02606595  0.20649273  1  0  -0.234656  0  3.609769  0  0  -0.271972  0  3.850254  0  0  -0.277222  0  3.856688  0  0  -0.152115  -0.268834  0  3.847384  0
C  C73  1  0.70105702  0.47393518  0.29350820  1  0  -0.234554  0  3.609753  0  0  -0.271873  0  3.850248  0  0  -0.277123  0  3.856679  0  0  -0.152087  -0.268738  0  3.847379  0
C  C74  1  0.79894239  0.97393553  0.79350805  1  0  -0.234528  0  3.609733  0  0  -0.271864  0  3.850203  0  0  -0.27711  0  3.856632  0  0  -0.152078  -0.268728  0  3.84734  0
C  C75  1  0.29894226  0.52606462  0.70649202  1  0  -0.234588  0  3.60976  0  0  -0.27194  0  3.850251  0  0  -0.277186  0  3.856678  0  0  -0.152122  -0.268811  0  3.847397  0
C  C76  1  0.08927607  0.19119745  0.97814328  1  0  -0.26512  0  3.654534  0  0  -0.301421  0  3.898063  0  0  -0.307738  0  3.905179  0  0  -0.155916  -0.297306  0  3.89395  0
C  C77  1  0.58927619  0.30880223  0.52185642  1  0  -0.265145  0  3.654582  0  0  -0.301489  0  3.898111  0  0  -0.307809  0  3.905233  0  0  -0.155939  -0.297371  0  3.893997  0
C  C78  1  0.91072322  0.80880235  0.02185616  1  0  -0.2651  0  3.654499  0  0  -0.30149  0  3.898108  0  0  -0.307812  0  3.905228  0  0  -0.15595  -0.297374  0  3.893993  0
C  C79  1  0.41072415  0.69119757  0.47814457  1  0  -0.265054  0  3.654532  0  0  -0.301495  0  3.898142  0  0  -0.307814  0  3.90526  0  0  -0.155953  -0.297376  0  3.894025  0
C  C80  1  0.01093705  0.30299265  0.01610465  1  0  -0.248412  0  3.657611  0  0  -0.287911  0  3.903881  0  0  -0.293383  0  3.910264  0  0  -0.157898  -0.284482  0  3.900362  0
C  C81  1  0.51093730  0.19700683  0.48389493  1  0  -0.248349  0  3.657651  0  0  -0.287851  0  3.903921  0  0  -0.293322  0  3.910309  0  0  -0.157879  -0.284423  0  3.900402  0
C  C82  1  0.98906118  0.69700715  0.98389556  1  0  -0.24835  0  3.657631  0  0  -0.287813  0  3.903898  0  0  -0.293278  0  3.910284  0  0  -0.157887  -0.284384  0  3.900378  0
C  C83  1  0.48906198  0.80299213  0.51610501  1  0  -0.248383  0  3.657646  0  0  -0.287812  0  3.903903  0  0  -0.29328  0  3.910289  0  0  -0.157861  -0.284384  0  3.900383  0
C  C84  1  0.22339501  0.97516308  0.37848138  1  0  0.761659  0  3.776007  0  0  0.720702  0  4.071111  0  0  0.755123  0  4.059944  0  0  0.227279  0.697605  0  4.072646  0
C  C85  1  0.72339524  0.52483770  0.12151962  1  0  0.761752  0  3.775998  0  0  0.720823  0  4.071075  0  0  0.755234  0  4.05992  0  0  0.227328  0.697724  0  4.072613  0
C  C86  1  0.77660427  0.02483840  0.62152017  1  0  0.761789  0  3.775966  0  0  0.72085  0  4.071022  0  0  0.755273  0  4.059852  0  0  0.227341  0.697753  0  4.07256  0
C  C87  1  0.27660404  0.47516210  0.87848059  1  0  0.761752  0  3.775952  0  0  0.720833  0  4.070996  0  0  0.755243  0  4.059839  0  0  0.227344  0.697736  0  4.072532  0
S  S88  1  0.50264013  0.25068395  0.99744450  1  0  1.712485  0  5.69075  0  0  1.594601  0  6.229134  0  0  1.651497  0  6.187702  0  0  0.627716  1.553926  0  6.252225  0
S  S89  1  0.00263989  0.24931575  0.50255519  1  0  1.712512  0  5.69058  0  0  1.59463  0  6.228961  0  0  1.65153  0  6.187521  0  0  0.627746  1.553956  0  6.252047  0
S  S90  1  0.49735915  0.74931585  0.00255494  1  0  1.712543  0  5.690552  0  0  1.594662  0  6.228926  0  0  1.651559  0  6.187489  0  0  0.627737  1.553988  0  6.252015  0
S  S91  1  0.99735939  0.75068406  0.49744502  1  0  1.712589  0  5.690576  0  0  1.594707  0  6.228947  0  0  1.651605  0  6.187509  0  0  0.627744  1.554032  0  6.252038  0
O  O92  1  0.60236172  0.29785918  0.93707718  1  0  -0.812131  0  1.983541  0  0  -0.766308  0  2.256503  0  0  -0.78776  0  2.23793  0  0  -0.416982  -0.744305  0  2.270571  0
O  O93  1  0.10236256  0.20214134  0.56292280  1  0  -0.812129  0  1.983505  0  0  -0.766305  0  2.256459  0  0  -0.787758  0  2.237884  0  0  -0.416965  -0.744301  0  2.270526  0
O  O94  1  0.39763650  0.70214146  0.06292255  1  0  -0.812113  0  1.983509  0  0  -0.76629  0  2.25646  0  0  -0.787742  0  2.237887  0  0  -0.416957  -0.744284  0  2.270529  0
O  O95  1  0.89763777  0.79785846  0.43707741  1  0  -0.812131  0  1.983556  0  0  -0.766307  0  2.256507  0  0  -0.787759  0  2.237932  0  0  -0.416957  -0.744303  0  2.270576  0
O  O96  1  0.39660929  0.33673228  0.06029773  1  0  -0.83764  0  1.97915  0  0  -0.781561  0  2.239344  0  0  -0.803132  0  2.220117  0  0  -0.397415  -0.759995  0  2.253409  0
O  O97  1  0.89660955  0.16326799  0.43970216  1  0  -0.837658  0  1.979151  0  0  -0.781578  0  2.239346  0  0  -0.803152  0  2.220118  0  0  -0.397421  -0.760015  0  2.25341  0
O  O98  1  0.60338999  0.66326836  0.93970200  1  0  -0.837655  0  1.97914  0  0  -0.781569  0  2.239337  0  0  -0.80314  0  2.22011  0  0  -0.397409  -0.760006  0  2.253401  0
O  O99  1  0.10339079  0.83673182  0.56029729  1  0  -0.837679  0  1.97913  0  0  -0.781602  0  2.239338  0  0  -0.803176  0  2.220113  0  0  -0.397407  -0.760037  0  2.253402  0
O  O100  1  0.13395982  0.44185822  0.16574474  1  0  -0.809953  0  2.077993  0  0  -0.764199  0  2.342078  0  0  -0.788532  0  2.32969  0  0  -0.421338  -0.736325  0  2.349972  0
O  O101  1  0.63396219  0.05814208  0.33425591  1  0  -0.809969  0  2.077924  0  0  -0.764219  0  2.341978  0  0  -0.788547  0  2.329591  0  0  -0.421353  -0.736349  0  2.349872  0
O  O102  1  0.86604052  0.55814242  0.83425422  1  0  -0.80994  0  2.078012  0  0  -0.764189  0  2.342107  0  0  -0.788518  0  2.329725  0  0  -0.421308  -0.73632  0  2.349998  0
O  O103  1  0.36603814  0.94185773  0.66574354  1  0  -0.809925  0  2.077984  0  0  -0.76417  0  2.342075  0  0  -0.7885  0  2.329691  0  0  -0.421318  -0.736298  0  2.349967  0
O  O104  1  0.16711188  0.04568621  0.81435838  1  0  -0.840083  0  2.11044  0  0  -0.796333  0  2.379622  0  0  -0.820503  0  2.366181  0  0  -0.445913  -0.767312  0  2.387545  0
O  O105  1  0.66711095  0.45431346  0.68564055  1  0  -0.840083  0  2.110463  0  0  -0.796333  0  2.379639  0  0  -0.820504  0  2.366201  0  0  -0.445934  -0.767313  0  2.387557  0
O  O106  1  0.83288845  0.95431359  0.18564106  1  0  -0.840033  0  2.110519  0  0  -0.796266  0  2.379705  0  0  -0.820438  0  2.366268  0  0  -0.445881  -0.767246  0  2.387623  0
O  O107  1  0.33288834  0.54568634  0.31435967  1  0  -0.839994  0  2.110597  0  0  -0.796265  0  2.379779  0  0  -0.820436  0  2.366339  0  0  -0.445829  -0.767249  0  2.387719  0
O  O108  1  0.98789783  0.32936821  0.20856930  1  0  -0.705526  0  2.020087  0  0  -0.648092  0  2.249797  0  0  -0.673732  0  2.239766  0  0  -0.358968  -0.625401  0  2.257016  0
O  O109  1  0.48789978  0.17063037  0.29143157  1  0  -0.705524  0  2.020156  0  0  -0.64808  0  2.249859  0  0  -0.673717  0  2.23983  0  0  -0.358961  -0.625393  0  2.257079  0
O  O110  1  0.01210250  0.67063076  0.79143141  1  0  -0.705541  0  2.020172  0  0  -0.648059  0  2.249865  0  0  -0.673696  0  2.239841  0  0  -0.358978  -0.62537  0  2.257084  0
O  O111  1  0.51210055  0.82936943  0.70856865  1  0  -0.705489  0  2.020117  0  0  -0.648034  0  2.249826  0  0  -0.673671  0  2.2398  0  0  -0.358948  -0.625345  0  2.257045  0
O  O112  1  0.04532623  0.18283211  0.79108702  1  0  -0.675923  0  2.014877  0  0  -0.618793  0  2.241978  0  0  -0.643918  0  2.233149  0  0  -0.333556  -0.597431  0  2.248392  0
O  O113  1  0.54532640  0.31716758  0.70891268  1  0  -0.675882  0  2.014876  0  0  -0.61876  0  2.241978  0  0  -0.643882  0  2.233147  0  0  -0.333557  -0.597398  0  2.248391  0
O  O114  1  0.95467410  0.81716769  0.20891319  1  0  -0.675923  0  2.014848  0  0  -0.618783  0  2.241971  0  0  -0.643907  0  2.23314  0  0  -0.33357  -0.597421  0  2.248384  0
O  O115  1  0.45467605  0.68283055  0.29108697  1  0  -0.675887  0  2.014885  0  0  -0.618787  0  2.24198  0  0  -0.643909  0  2.233148  0  0  -0.333582  -0.597428  0  2.248406  0
O  O116  1  0.42495620  0.15525664  0.91549238  1  0  -0.838592  0  2.002011  0  0  -0.783017  0  2.26373  0  0  -0.805103  0  2.245254  0  0  -0.38802  -0.760934  0  2.276679  0
O  O117  1  0.92495633  0.34474383  0.58450762  1  0  -0.838605  0  2.001977  0  0  -0.783031  0  2.263705  0  0  -0.805108  0  2.245207  0  0  -0.388025  -0.760949  0  2.276652  0
O  O118  1  0.57504414  0.84474399  0.08450735  1  0  -0.83863  0  2.001965  0  0  -0.783062  0  2.263697  0  0  -0.805148  0  2.24522  0  0  -0.38803  -0.760981  0  2.276647  0
O  O119  1  0.07504401  0.65525597  0.41549259  1  0  -0.838645  0  2.001959  0  0  -0.78307  0  2.263686  0  0  -0.805157  0  2.245207  0  0  -0.388033  -0.760986  0  2.276637  0
O  O120  1  0.17959915  0.95513303  0.00813732  1  0  -0.667274  0  1.927209  0  0  -0.621518  0  2.154233  0  0  -0.64482  0  2.145552  0  0  -0.358019  -0.600185  0  2.160817  0
O  O121  1  0.67959839  0.54486776  0.49186291  1  0  -0.667239  0  1.927177  0  0  -0.62148  0  2.154185  0  0  -0.644782  0  2.145507  0  0  -0.357993  -0.600147  0  2.160766  0
O  O122  1  0.82040119  0.04486761  0.99186318  1  0  -0.667267  0  1.927241  0  0  -0.621528  0  2.154222  0  0  -0.644831  0  2.145544  0  0  -0.358014  -0.600197  0  2.160806  0
O  O123  1  0.32040089  0.45513204  0.50813730  1  0  -0.667257  0  1.927254  0  0  -0.621513  0  2.15423  0  0  -0.644814  0  2.145553  0  0  -0.35801  -0.600177  0  2.160813  0
O  O124  1  0.58033031  0.21202543  0.07662884  1  0  -0.806163  0  1.978126  0  0  -0.758452  0  2.245183  0  0  -0.779681  0  2.226613  0  0  -0.416201  -0.736439  0  2.259759  0
O  O125  1  0.08032804  0.28797488  0.42336949  1  0  -0.806182  0  1.978087  0  0  -0.758476  0  2.245152  0  0  -0.779707  0  2.226579  0  0  -0.416248  -0.73646  0  2.259727  0
O  O126  1  0.41967213  0.78797521  0.92336935  1  0  -0.806215  0  1.978094  0  0  -0.75851  0  2.245162  0  0  -0.77974  0  2.22659  0  0  -0.416253  -0.736494  0  2.259737  0
O  O127  1  0.91967230  0.71202492  0.57663073  1  0  -0.806202  0  1.978074  0  0  -0.758492  0  2.245133  0  0  -0.779722  0  2.226564  0  0  -0.416252  -0.736477  0  2.259708  0
O  O128  1  0.09206343  0.97507483  0.40409481  1  0  -0.857577  0  2.136002  0  0  -0.813796  0  2.402004  0  0  -0.838622  0  2.389767  0  0  -0.446403  -0.784801  0  2.410162  0
O  O129  1  0.59206260  0.52492513  0.09590513  1  0  -0.857579  0  2.135952  0  0  -0.813801  0  2.401938  0  0  -0.838623  0  2.389704  0  0  -0.446406  -0.784804  0  2.410098  0
O  O130  1  0.90793691  0.02492497  0.59590540  1  0  -0.857638  0  2.136001  0  0  -0.813872  0  2.402006  0  0  -0.838697  0  2.389763  0  0  -0.446422  -0.784877  0  2.410166  0
O  O131  1  0.40793669  0.47507467  0.90409509  1  0  -0.857609  0  2.135978  0  0  -0.813837  0  2.401968  0  0  -0.838658  0  2.38973  0  0  -0.446407  -0.784846  0  2.410132  0
O  O132  1  0.31635503  0.99873131  0.45355988  1  0  -0.679516  0  1.938798  0  0  -0.632643  0  2.172028  0  0  -0.656038  0  2.162011  0  0  -0.366302  -0.610901  0  2.17904  0
O  O133  1  0.81635419  0.50126862  0.04643930  1  0  -0.679587  0  1.938864  0  0  -0.632726  0  2.172102  0  0  -0.656115  0  2.162088  0  0  -0.366336  -0.610986  0  2.179115  0
O  O134  1  0.68364636  0.00126849  0.54643956  1  0  -0.679584  0  1.93884  0  0  -0.632704  0  2.172055  0  0  -0.656101  0  2.162037  0  0  -0.366332  -0.610963  0  2.17907  0
O  O135  1  0.18364614  0.49873118  0.95356014  1  0  -0.679559  0  1.938801  0  0  -0.632723  0  2.172044  0  0  -0.656113  0  2.162028  0  0  -0.36635  -0.61098  0  2.179059  0
O  O136  1  0.34418728  0.17763532  0.71584192  1  0  -0.916645  0  1.829008  0  0  -0.877409  0  2.019271  0  0  -0.894742  0  1.987499  0  0  -0.645724  -0.858627  0  2.044632  0
O  O137  1  0.84418746  0.32236517  0.78415807  1  0  -0.916635  0  1.829003  0  0  -0.877402  0  2.019268  0  0  -0.894735  0  1.987495  0  0  -0.645717  -0.858622  0  2.044627  0
O  O138  1  0.65581200  0.82236532  0.28415780  1  0  -0.916695  0  1.828997  0  0  -0.877454  0  2.019264  0  0  -0.894788  0  1.98749  0  0  -0.645752  -0.858672  0  2.044627  0
O  O139  1  0.15581288  0.67763463  0.21584291  1  0  -0.916659  0  1.82901  0  0  -0.87742  0  2.019272  0  0  -0.894754  0  1.987498  0  0  -0.64574  -0.858637  0  2.044634  0
O  O140  1  0.38596862  0.02584004  0.07723426  1  0  -0.862844  0  2.133208  0  0  -0.819159  0  2.400139  0  0  -0.8436  0  2.388175  0  0  -0.458205  -0.789332  0  2.407573  0
O  O141  1  0.88596878  0.47416023  0.42276563  1  0  -0.862797  0  2.133216  0  0  -0.819116  0  2.400137  0  0  -0.843558  0  2.388172  0  0  -0.458201  -0.789287  0  2.407567  0
O  O142  1  0.61403172  0.97416060  0.92276547  1  0  -0.862906  0  2.133404  0  0  -0.819247  0  2.4003  0  0  -0.843687  0  2.388333  0  0  -0.458261  -0.789419  0  2.407734  0
O  O143  1  0.11403156  0.52583874  0.57723353  1  0  -0.86288  0  2.133387  0  0  -0.819222  0  2.400281  0  0  -0.843665  0  2.388318  0  0  -0.458232  -0.789391  0  2.407711  0
O  O144  1  0.20022152  0.80474995  0.75665096  1  0  -0.914276  0  1.828108  0  0  -0.874105  0  2.019092  0  0  -0.891325  0  1.986472  0  0  -0.646853  -0.854899  0  2.045203  0
O  O145  1  0.70022172  0.69525105  0.74334939  1  0  -0.91437  0  1.828048  0  0  -0.87421  0  2.019025  0  0  -0.891436  0  1.986419  0  0  -0.646898  -0.855007  0  2.045136  0
O  O146  1  0.79977882  0.19525069  0.24334877  1  0  -0.914479  0  1.827976  0  0  -0.874316  0  2.018974  0  0  -0.891542  0  1.986367  0  0  -0.64693  -0.855113  0  2.045089  0
O  O147  1  0.29977861  0.30474875  0.25665083  1  0  -0.914491  0  1.82797  0  0  -0.874338  0  2.018964  0  0  -0.891563  0  1.986355  0  0  -0.646941  -0.855131  0  2.04508  0
