# generated using pymatgen
data_AgH8C12SN2O4F3
_symmetry_space_group_name_H-M   'P 1'
_cell_length_a   8.99268785
_cell_length_b   9.16278558
_cell_length_c   10.10628077
_cell_angle_alpha   89.78739617
_cell_angle_beta   72.13506071
_cell_angle_gamma   64.60026874
_symmetry_Int_Tables_number   1
_chemical_formula_structural   AgH8C12SN2O4F3
_chemical_formula_sum   'Ag2 H16 C24 S2 N4 O8 F6'
_cell_volume   708.00884387
_cell_formula_units_Z   2
loop_
 _symmetry_equiv_pos_site_id
 _symmetry_equiv_pos_as_xyz
  1  'x, y, z'
loop_
 _atom_site_type_symbol
 _atom_site_label
 _atom_site_symmetry_multiplicity
 _atom_site_fract_x
 _atom_site_fract_y
 _atom_site_fract_z
 _atom_site_occupancy
 _atom_site_hle17_bader_spin_density
 _atom_site_hle17_ddec_charge
 _atom_site_hle17_ddec_spin_density
 _atom_site_hle17_ddec_sum_bond_order
 _atom_site_hle17_magmom
 _atom_site_hse06_10hf_bader_spin_density
 _atom_site_hse06_10hf_ddec_charge
 _atom_site_hse06_10hf_ddec_spin_density
 _atom_site_hse06_10hf_ddec_sum_bond_order
 _atom_site_hse06_10hf_magmom
 _atom_site_hse06_bader_spin_density
 _atom_site_hse06_ddec_charge
 _atom_site_hse06_ddec_spin_density
 _atom_site_hse06_ddec_sum_bond_order
 _atom_site_hse06_magmom
 _atom_site_pbe_bader_spin_density
 _atom_site_pbe_cm5_charge
 _atom_site_pbe_ddec_charge
 _atom_site_pbe_ddec_spin_density
 _atom_site_pbe_ddec_sum_bond_order
 _atom_site_pbe_magmom
Ag  Ag0  1  0.40455173  0.44587430  0.28897128  1  0  0.548156  0  1.387885  0  0  0.413747  0  1.809878  0  0  0.437371  0  1.771494  0  0  0.48198  0.398575  0  1.835606  0
Ag  Ag1  1  0.59544795  0.55412546  0.71102903  1  0  0.548147  0  1.387873  0  0  0.413742  0  1.809865  0  0  0.437366  0  1.771482  0  0  0.481983  0.39857  0  1.835597  0
H  H2  1  0.14095234  0.36354934  0.49741862  1  0  0.080034  0  0.950608  0  0  0.087685  0  1.019354  0  0  0.08974  0  1.017129  0  0  0.111276  0.085983  0  1.021226  0
H  H3  1  0.85904734  0.63645041  0.50258071  1  0  0.080031  0  0.95065  0  0  0.087683  0  1.019392  0  0  0.089737  0  1.017169  0  0  0.111287  0.085981  0  1.021265  0
H  H4  1  0.09449992  0.12611800  0.58532287  1  0  0.113062  0  0.928694  0  0  0.127613  0  0.978587  0  0  0.130162  0  0.978236  0  0  0.115418  0.125699  0  0.979131  0
H  H5  1  0.90549978  0.87388422  0.41467939  1  0  0.113062  0  0.928704  0  0  0.127607  0  0.978606  0  0  0.130156  0  0.978256  0  0  0.115413  0.125694  0  0.979149  0
H  H6  1  0.33112837  0.84166705  0.47860831  1  0  0.116562  0  0.949928  0  0  0.126904  0  1.008948  0  0  0.129596  0  1.00696  0  0  0.110867  0.124791  0  1.010613  0
H  H7  1  0.66887135  0.15833273  0.52139496  1  0  0.116568  0  0.949928  0  0  0.126933  0  1.008921  0  0  0.129627  0  1.006932  0  0  0.110868  0.12482  0  1.010585  0
H  H8  1  0.59943988  0.81070731  0.28366818  1  0  0.118164  0  0.964552  0  0  0.126106  0  1.02945  0  0  0.129247  0  1.02781  0  0  0.10888  0.123762  0  1.030864  0
H  H9  1  0.40056099  0.18929247  0.71633377  1  0  0.118133  0  0.96456  0  0  0.1261  0  1.02943  0  0  0.12924  0  1.02779  0  0  0.108885  0.123756  0  1.030844  0
H  H10  1  0.36783255  0.39153403  0.88321523  1  0  0.086348  0  0.954138  0  0  0.093624  0  1.020269  0  0  0.096271  0  1.017551  0  0  0.113698  0.091587  0  1.02237  0
H  H11  1  0.63216889  0.60846451  0.11678362  1  0  0.086345  0  0.954125  0  0  0.093626  0  1.020254  0  0  0.096272  0  1.017535  0  0  0.113693  0.091577  0  1.022367  0
H  H12  1  0.37561433  0.21371238  0.07161840  1  0  0.113926  0  0.966945  0  0  0.117378  0  1.036035  0  0  0.120879  0  1.034378  0  0  0.101788  0.11477  0  1.037512  0
H  H13  1  0.62438944  0.78628371  0.92837882  1  0  0.11393  0  0.966924  0  0  0.117383  0  1.036012  0  0  0.120882  0  1.034355  0  0  0.101788  0.114774  0  1.037489  0
H  H14  1  0.90913837  0.12765575  0.99609168  1  0  0.124414  0  0.961096  0  0  0.128885  0  1.028664  0  0  0.13301  0  1.025712  0  0  0.111945  0.125894  0  1.030974  0
H  H15  1  0.09086251  0.87234402  0.00391027  1  0  0.124408  0  0.961107  0  0  0.12885  0  1.028696  0  0  0.132976  0  1.025745  0  0  0.111926  0.125859  0  1.031009  0
H  H16  1  0.87723641  0.31108697  0.81570718  1  0  0.089779  0  0.937365  0  0  0.097275  0  1.002536  0  0  0.100114  0  0.999282  0  0  0.115962  0.095092  0  1.005137  0
H  H17  1  0.12276562  0.68891524  0.18429343  1  0  0.089805  0  0.937451  0  0  0.097323  0  1.002585  0  0  0.100163  0  0.999328  0  0  0.115984  0.095141  0  1.005187  0
C  C18  1  0.23755337  0.23898364  0.45059968  1  0  0.134091  0  3.684106  0  0  0.098304  0  3.943557  0  0  0.104587  0  3.962143  0  0  0.046594  0.094299  0  3.93095  0
C  C19  1  0.76244516  0.76101613  0.54940195  1  0  0.134053  0  3.684161  0  0  0.098262  0  3.943615  0  0  0.104545  0  3.962201  0  0  0.046584  0.094258  0  3.931008  0
C  C20  1  0.21342048  0.10577059  0.50024286  1  0  -0.075771  0  3.671092  0  0  -0.091652  0  3.920291  0  0  -0.096973  0  3.940466  0  0  -0.066226  -0.088095  0  3.906715  0
C  C21  1  0.78658038  0.89422917  0.49975712  1  0  -0.075767  0  3.671072  0  0  -0.09165  0  3.920275  0  0  -0.09697  0  3.940451  0  0  -0.066227  -0.088094  0  3.906701  0
C  C22  1  0.34359436  0.94846296  0.44027283  1  0  0.009537  0  3.661215  0  0  -0.006451  0  3.904566  0  0  -0.003932  0  3.923591  0  0  -0.060606  -0.008094  0  3.891826  0
C  C23  1  0.65640298  0.05153679  0.55972617  1  0  0.00955  0  3.661183  0  0  -0.006445  0  3.904521  0  0  -0.003928  0  3.923544  0  0  -0.060583  -0.008087  0  3.891779  0
C  C24  1  0.49219882  0.93076418  0.33123941  1  0  -0.110171  0  3.69738  0  0  -0.134034  0  3.94477  0  0  -0.140043  0  3.968595  0  0  -0.073595  -0.130258  0  3.929097  0
C  C25  1  0.50779793  0.06923680  0.66876073  1  0  -0.110153  0  3.69733  0  0  -0.134024  0  3.944732  0  0  -0.140032  0  3.968559  0  0  -0.07363  -0.130249  0  3.929058  0
C  C26  1  0.50371792  0.06947982  0.28244629  1  0  0.11255  0  3.747854  0  0  0.112487  0  3.982682  0  0  0.113842  0  4.00601  0  0  0.105578  0.111677  0  3.966909  0
C  C27  1  0.49628120  0.93051872  0.71755519  1  0  0.112552  0  3.747897  0  0  0.112449  0  3.982786  0  0  0.113803  0  4.006114  0  0  0.105606  0.111639  0  3.967013  0
C  C28  1  0.66108828  0.04442084  0.15926162  1  0  0.373449  0  3.689259  0  0  0.357906  0  3.944601  0  0  0.377388  0  3.946611  0  0  0.173655  0.344475  0  3.943266  0
C  C29  1  0.33890846  0.95558257  0.84073750  1  0  0.373467  0  3.689376  0  0  0.357931  0  3.944729  0  0  0.377411  0  3.946737  0  0  0.173699  0.3445  0  3.943395  0
C  C30  1  0.48438938  0.33105232  0.91240066  1  0  0.123908  0  3.700762  0  0  0.09284  0  3.951901  0  0  0.098697  0  3.97129  0  0  0.041008  0.088841  0  3.939036  0
C  C31  1  0.51561089  0.66894866  0.08759947  1  0  0.123953  0  3.700718  0  0  0.092868  0  3.951857  0  0  0.098727  0  3.971245  0  0  0.041018  0.088876  0  3.938993  0
C  C32  1  0.48967908  0.23228605  0.01760850  1  0  -0.157516  0  3.739018  0  0  -0.177483  0  3.998751  0  0  -0.183236  0  4.017931  0  0  -0.089334  -0.173947  0  3.986344  0
C  C33  1  0.51032119  0.76771248  0.98239067  1  0  -0.157567  0  3.739083  0  0  -0.177533  0  3.998821  0  0  -0.183285  0  4.018  0  0  -0.089368  -0.173994  0  3.986411  0
C  C34  1  0.64296119  0.15793065  0.05160740  1  0  0.016602  0  3.755314  0  0  0.028305  0  3.993058  0  0  0.028799  0  4.011403  0  0  -0.0035  0.027937  0  3.9809  0
C  C35  1  0.35704086  0.84206912  0.94839422  1  0  0.016604  0  3.755235  0  0  0.028297  0  3.992962  0  0  0.028793  0  4.011304  0  0  -0.003495  0.027929  0  3.980807  0
C  C36  1  0.78641311  0.18316202  0.97535462  1  0  -0.095505  0  3.669649  0  0  -0.120877  0  3.92303  0  0  -0.125169  0  3.94133  0  0  -0.06977  -0.118198  0  3.910905  0
C  C37  1  0.21358719  0.81683654  0.02464752  1  0  -0.095507  0  3.669716  0  0  -0.120829  0  3.923068  0  0  -0.125121  0  3.94137  0  0  -0.06977  -0.11815  0  3.910946  0
C  C38  1  0.76933156  0.28547554  0.87363184  1  0  0.115005  0  3.67875  0  0  0.084373  0  3.929905  0  0  0.090077  0  3.948288  0  0  0.04465  0.080475  0  3.917681  0
C  C39  1  0.23066696  0.71452422  0.12636880  1  0  0.11494  0  3.678998  0  0  0.084273  0  3.930129  0  0  0.089976  0  3.948513  0  0  0.044596  0.080372  0  3.917908  0
C  C40  1  0.02898591  0.63367739  0.78873194  1  0  0.596112  0  3.652767  0  0  0.527109  0  4.019485  0  0  0.554529  0  3.993449  0  0  0.287695  0.507335  0  4.038443  0
C  C41  1  0.97101142  0.36632725  0.21126799  1  0  0.596106  0  3.652826  0  0  0.527053  0  4.01963  0  0  0.554472  0  3.993593  0  0  0.287689  0.507303  0  4.038535  0
S  S42  1  0.22988585  0.61037892  0.64478537  1  0  1.107957  0  5.846566  0  0  1.00954  0  6.377187  0  0  1.053604  0  6.356708  0  0  0.478569  0.979148  0  6.3907  0
S  S43  1  0.77011501  0.38962084  0.35521461  1  0  1.107902  0  5.846669  0  0  1.009494  0  6.377302  0  0  1.053558  0  6.356823  0  0  0.478531  0.979094  0  6.390807  0
N  N44  1  0.37852164  0.22250810  0.34262448  1  0  -0.322202  0  3.314888  0  0  -0.244035  0  3.58808  0  0  -0.262009  0  3.606592  0  0  -0.335316  -0.231839  0  3.575174  0
N  N45  1  0.62147863  0.77749289  0.65737565  1  0  -0.322165  0  3.314969  0  0  -0.243983  0  3.588168  0  0  -0.261958  0  3.606682  0  0  -0.335328  -0.231787  0  3.575259  0
N  N46  1  0.62046909  0.36014356  0.84281957  1  0  -0.28689  0  3.309852  0  0  -0.203441  0  3.586372  0  0  -0.220605  0  3.603643  0  0  -0.337342  -0.191779  0  3.574494  0
N  N47  1  0.37952884  0.63985742  0.15718123  1  0  -0.28689  0  3.309822  0  0  -0.203418  0  3.586333  0  0  -0.220587  0  3.603609  0  0  -0.337319  -0.191752  0  3.574451  0
O  O48  1  0.80253380  0.92516937  0.14214136  1  0  -0.415183  0  1.92398  0  0  -0.376715  0  2.12704  0  0  -0.392988  0  2.124027  0  0  -0.236779  -0.365431  0  2.12905  0
O  O49  1  0.19747060  0.07482308  0.85785969  1  0  -0.415143  0  1.924152  0  0  -0.376683  0  2.127227  0  0  -0.392952  0  2.124211  0  0  -0.236775  -0.3654  0  2.12924  0
O  O50  1  0.17428254  0.63471180  0.52130882  1  0  -0.611536  0  2.028253  0  0  -0.571271  0  2.3023  0  0  -0.590625  0  2.287147  0  0  -0.339552  -0.557701  0  2.312168  0
O  O51  1  0.82571889  0.36528674  0.47869002  1  0  -0.611509  0  2.028282  0  0  -0.57125  0  2.302331  0  0  -0.590604  0  2.28718  0  0  -0.339539  -0.557682  0  2.312207  0
O  O52  1  0.26371489  0.73955366  0.69251303  1  0  -0.605818  0  2.037984  0  0  -0.567313  0  2.298496  0  0  -0.587334  0  2.287027  0  0  -0.332394  -0.553121  0  2.305757  0
O  O53  1  0.73628480  0.26044610  0.30748728  1  0  -0.605808  0  2.037965  0  0  -0.567313  0  2.298488  0  0  -0.587331  0  2.287019  0  0  -0.332397  -0.553119  0  2.305749  0
O  O54  1  0.35841549  0.44465922  0.64425241  1  0  -0.607213  0  2.012709  0  0  -0.572098  0  2.278943  0  0  -0.590763  0  2.265571  0  0  -0.331107  -0.558851  0  2.287793  0
O  O55  1  0.64158303  0.55534054  0.35574823  1  0  -0.607211  0  2.012765  0  0  -0.572069  0  2.27896  0  0  -0.590737  0  2.2656  0  0  -0.331089  -0.558821  0  2.28781  0
F  F56  1  0.06048675  0.60316067  0.91146829  1  0  -0.218932  0  1.210078  0  0  -0.184401  0  1.38697  0  0  -0.194284  0  1.371505  0  0  -0.090064  -0.177037  0  1.397564  0
F  F57  1  0.93950941  0.39684153  0.08853199  1  0  -0.218889  0  1.210048  0  0  -0.184338  0  1.386955  0  0  -0.194222  0  1.371491  0  0  -0.090029  -0.17698  0  1.397537  0
F  F58  1  0.89695773  0.78747210  0.81075612  1  0  -0.228544  0  1.204285  0  0  -0.180465  0  1.363333  0  0  -0.190762  0  1.350543  0  0  -0.090998  -0.172936  0  1.372232  0
F  F59  1  0.10304424  0.21253252  0.18923953  1  0  -0.228552  0  1.204302  0  0  -0.180471  0  1.363375  0  0  -0.19077  0  1.350585  0  0  -0.091023  -0.172949  0  1.372265  0
F  F60  1  0.97084143  0.52742057  0.75711414  1  0  -0.244386  0  1.199795  0  0  -0.199859  0  1.371401  0  0  -0.209203  0  1.354841  0  0  -0.092985  -0.193065  0  1.382957  0
F  F61  1  0.02915414  0.47258529  0.24288627  1  0  -0.244384  0  1.199802  0  0  -0.199852  0  1.371436  0  0  -0.209193  0  1.354876  0  0  -0.092975  -0.193063  0  1.382982  0
