# generated using pymatgen
data_CuH9C12NClO
_symmetry_space_group_name_H-M   'P 1'
_cell_length_a   3.75896975
_cell_length_b   8.50712172
_cell_length_c   15.97857917
_cell_angle_alpha   94.58432191
_cell_angle_beta   90.35027256
_cell_angle_gamma   100.40958220
_symmetry_Int_Tables_number   1
_chemical_formula_structural   CuH9C12NClO
_chemical_formula_sum   'Cu2 H18 C24 N2 Cl2 O2'
_cell_volume   500.83552265
_cell_formula_units_Z   2
loop_
 _symmetry_equiv_pos_site_id
 _symmetry_equiv_pos_as_xyz
  1  'x, y, z'
loop_
 _atom_site_type_symbol
 _atom_site_label
 _atom_site_symmetry_multiplicity
 _atom_site_fract_x
 _atom_site_fract_y
 _atom_site_fract_z
 _atom_site_occupancy
 _atom_site_hle17_bader_spin_density
 _atom_site_hle17_ddec_charge
 _atom_site_hle17_ddec_spin_density
 _atom_site_hle17_ddec_sum_bond_order
 _atom_site_hle17_magmom
 _atom_site_hse06_10hf_bader_spin_density
 _atom_site_hse06_10hf_ddec_charge
 _atom_site_hse06_10hf_ddec_spin_density
 _atom_site_hse06_10hf_ddec_sum_bond_order
 _atom_site_hse06_10hf_magmom
 _atom_site_hse06_bader_spin_density
 _atom_site_hse06_ddec_charge
 _atom_site_hse06_ddec_spin_density
 _atom_site_hse06_ddec_sum_bond_order
 _atom_site_hse06_magmom
 _atom_site_pbe_bader_spin_density
 _atom_site_pbe_cm5_charge
 _atom_site_pbe_ddec_charge
 _atom_site_pbe_ddec_spin_density
 _atom_site_pbe_ddec_sum_bond_order
 _atom_site_pbe_magmom
Cu  Cu0  1  0.54324176  0.34368736  0.49553817  1  0  0.414659  0  1.925799  0  0  0.31462  0  2.418663  0  0  0.323344  0  2.364126  0  0  0.352452  0.311565  0  2.453595  0
Cu  Cu1  1  0.45679934  0.65631272  0.50446019  1  0  0.414743  0  1.925651  0  0  0.314717  0  2.418511  0  0  0.323405  0  2.364059  0  0  0.352467  0.311669  0  2.45332  0
H  H2  1  0.41888496  0.43409240  0.67169116  1  0  0.08293  0  0.952447  0  0  0.088717  0  1.022112  0  0  0.092111  0  1.019092  0  0  0.107168  0.085972  0  1.024694  0
H  H3  1  0.58112247  0.56589699  0.32830468  1  0  0.082919  0  0.952261  0  0  0.088647  0  1.022042  0  0  0.092039  0  1.019024  0  0  0.107127  0.085907  0  1.024622  0
H  H4  1  0.48046179  0.31926418  0.80910733  1  0  0.113626  0  0.954568  0  0  0.121813  0  1.019961  0  0  0.125283  0  1.018441  0  0  0.111362  0.119395  0  1.021156  0
H  H5  1  0.51953059  0.68072763  0.19089042  1  0  0.113518  0  0.954666  0  0  0.121756  0  1.019996  0  0  0.12522  0  1.018476  0  0  0.111326  0.11934  0  1.021195  0
H  H6  1  0.81600698  0.91432517  0.67097270  1  0  0.109854  0  0.984269  0  0  0.116787  0  1.052044  0  0  0.12022  0  1.051052  0  0  0.096859  0.114296  0  1.052845  0
H  H7  1  0.18397730  0.08566664  0.32902689  1  0  0.10986  0  0.984115  0  0  0.116781  0  1.051897  0  0  0.120211  0  1.050911  0  0  0.096841  0.114291  0  1.052704  0
H  H8  1  0.76623935  0.04974298  0.54168769  1  0  0.069644  0  0.950598  0  0  0.077678  0  1.022877  0  0  0.081206  0  1.01819  0  0  0.108312  0.075027  0  1.026416  0
H  H9  1  0.23379010  0.95024870  0.45831212  1  0  0.069688  0  0.95061  0  0  0.077711  0  1.022888  0  0  0.081243  0  1.018199  0  0  0.108353  0.07506  0  1.026421  0
H  H10  1  0.27576731  0.81285477  0.73043196  1  0  0.083266  0  0.999147  0  0  0.092557  0  1.067218  0  0  0.094687  0  1.067103  0  0  0.088905  0.090857  0  1.067563  0
H  H11  1  0.72422946  0.18714780  0.26956880  1  0  0.083255  0  0.99913  0  0  0.092525  0  1.067231  0  0  0.094656  0  1.067115  0  0  0.088878  0.09083  0  1.067577  0
H  H12  1  0.99796368  0.54366487  0.76394170  1  0  0.080979  0  0.984732  0  0  0.090631  0  1.050377  0  0  0.092399  0  1.051415  0  0  0.091553  0.08926  0  1.049844  0
H  H13  1  0.00201474  0.45633890  0.23606278  1  0  0.081  0  0.98461  0  0  0.090598  0  1.050318  0  0  0.092368  0  1.051353  0  0  0.091546  0.089232  0  1.049789  0
H  H14  1  0.09098217  0.45171976  0.90549437  1  0  0.088604  0  0.964985  0  0  0.095598  0  1.034889  0  0  0.099052  0  1.031949  0  0  0.100046  0.093099  0  1.037071  0
H  H15  1  0.90898908  0.54829242  0.09451169  1  0  0.088669  0  0.964834  0  0  0.095604  0  1.034822  0  0  0.099058  0  1.031879  0  0  0.100058  0.09311  0  1.037  0
H  H16  1  0.46973815  0.63881660  0.01389040  1  0  0.089437  0  0.963149  0  0  0.100261  0  1.024952  0  0  0.102614  0  1.024538  0  0  0.101962  0.098612  0  1.025295  0
H  H17  1  0.53024120  0.36119558  0.98611382  1  0  0.08954  0  0.963171  0  0  0.10034  0  1.024975  0  0  0.102691  0  1.02456  0  0  0.101979  0.098691  0  1.025315  0
H  H18  1  0.76062731  0.90890197  0.97977525  1  0  0.102415  0  0.964642  0  0  0.107208  0  1.036449  0  0  0.110949  0  1.032992  0  0  0.105853  0.104485  0  1.039004  0
H  H19  1  0.23935322  0.09110661  0.02022820  1  0  0.10237  0  0.964595  0  0  0.107139  0  1.036439  0  0  0.110879  0  1.032981  0  0  0.105851  0.104414  0  1.038988  0
C  C20  1  0.50911253  0.32000477  0.67487789  1  0  0.119196  0  3.681872  0  0  0.090964  0  3.932422  0  0  0.09782  0  3.94781  0  0  0.035948  0.086435  0  3.922442  0
C  C21  1  0.49089032  0.67999903  0.32511920  1  0  0.119175  0  3.682018  0  0  0.090938  0  3.932648  0  0  0.097791  0  3.948042  0  0  0.035953  0.086417  0  3.922656  0
C  C22  1  0.54396263  0.25570845  0.75086114  1  0  -0.124554  0  3.701762  0  0  -0.145681  0  3.950719  0  0  -0.151069  0  3.969418  0  0  -0.076136  -0.142362  0  3.938256  0
C  C23  1  0.45605323  0.74427609  0.24913703  1  0  -0.12449  0  3.701427  0  0  -0.145606  0  3.950411  0  0  -0.150985  0  3.9691  0  0  -0.076077  -0.142288  0  3.937933  0
C  C24  1  0.65275388  0.10685693  0.75219294  1  0  0.027132  0  3.722372  0  0  0.038545  0  3.954975  0  0  0.040521  0  3.973174  0  0  0.001467  0.037529  0  3.942552  0
C  C25  1  0.34724614  0.89314685  0.24780663  1  0  0.027218  0  3.722205  0  0  0.038556  0  3.95496  0  0  0.040532  0  3.973156  0  0  0.001445  0.037542  0  3.942523  0
C  C26  1  0.72709243  0.02965953  0.67530594  1  0  -0.140808  0  3.718724  0  0  -0.158409  0  3.963033  0  0  -0.164548  0  3.983308  0  0  -0.085023  -0.15465  0  3.949922  0
C  C27  1  0.27291753  0.97032983  0.32469180  1  0  -0.140907  0  3.719159  0  0  -0.158369  0  3.963306  0  0  -0.164511  0  3.983585  0  0  -0.084987  -0.154612  0  3.95018  0
C  C28  1  0.69728378  0.10443487  0.60202998  1  0  0.113368  0  3.701862  0  0  0.082723  0  3.957196  0  0  0.090189  0  3.971835  0  0  0.033095  0.076897  0  3.949197  0
C  C29  1  0.30272648  0.89556770  0.39796771  1  0  0.113421  0  3.701666  0  0  0.082802  0  3.957019  0  0  0.090271  0  3.97165  0  0  0.033116  0.076988  0  3.948997  0
C  C30  1  0.71012417  0.04543817  0.83588527  1  0  0.384261  0  3.714095  0  0  0.366466  0  3.971117  0  0  0.388644  0  3.972243  0  0  0.164746  0.350977  0  3.970509  0
C  C31  1  0.28987011  0.95455841  0.16411459  1  0  0.384134  0  3.714104  0  0  0.366296  0  3.971206  0  0  0.388478  0  3.972331  0  0  0.164659  0.350809  0  3.970581  0
C  C32  1  0.54209302  0.88055098  0.85276614  1  0  -0.05571  0  3.780838  0  0  -0.035125  0  4.0093  0  0  -0.044559  0  4.036011  0  0  -0.022415  -0.028757  0  3.991242  0
C  C33  1  0.45787992  0.11945167  0.14723325  1  0  -0.055661  0  3.780867  0  0  -0.035015  0  4.00926  0  0  -0.04445  0  4.035973  0  0  -0.022449  -0.028655  0  3.991203  0
C  C34  1  0.32511014  0.77581317  0.79243631  1  0  -0.074994  0  3.728656  0  0  -0.098052  0  3.973409  0  0  -0.098408  0  3.996449  0  0  -0.08502  -0.097861  0  3.958197  0
C  C35  1  0.67488870  0.22419420  0.20756404  1  0  -0.075169  0  3.728748  0  0  -0.098235  0  3.973511  0  0  -0.098592  0  3.996554  0  0  -0.085073  -0.098047  0  3.95831  0
C  C36  1  0.16725476  0.62233191  0.81128333  1  0  -0.074716  0  3.765011  0  0  -0.083857  0  4.009768  0  0  -0.088287  0  4.033873  0  0  -0.094763  -0.081033  0  3.993681  0
C  C37  1  0.83273408  0.37767069  0.18871677  1  0  -0.074631  0  3.765199  0  0  -0.083732  0  4.009944  0  0  -0.088164  0  4.034048  0  0  -0.094787  -0.080914  0  3.993877  0
C  C38  1  0.21880901  0.57190274  0.89081353  1  0  -0.05342  0  3.729312  0  0  -0.068832  0  3.977453  0  0  -0.069242  0  3.998496  0  0  -0.080071  -0.068303  0  3.963072  0
C  C39  1  0.78118476  0.42809978  0.10919222  1  0  -0.053386  0  3.729285  0  0  -0.068755  0  3.977401  0  0  -0.069161  0  3.998442  0  0  -0.080019  -0.06823  0  3.963028  0
C  C40  1  0.43091885  0.67616416  0.95144169  1  0  -0.062849  0  3.739543  0  0  -0.073819  0  3.987345  0  0  -0.07819  0  4.010076  0  0  -0.083394  -0.070862  0  3.971839  0
C  C41  1  0.56906493  0.32384563  0.04856058  1  0  -0.063005  0  3.739649  0  0  -0.073946  0  3.987436  0  0  -0.078314  0  4.010161  0  0  -0.083375  -0.070985  0  3.971923  0
C  C42  1  0.59270867  0.82895519  0.93272004  1  0  -0.034943  0  3.673145  0  0  -0.062145  0  3.923028  0  0  -0.060452  0  3.942601  0  0  -0.069013  -0.063027  0  3.909553  0
C  C43  1  0.40727447  0.17105338  0.06728404  1  0  -0.034902  0  3.673447  0  0  -0.062116  0  3.923331  0  0  -0.060421  0  3.942904  0  0  -0.068989  -0.062987  0  3.909839  0
N  N44  1  0.58724829  0.24698028  0.60056637  1  0  -0.288288  0  3.407376  0  0  -0.213432  0  3.703493  0  0  -0.224647  0  3.710461  0  0  -0.371194  -0.206717  0  3.698639  0
N  N45  1  0.41276977  0.75300908  0.39942953  1  0  -0.288283  0  3.407114  0  0  -0.21345  0  3.703273  0  0  -0.224663  0  3.710235  0  0  -0.37123  -0.206751  0  3.698363  0
Cl  Cl46  1  0.93467411  0.65006487  0.58549732  1  0  -0.516521  0  1.424468  0  0  -0.438962  0  1.82385  0  0  -0.45594  0  1.783641  0  0  -0.285186  -0.426638  0  1.850522  0
Cl  Cl47  1  0.06536395  0.34992802  0.41450071  1  0  -0.516467  0  1.424548  0  0  -0.43891  0  1.823952  0  0  -0.45589  0  1.783722  0  0  -0.28514  -0.426578  0  1.850696  0
O  O48  1  0.89697054  0.13916644  0.88923744  1  0  -0.452637  0  1.927223  0  0  -0.406321  0  2.137875  0  0  -0.42375  0  2.13563  0  0  -0.24754  -0.394282  0  2.139352  0
O  O49  1  0.10303981  0.86083012  0.11076061  1  0  -0.452541  0  1.927251  0  0  -0.406208  0  2.137932  0  0  -0.423636  0  2.135686  0  0  -0.24745  -0.394168  0  2.139405  0
