# generated using pymatgen
data_Co2H34C34SN2O9
_symmetry_space_group_name_H-M   'P 1'
_cell_length_a   9.52528345
_cell_length_b   12.09392340
_cell_length_c   19.08562752
_cell_angle_alpha   100.59519357
_cell_angle_beta   100.12930225
_cell_angle_gamma   105.10713353
_symmetry_Int_Tables_number   1
_chemical_formula_structural   Co2H34C34SN2O9
_chemical_formula_sum   'Co4 H68 C68 S2 N4 O18'
_cell_volume   2027.60741570
_cell_formula_units_Z   2
loop_
 _symmetry_equiv_pos_site_id
 _symmetry_equiv_pos_as_xyz
  1  'x, y, z'
loop_
 _atom_site_type_symbol
 _atom_site_label
 _atom_site_symmetry_multiplicity
 _atom_site_fract_x
 _atom_site_fract_y
 _atom_site_fract_z
 _atom_site_occupancy
 _atom_site_pbe_bader_charge
 _atom_site_pbe_bader_spin_density
 _atom_site_pbe_cm5_charge
 _atom_site_pbe_ddec_charge
 _atom_site_pbe_ddec_spin_density
 _atom_site_pbe_ddec_sum_bond_order
 _atom_site_pbe_magmom
Co  Co0  1  0.98874902  0.41946479  0.64585975  1  1.23051  2.576442  0.656914  0.854168  2.772323  2.39686  2.536
Co  Co1  1  0.01124760  0.58053549  0.35413806  1  1.230518  2.576448  0.656912  0.854185  2.772324  2.39685  2.536
Co  Co2  1  0.00000120  0.49999820  0.49999934  1  1.370915  2.612173  0.682933  1.08673  2.842759  2.443516  2.6
Co  Co3  1  0.50000448  0.99999877  0.99999847  1  1.291975  2.601548  0.664511  0.912749  2.847387  2.521538  2.585
H  H4  1  0.14336930  0.25796046  0.23729252  1  0.024273  4.8e-05  0.07666  0.103872  2.9e-05  1.023222  0.0
H  H5  1  0.12498726  0.33186232  0.32327930  1  0.045163  -0.000119  0.086363  0.126407  -0.000308  1.055739  0.0
H  H6  1  0.29505713  0.37677036  0.29633989  1  0.030741  1.1e-05  0.087694  0.124699  -3.2e-05  0.998256  0.0
H  H7  1  0.17355678  0.03629559  0.35003666  1  0.030121  -1e-06  0.082684  0.114672  -1.6e-05  1.017132  0.0
H  H8  1  0.04363428  0.11867626  0.34994469  1  0.043671  -1.2e-05  0.082021  0.113586  -2.1e-05  1.050385  0.0
H  H9  1  0.08005271  0.05569517  0.26637203  1  -0.014782  7.2e-05  0.076439  0.104696  4.5e-05  1.038771  0.0
H  H10  1  0.31926493  0.12993103  0.23434504  1  0.022716  1.5e-05  0.075952  0.1027  6e-06  1.03706  0.0
H  H11  1  0.46549854  0.25358911  0.29091435  1  0.039505  4e-06  0.08729  0.124253  -1.1e-05  1.004351  0.0
H  H12  1  0.42518233  0.11691321  0.31691843  1  0.028051  -7e-06  0.08158  0.113602  -1.9e-05  1.031739  0.0
H  H13  1  0.43896493  0.83314945  0.06028139  1  0.653917  -6.1e-05  0.275675  0.366277  -2.3e-05  0.992955  0.0
H  H14  1  0.29495142  0.79548306  0.99312334  1  0.588799  0.00054  0.301646  0.368109  0.000269  0.938992  0.001
H  H15  1  0.50172058  0.42176384  0.62209055  1  0.108882  0.00049  0.106683  0.112308  0.000209  1.007003  0.0
H  H16  1  0.56083267  0.29201178  0.40772512  1  0.102143  0.000204  0.102862  0.108337  4.6e-05  1.038785  0.0
H  H17  1  0.11991568  0.27845880  0.43936487  1  0.074205  0.000355  0.10397  0.109349  4.4e-05  1.042203  0.0
H  H18  1  0.70500805  0.22131837  0.20237226  1  0.115602  0.000841  0.107572  0.118139  0.000441  1.000003  0.0
H  H19  1  0.58196940  0.90166832  0.27511586  1  0.089564  3.6e-05  0.103342  0.103475  -9e-06  1.024004  0.0
H  H20  1  0.85370191  0.22776720  0.42900544  1  0.092216  0.000231  0.109432  0.116641  -4e-05  1.041854  0.0
H  H21  1  0.78765812  0.85067440  0.36287149  1  0.029556  -3.6e-05  0.084202  0.117677  -6.4e-05  1.020995  0.0
H  H22  1  0.83543773  0.87320722  0.45971797  1  0.020275  4.2e-05  0.084109  0.119592  -1.5e-05  1.032535  0.0
H  H23  1  0.93893761  0.97461146  0.41687626  1  0.004496  1e-06  0.085139  0.118583  -9e-06  1.025011  0.0
H  H24  1  0.47987790  0.96141515  0.41844117  1  0.019316  -8e-06  0.084504  0.118119  -1.7e-05  1.015807  0.0
H  H25  1  0.56108034  0.86850709  0.46336186  1  0.038099  -3e-06  0.084533  0.118798  -1.7e-05  1.036029  0.0
H  H26  1  0.52019516  0.84009313  0.36676847  1  -0.013085  -3e-06  0.083166  0.112211  -2.5e-05  1.025543  0.0
H  H27  1  0.88859299  0.13464435  0.50889472  1  0.033215  0.000107  0.086929  0.124138  4e-06  1.026159  0.0
H  H28  1  0.76689450  0.02891369  0.54137660  1  0.026688  3.3e-05  0.084617  0.114564  1.3e-05  1.023602  0.0
H  H29  1  0.70182555  0.13704756  0.50577277  1  0.040122  -3.5e-05  0.086824  0.123963  -7.1e-05  1.011798  0.0
H  H30  1  0.17288094  0.30476481  0.73704624  1  0.171004  0.001661  0.126604  0.109621  0.000513  1.001134  0.001
H  H31  1  0.13988482  0.19475191  0.83418939  1  0.092351  0.00059  0.108603  0.125164  0.000226  1.004647  0.0
H  H32  1  0.68005148  0.20259540  0.79672448  1  0.138382  0.00064  0.108767  0.132629  0.0003  1.01769  0.0
H  H33  1  0.73324242  0.30842845  0.69851174  1  0.138579  0.001469  0.122575  0.100947  0.000311  1.014316  0.001
H  H34  1  0.13645338  0.25093660  0.00687415  1  0.089801  0.000903  0.115724  0.126194  0.000442  0.980998  0.0
H  H35  1  0.36561921  0.19251932  0.05013682  1  0.160708  0.00154  0.131531  0.114515  0.000367  0.957194  0.001
H  H36  1  0.19621800  0.86954496  0.89861190  1  0.108944  0.001309  0.124369  0.094472  9.5e-05  0.992034  0.001
H  H37  1  0.95792128  0.91083896  0.85183955  1  0.112105  0.000767  0.112177  0.121207  0.00038  1.021402  0.0
H  H38  1  0.85663404  0.74204067  0.76270704  1  0.024272  4.8e-05  0.076661  0.103899  2.9e-05  1.023196  0.0
H  H39  1  0.87501536  0.66813970  0.67671977  1  0.045147  -0.000119  0.086374  0.126423  -0.000308  1.055735  0.0
H  H40  1  0.70494587  0.62322989  0.70365900  1  0.030788  1.1e-05  0.087689  0.124716  -3.2e-05  0.998255  0.0
H  H41  1  0.82644370  0.96370642  0.64996432  1  0.030121  -1e-06  0.082684  0.114679  -1.6e-05  1.017131  0.0
H  H42  1  0.95636728  0.88132575  0.65005534  1  0.043645  -1.2e-05  0.082018  0.113581  -2.1e-05  1.050367  0.0
H  H43  1  0.91994743  0.94430595  0.73362882  1  -0.014819  7.2e-05  0.07645  0.104739  4.5e-05  1.038721  0.0
H  H44  1  0.68073630  0.87006743  0.76565715  1  0.022665  1.5e-05  0.075942  0.102708  6e-06  1.037013  0.0
H  H45  1  0.53450270  0.74640937  0.70908575  1  0.039513  4e-06  0.087307  0.124286  -1.1e-05  1.004352  0.0
H  H46  1  0.57481886  0.88308790  0.68308408  1  0.028089  -7e-06  0.081587  0.113627  -1.9e-05  1.031734  0.0
H  H47  1  0.56103456  0.16684727  0.93971730  1  0.653872  -6.1e-05  0.275676  0.366304  -2.3e-05  0.992942  0.0
H  H48  1  0.70505158  0.20451720  0.00687451  1  0.588774  0.00054  0.301667  0.370211  0.000254  0.935814  0.001
H  H49  1  0.49828096  0.57823817  0.37791000  1  0.108896  0.00049  0.106689  0.11233  0.000209  1.007003  0.0
H  H50  1  0.43916744  0.70799200  0.59227499  1  0.102196  0.000204  0.102833  0.10832  4.6e-05  1.038797  0.0
H  H51  1  0.88008408  0.72154409  0.56063667  1  0.07418  0.000355  0.104001  0.10937  4.4e-05  1.042234  0.0
H  H52  1  0.29498684  0.77867748  0.79762697  1  0.115573  0.000841  0.107588  0.118158  0.000441  1.0  0.0
H  H53  1  0.41802476  0.09832840  0.72488498  1  0.089627  3.6e-05  0.103365  0.103511  -9e-06  1.024024  0.0
H  H54  1  0.14629401  0.77223129  0.57099419  1  0.092115  0.000231  0.109437  0.116652  -4e-05  1.041877  0.0
H  H55  1  0.21234628  0.14932670  0.63713077  1  0.029525  -3.7e-05  0.084213  0.117727  -6.4e-05  1.020951  0.0
H  H56  1  0.16456415  0.12679566  0.54028428  1  0.020326  4.2e-05  0.084102  0.119591  -1.5e-05  1.032574  0.0
H  H57  1  0.06106249  0.02539230  0.58312646  1  0.004562  1e-06  0.08517  0.118599  -9e-06  1.024961  0.0
H  H58  1  0.52011911  0.03858068  0.58155876  1  0.019032  -8e-06  0.084511  0.118127  -1.7e-05  1.015839  0.0
H  H59  1  0.43892055  0.13149049  0.53663915  1  0.038157  -3e-06  0.084556  0.118804  -1.7e-05  1.036075  0.0
H  H60  1  0.47980680  0.15990445  0.63323263  1  -0.013073  -3e-06  0.083155  0.112236  -2.5e-05  1.025566  0.0
H  H61  1  0.11140361  0.86535590  0.49110571  1  0.033174  0.000107  0.086931  0.124153  4e-06  1.026139  0.0
H  H62  1  0.23310316  0.97108656  0.45862392  1  0.026699  3.3e-05  0.084596  0.114547  1.3e-05  1.023555  0.0
H  H63  1  0.29817071  0.86295182  0.49422699  1  0.040149  -3.5e-05  0.086826  0.123953  -7.1e-05  1.011838  0.0
H  H64  1  0.82711465  0.69523284  0.26294907  1  0.171031  0.001661  0.126584  0.109563  0.000513  1.001254  0.001
H  H65  1  0.86011571  0.80524748  0.16580761  1  0.0922  0.000591  0.108593  0.125157  0.000226  1.004683  0.0
H  H66  1  0.31994870  0.79740308  0.20327553  1  0.138377  0.00064  0.108772  0.132608  0.0003  1.017732  0.0
H  H67  1  0.26675247  0.69156740  0.30148696  1  0.138621  0.001469  0.122605  0.101005  0.000311  1.014277  0.001
H  H68  1  0.86356019  0.74906891  0.99312787  1  0.089848  0.000903  0.11574  0.126231  0.000442  0.981  0.0
H  H69  1  0.63439337  0.80748089  0.94986344  1  0.160649  0.001541  0.131517  0.114498  0.000367  0.957222  0.001
H  H70  1  0.80378355  0.13045705  0.10138813  1  0.108945  0.001309  0.12438  0.094635  9.5e-05  0.991881  0.001
H  H71  1  0.04207809  0.08916568  0.14816427  1  0.112351  0.000767  0.112182  0.121186  0.00038  1.021403  0.0
C  C72  1  0.20211157  0.29959770  0.29498769  1  -0.095155  2e-06  -0.243963  -0.405293  -0.000117  3.873859  0.0
C  C73  1  0.13199927  0.09962527  0.32442613  1  -0.074308  4.9e-05  -0.24497  -0.4078  2.3e-05  3.890901  0.0
C  C74  1  0.37483284  0.17646135  0.29171314  1  -0.077904  1.9e-05  -0.249141  -0.418473  -5e-06  3.922028  0.0
C  C75  1  0.30075030  0.35208966  0.53478907  1  -0.103163  0.002507  -0.016359  -0.02898  0.001168  3.99394  0.002
C  C76  1  0.45508178  0.38128070  0.56384704  1  0.014246  0.00093  -0.074416  -0.107234  0.000227  3.932385  0.001
C  C77  1  0.54696972  0.36062067  0.51685933  1  0.014973  0.010054  -0.018028  -0.038101  0.005249  4.004483  0.008
C  C78  1  0.48446420  0.30635829  0.44215325  1  -0.0385  0.000554  -0.080699  -0.134871  -7.1e-05  3.918363  0.0
C  C79  1  0.33042350  0.27203964  0.41278672  1  -0.070824  0.000684  -0.001917  0.064918  0.000311  3.8671  0.001
C  C80  1  0.24002601  0.29853157  0.46012036  1  0.005732  0.000109  -0.076209  -0.125629  -0.00034  3.885584  0.0
C  C81  1  0.20253928  0.37597316  0.58454824  1  1.483373  0.003162  0.210878  0.575699  0.00156  4.151948  0.001
C  C82  1  0.71333208  0.39716027  0.54230349  1  1.555392  -0.002039  0.22331  0.601319  -0.002776  4.139319  -0.002
C  C83  1  0.26099162  0.21180061  0.33149086  1  0.068482  0.000129  -0.014312  0.236611  8.3e-05  3.805402  0.0
C  C84  1  0.79217476  0.23488098  0.31705829  1  -0.021729  0.004961  -0.017743  -0.035995  0.002499  4.011919  0.004
C  C85  1  0.71005325  0.17492566  0.24608603  1  -0.108654  0.000759  -0.075048  -0.103835  3.4e-05  3.932503  0.0
C  C86  1  0.63411274  0.05449173  0.23201189  1  0.009886  0.004927  -0.023954  -0.044087  0.002458  4.015912  0.004
C  C87  1  0.63972840  0.99607471  0.28885534  1  -0.050461  -0.000523  -0.075993  -0.128961  -0.001007  3.914547  0.0
C  C88  1  0.71518944  0.05658662  0.36126952  1  0.002056  0.001161  0.001797  0.064349  0.000528  3.882993  0.001
C  C89  1  0.79185843  0.17643593  0.37412266  1  -0.013233  6.9e-05  -0.075527  -0.1303  -0.000304  3.905033  0.0
C  C90  1  0.88407077  0.35973468  0.33396210  1  1.501104  0.001108  0.213069  0.579214  -0.00095  4.15017  0.001
C  C91  1  0.54831675  0.98813226  0.15606902  1  1.481757  0.000199  0.205846  0.565058  -0.001354  4.200016  0.0
C  C92  1  0.71824537  0.99215174  0.42294355  1  0.071747  0.0002  -0.013249  0.237696  0.00011  3.806638  0.0
C  C93  1  0.82669205  0.91828930  0.41493395  1  -0.037637  2e-05  -0.243993  -0.409283  -4.9e-05  3.866092  0.0
C  C94  1  0.56050712  0.91099185  0.41724520  1  -0.046611  -1e-06  -0.244326  -0.415517  -4.6e-05  3.894069  0.0
C  C95  1  0.77239626  0.07890213  0.49881393  1  -0.090398  0.000168  -0.243903  -0.418426  0.000138  3.886194  0.0
C  C96  1  0.06562858  0.27915778  0.75190728  1  0.438946  -0.001324  0.05633  0.112628  -0.002272  3.923811  -0.001
C  C97  1  0.04608978  0.21854763  0.80641537  1  0.030527  0.004406  -0.092723  -0.190809  0.001983  3.969113  0.004
C  C98  1  0.90645270  0.19072485  0.82432217  1  -0.221362  -0.006105  0.011073  0.102604  -0.006713  4.035992  -0.004
C  C99  1  0.79075047  0.22310465  0.78491473  1  -0.005659  0.003682  -0.089941  -0.178657  0.001663  3.938419  0.003
C  C100  1  0.81959602  0.28207844  0.73080870  1  0.464904  -0.002162  0.047738  0.100921  -0.002557  3.93235  -0.001
C  C101  1  0.02957767  0.08523461  0.92524602  1  -0.157602  -0.015177  0.004246  0.084546  -0.016185  4.030909  -0.01
C  C102  1  0.14497430  0.16497342  0.98215742  1  -0.060501  0.004068  -0.078329  -0.169669  0.001573  3.958312  0.004
C  C103  1  0.27227559  0.13328673  0.00636971  1  0.496528  -0.009295  0.056805  0.117082  -0.010249  3.895262  -0.006
C  C104  1  0.17732594  0.95203390  0.92239310  1  0.501997  -0.011459  0.046435  0.090423  -0.012701  3.951928  -0.007
C  C105  1  0.04570076  0.97581532  0.89565244  1  -0.015395  0.005735  -0.079018  -0.165552  0.00245  3.960241  0.005
C  C106  1  0.79789105  0.70040432  0.70501191  1  -0.095148  2e-06  -0.243967  -0.405362  -0.000117  3.873821  0.0
C  C107  1  0.86800227  0.90037674  0.67557495  1  -0.074292  4.9e-05  -0.24501  -0.407894  2.3e-05  3.890896  0.0
C  C108  1  0.62516908  0.82353887  0.70828880  1  -0.077914  1.9e-05  -0.249149  -0.418544  -5e-06  3.921974  0.0
C  C109  1  0.69925053  0.64791325  0.46521047  1  -0.103131  0.002508  -0.016369  -0.028986  0.001168  3.993882  0.002
C  C110  1  0.54491904  0.61872220  0.43615355  1  0.014261  0.000929  -0.074457  -0.107307  0.000227  3.932434  0.001
C  C111  1  0.45302898  0.63938223  0.48314055  1  0.014971  0.010055  -0.017994  -0.038053  0.00525  4.004394  0.008
C  C112  1  0.51553557  0.69364462  0.55784673  1  -0.03855  0.000553  -0.080692  -0.134897  -7.1e-05  3.918461  0.0
C  C113  1  0.66957661  0.72796414  0.58721339  1  -0.070934  0.000684  -0.00189  0.064917  0.000311  3.867158  0.001
C  C114  1  0.75997375  0.70147132  0.53988014  1  0.005861  0.000108  -0.076274  -0.125677  -0.00034  3.885658  0.0
C  C115  1  0.79746121  0.62402885  0.41545222  1  1.483352  0.003161  0.2109  0.575831  0.001559  4.151806  0.001
C  C116  1  0.28666563  0.60283734  0.45769515  1  1.555459  -0.002039  0.223369  0.601367  -0.002778  4.139161  -0.002
C  C117  1  0.73900993  0.78820140  0.66850916  1  0.068486  0.000129  -0.014301  0.236676  8.3e-05  3.805426  0.0
C  C118  1  0.20781937  0.76511840  0.68294181  1  -0.021733  0.004961  -0.017774  -0.035934  0.002499  4.011907  0.004
C  C119  1  0.28994091  0.82507107  0.75391376  1  -0.108563  0.000758  -0.075013  -0.103827  3.4e-05  3.932475  0.0
C  C120  1  0.36588143  0.94550499  0.76798790  1  0.009796  0.004929  -0.023968  -0.044093  0.002458  4.015947  0.004
C  C121  1  0.36026504  0.00392290  0.71114501  1  -0.050522  -0.000525  -0.076058  -0.129097  -0.001009  3.914681  0.0
C  C122  1  0.28480540  0.94341187  0.63873106  1  0.002085  0.001162  0.001854  0.064565  0.000528  3.882883  0.001
C  C123  1  0.20813714  0.82356168  0.62587683  1  -0.013193  6.8e-05  -0.075563  -0.130464  -0.000306  3.905112  0.0
C  C124  1  0.11592549  0.64026470  0.66603767  1  1.501018  0.001106  0.213082  0.579196  -0.000951  4.150261  0.001
C  C125  1  0.45167955  0.01186446  0.84393044  1  1.481905  0.000195  0.205872  0.565028  -0.001355  4.200018  0.0
C  C126  1  0.28175126  0.00784585  0.57705708  1  0.071788  0.0002  -0.013199  0.237667  0.00011  3.806722  0.0
C  C127  1  0.17330843  0.08171270  0.58506755  1  -0.037731  2e-05  -0.244014  -0.409329  -4.9e-05  3.866115  0.0
C  C128  1  0.43949237  0.08900485  0.58275558  1  -0.046405  -1e-06  -0.244368  -0.415555  -4.6e-05  3.894132  0.0
C  C129  1  0.22760034  0.92109813  0.50118650  1  -0.090386  0.000168  -0.243903  -0.418417  0.000138  3.886218  0.0
C  C130  1  0.93436739  0.72083809  0.24808890  1  0.439522  -0.001324  0.056264  0.112633  -0.002272  3.923883  -0.001
C  C131  1  0.95391041  0.78145088  0.19358150  1  0.030599  0.004406  -0.092699  -0.19083  0.001983  3.96897  0.004
C  C132  1  0.09354889  0.80927452  0.17567649  1  -0.221163  -0.006106  0.011096  0.102655  -0.006714  4.035921  -0.004
C  C133  1  0.20924937  0.77689295  0.21508410  1  -0.005701  0.003682  -0.08996  -0.178652  0.001663  3.938396  0.003
C  C134  1  0.18039853  0.71791654  0.26918934  1  0.46479  -0.002162  0.047721  0.10086  -0.002556  3.932296  -0.001
C  C135  1  0.97042951  0.91477090  0.07475597  1  -0.157503  -0.015182  0.004232  0.084462  -0.01619  4.031317  -0.01
C  C136  1  0.85503714  0.83503209  0.01784442  1  -0.060713  0.004069  -0.078415  -0.169856  0.001573  3.958604  0.004
C  C137  1  0.72773411  0.86671703  0.99363072  1  0.496873  -0.009299  0.05685  0.11716  -0.010254  3.895284  -0.006
C  C138  1  0.82267843  0.04796988  0.07760686  1  0.501595  -0.011464  0.046396  0.090356  -0.012704  3.951579  -0.007
C  C139  1  0.95430147  0.02418843  0.10435047  1  -0.015302  0.005737  -0.079045  -0.165459  0.00245  3.960225  0.005
S  S140  1  0.86199023  0.11732903  0.89278805  1  0.146436  -0.000763  0.051125  0.003906  -0.002095  2.749093  0.001
S  S141  1  0.13801623  0.88267737  0.10721450  1  0.146384  -0.000763  0.051207  0.003761  -0.002094  2.749108  0.001
N  N142  1  0.95516675  0.31142583  0.71435558  1  -1.243756  0.059349  -0.338214  -0.261887  0.031421  3.602267  0.041
N  N143  1  0.28973752  0.02919319  0.97642241  1  -1.21645  0.047414  -0.324045  -0.250901  0.024609  3.574281  0.046
N  N144  1  0.04482674  0.68856915  0.28564185  1  -1.244378  0.059351  -0.338206  -0.261901  0.031422  3.602147  0.041
N  N145  1  0.71026829  0.97080881  0.02357799  1  -1.216598  0.047414  -0.323996  -0.250723  0.024609  3.57406  0.046
O  O146  1  0.06376062  0.37013300  0.55515586  1  -1.145299  0.123828  -0.324195  -0.609457  0.06546  2.458816  0.103
O  O147  1  0.24675982  0.39890399  0.65281057  1  -1.120193  0.056687  -0.299109  -0.520179  0.02794  2.128076  0.048
O  O148  1  0.77166621  0.39975696  0.60885565  1  -1.156911  0.083297  -0.31457  -0.555298  0.042542  2.355705  0.066
O  O149  1  0.78473536  0.42146895  0.49414195  1  -1.159698  0.05946  -0.304982  -0.563501  0.031025  2.435811  0.052
O  O150  1  0.88463266  0.42092431  0.28617076  1  -1.108705  0.097069  -0.309116  -0.515388  0.049595  2.21604  0.079
O  O151  1  0.97087603  0.40551740  0.39826841  1  -1.176575  0.110043  -0.313467  -0.59717  0.057817  2.527112  0.091
O  O152  1  0.52593031  0.04978726  0.10958102  1  -1.15162  0.084945  -0.324558  -0.578902  0.04444  2.39209  0.072
O  O153  1  0.50392519  0.87564324  0.14118560  1  -1.134263  0.00874  -0.323698  -0.546165  0.003945  2.16794  0.007
O  O154  1  0.40375586  0.82134229  0.00357784  1  -1.232818  0.073438  -0.571806  -0.757717  0.038511  2.137281  0.059
O  O155  1  0.93623674  0.62986372  0.44484316  1  -1.145318  0.123823  -0.32421  -0.609471  0.065456  2.458672  0.103
O  O156  1  0.75324059  0.60110333  0.34718999  1  -1.120101  0.056682  -0.299078  -0.520221  0.027942  2.12806  0.048
O  O157  1  0.22833256  0.60024065  0.39114308  1  -1.156992  0.083291  -0.314602  -0.555336  0.04254  2.355649  0.066
O  O158  1  0.21526417  0.57852512  0.50585642  1  -1.159742  0.059464  -0.304994  -0.563486  0.031027  2.43584  0.052
O  O159  1  0.11535789  0.57907684  0.71382976  1  -1.108615  0.097065  -0.309116  -0.515393  0.049593  2.216119  0.079
O  O160  1  0.02912666  0.59447932  0.60172951  1  -1.176573  0.110045  -0.313504  -0.597204  0.057818  2.527213  0.091
O  O161  1  0.47406530  0.95020770  0.89041764  1  -1.151711  0.084952  -0.324575  -0.578824  0.04444  2.392056  0.072
O  O162  1  0.49607502  0.12435258  0.85881462  1  -1.134322  0.008738  -0.323692  -0.546119  0.003944  2.16782  0.007
O  O163  1  0.59624680  0.17865707  0.99642144  1  -1.232706  0.073441  -0.571826  -0.760638  0.038527  2.131894  0.059
