# generated using pymatgen
data_CuH12C14(SN4)2
_symmetry_space_group_name_H-M   'P 1'
_cell_length_a   8.01308891
_cell_length_b   9.07905133
_cell_length_c   12.28092909
_cell_angle_alpha   111.73487115
_cell_angle_beta   101.79317240
_cell_angle_gamma   90.00660343
_symmetry_Int_Tables_number   1
_chemical_formula_structural   CuH12C14(SN4)2
_chemical_formula_sum   'Cu2 H24 C28 S4 N16'
_cell_volume   809.58886178
_cell_formula_units_Z   2
loop_
 _symmetry_equiv_pos_site_id
 _symmetry_equiv_pos_as_xyz
  1  'x, y, z'
loop_
 _atom_site_type_symbol
 _atom_site_label
 _atom_site_symmetry_multiplicity
 _atom_site_fract_x
 _atom_site_fract_y
 _atom_site_fract_z
 _atom_site_occupancy
 _atom_site_hle17_ddec_charge
 _atom_site_hle17_ddec_spin_density
 _atom_site_hle17_ddec_sum_bond_order
 _atom_site_hle17_magmom
 _atom_site_hse06_10hf_ddec_charge
 _atom_site_hse06_10hf_ddec_spin_density
 _atom_site_hse06_10hf_ddec_sum_bond_order
 _atom_site_hse06_10hf_magmom
 _atom_site_hse06_ddec_charge
 _atom_site_hse06_ddec_spin_density
 _atom_site_hse06_ddec_sum_bond_order
 _atom_site_hse06_magmom
 _atom_site_pbe_cm5_charge
 _atom_site_pbe_ddec_charge
 _atom_site_pbe_ddec_spin_density
 _atom_site_pbe_ddec_sum_bond_order
 _atom_site_pbe_magmom
Cu  Cu0  1  0.99999965  0.49999771  0.49999240  1  0.805255  -0.668832  2.072029  -0.49  0.824072  -0.787721  2.451024  -0.644  0.910023  -0.849338  2.381107  -0.727  0.766884  0.766772  -0.737726  2.501385  -0.581
Cu  Cu1  1  0.50000148  0.99997753  0.50000557  1  0.804412  -0.666661  2.069275  -0.488  0.823309  -0.787454  2.44845  -0.644  0.909232  -0.84953  2.378935  -0.727  0.765455  0.76602  -0.736613  2.498058  -0.581
H  H2  1  0.93124174  0.67119493  0.30948209  1  0.098249  0.00021  0.958174  0.0  0.103909  0.000128  1.023259  0.0  0.105908  0.000109  1.020848  0.0  0.130774  0.1024  0.000121  1.024839  0.0
H  H3  1  0.56925571  0.36209149  0.69080475  1  0.098277  0.000211  0.958385  0.0  0.103856  0.00013  1.023702  0.0  0.105676  0.00011  1.021462  0.0  0.130746  0.102298  0.000124  1.025349  0.0
H  H4  1  0.06875499  0.32881489  0.69051760  1  0.098206  0.000209  0.958243  0.0  0.103895  0.000128  1.023281  0.0  0.105895  0.00011  1.020866  0.0  0.130749  0.102384  0.000121  1.024863  0.0
H  H5  1  0.43072136  0.63787190  0.30919824  1  0.098309  0.00021  0.958289  0.0  0.10385  0.00013  1.023638  0.0  0.105671  0.000111  1.0214  0.0  0.13072  0.102294  0.000124  1.025279  0.0
H  H6  1  0.63409744  0.29754670  0.32010095  1  0.114454  0.000342  0.946076  0.0  0.125178  0.000137  1.007165  0.0  0.127072  0.000106  1.004008  0.0  0.142767  0.123512  0.000148  1.009329  0.0
H  H7  1  0.86554191  0.97740936  0.68036759  1  0.113367  0.000345  0.947286  0.0  0.124727  0.000141  1.008015  0.0  0.12635  0.000108  1.004847  0.0  0.142526  0.123071  0.000153  1.010111  0.0
H  H8  1  0.36590277  0.70244530  0.67988127  1  0.11438  0.000343  0.946172  0.0  0.125205  0.000137  1.007162  0.0  0.127099  0.000106  1.004003  0.0  0.142733  0.123528  0.000148  1.009329  0.0
H  H9  1  0.13447860  0.02258248  0.31964744  1  0.113535  0.000346  0.947387  0.0  0.124803  0.000141  1.008148  0.0  0.126435  0.000109  1.004973  0.0  0.142543  0.12313  0.000153  1.010308  0.0
H  H10  1  0.44016876  0.39422088  0.03909979  1  0.104553  -0.000177  0.911987  0.0  0.115138  -0.000209  0.981234  0.0  0.117802  -0.000131  0.97739  0.0  0.121011  0.11342  -0.000278  0.983418  0.0
H  H11  1  0.05983227  0.35555693  0.96159654  1  0.104955  -0.000178  0.912519  0.0  0.114884  -0.00021  0.982512  0.0  0.11735  -0.000131  0.978532  0.0  0.120925  0.113148  -0.000279  0.984758  0.0
H  H12  1  0.55983031  0.60578657  0.96089386  1  0.104642  -0.000176  0.912139  0.0  0.11519  -0.000209  0.981385  0.0  0.11786  -0.000131  0.977533  0.0  0.121035  0.113469  -0.000278  0.983571  0.0
H  H13  1  0.94016605  0.64445644  0.03841003  1  0.1049  -0.000178  0.912594  0.0  0.114828  -0.00021  0.982612  0.0  0.117294  -0.000131  0.978638  0.0  0.12091  0.113091  -0.000279  0.984856  0.0
H  H14  1  0.34648349  0.35913941  0.14840929  1  0.087869  -0.000154  0.955533  0.0  0.100498  -5.7e-05  1.026612  0.0  0.101866  -1.1e-05  1.025057  0.0  0.106078  0.099542  -0.000133  1.027145  0.0
H  H15  1  0.15347362  0.21124391  0.85196583  1  0.087529  -0.000155  0.955297  0.0  0.100346  -5.9e-05  1.025948  0.0  0.101663  -1.3e-05  1.024078  0.0  0.105976  0.099316  -0.000134  1.026564  0.0
H  H16  1  0.65351420  0.64086686  0.85158303  1  0.087831  -0.000157  0.955584  0.0  0.100472  -5.7e-05  1.026604  0.0  0.101821  -1.1e-05  1.025101  0.0  0.106053  0.099514  -0.000132  1.027134  0.0
H  H17  1  0.84653290  0.78877538  0.14804266  1  0.087432  -0.000155  0.955543  0.0  0.100269  -5.9e-05  1.026165  0.0  0.101585  -1.3e-05  1.024305  0.0  0.105948  0.099241  -0.000134  1.026778  0.0
H  H18  1  0.38831461  0.10869653  0.18633408  1  0.086538  -3.3e-05  0.975454  0.0  0.09621  4.9e-05  1.043578  0.0  0.098197  6.1e-05  1.043572  0.0  0.093013  0.094683  3e-06  1.043791  0.0
H  H19  1  0.11127766  0.92216833  0.81346644  1  0.08614  -3.8e-05  0.97591  0.0  0.095322  4.8e-05  1.044482  0.0  0.097274  6e-05  1.044536  0.0  0.092736  0.093843  2e-06  1.044612  0.0
H  H20  1  0.61168991  0.89131450  0.81365314  1  0.086393  -3.2e-05  0.975472  0.0  0.096082  4.9e-05  1.043585  0.0  0.098063  6.1e-05  1.043587  0.0  0.092974  0.09455  4e-06  1.043795  0.0
H  H21  1  0.88873042  0.07784025  0.18653687  1  0.086082  -4.1e-05  0.975994  0.0  0.0953  4.8e-05  1.044519  0.0  0.097253  6e-05  1.044574  0.0  0.092706  0.093822  2e-06  1.044652  0.0
H  H22  1  0.56305073  0.17841385  0.89828075  1  0.096123  3.4e-05  0.947905  0.0  0.105236  -1.8e-05  1.010611  0.0  0.107791  -4e-06  1.010015  0.0  0.098444  0.1035  -3.3e-05  1.011078  0.0
H  H23  1  0.93744391  0.28031657  0.10210602  1  0.096137  4.7e-05  0.948668  0.0  0.104797  -1.6e-05  1.011814  0.0  0.107423  -3e-06  1.011157  0.0  0.098365  0.103026  -3e-05  1.012322  0.0
H  H24  1  0.43695283  0.82160074  0.10171302  1  0.096099  3.5e-05  0.948038  0.0  0.105246  -1.8e-05  1.010686  0.0  0.107799  -4e-06  1.010087  0.0  0.098437  0.103516  -3.4e-05  1.011161  0.0
H  H25  1  0.06256154  0.71970510  0.89790624  1  0.096195  4.3e-05  0.94879  0.0  0.104852  -1.6e-05  1.011909  0.0  0.10748  -3e-06  1.011248  0.0  0.09837  0.10308  -3e-05  1.012415  0.0
C  C26  1  0.83220817  0.57633790  0.28434926  1  0.207359  0.004481  3.694717  0.002  0.160215  0.001657  3.981696  0.0  0.174915  0.002518  3.99171  0.001  0.143339  0.151338  0.000929  3.97316  0.0
C  C27  1  0.66798614  0.29216968  0.71597026  1  0.207274  0.004436  3.695727  0.002  0.160229  0.00166  3.982407  0.0  0.174742  0.002516  3.991871  0.001  0.143016  0.151348  0.000934  3.973948  0.0
C  C28  1  0.16778697  0.42366838  0.71564109  1  0.207456  0.004479  3.694923  0.002  0.160299  0.001658  3.98186  0.0  0.174995  0.002518  3.99187  0.001  0.143362  0.151427  0.000929  3.973324  0.0
C  C29  1  0.33199299  0.70780205  0.28403042  1  0.207325  0.004439  3.695899  0.002  0.160314  0.00166  3.982569  0.0  0.174824  0.002516  3.992058  0.001  0.1432  0.151433  0.000933  3.974112  0.0
C  C30  1  0.68347518  0.38716919  0.29356092  1  0.175491  0.005692  3.609614  0.003  0.108731  0.001759  3.863348  0.0  0.132624  0.00279  3.881375  0.001  0.167998  0.097978  0.000944  3.855027  0.0
C  C31  1  0.81643368  0.09371746  0.70684710  1  0.17725  0.005627  3.608167  0.003  0.109437  0.001753  3.861693  0.0  0.135824  0.002778  3.878667  0.001  0.167966  0.09866  0.000943  3.853426  0.0
C  C32  1  0.31651313  0.61283232  0.70643372  1  0.175612  0.005687  3.609868  0.003  0.1087  0.001759  3.863555  0.0  0.132601  0.002789  3.881583  0.001  0.168037  0.09796  0.000944  3.855219  0.0
C  C33  1  0.18356877  0.90627206  0.29316160  1  0.176747  0.005629  3.608413  0.003  0.109054  0.001752  3.861999  0.0  0.135385  0.002777  3.878967  0.001  0.167856  0.098271  0.000941  3.853725  0.0
C  C34  1  0.45580797  0.33722281  0.10475090  1  -0.062635  -0.000859  3.638585  -0.001  -0.14199  -0.00078  3.883561  -0.001  -0.130907  -0.000555  3.896242  -0.001  -0.046271  -0.144421  -0.001002  3.877411  -0.001
C  C35  1  0.04427097  0.23291200  0.89574480  1  -0.061881  -0.000794  3.635591  -0.001  -0.140609  -0.000758  3.879448  -0.001  -0.127211  -0.000546  3.890971  -0.001  -0.046482  -0.143109  -0.00096  3.873498  -0.001
C  C36  1  0.54419208  0.66276795  0.89524561  1  -0.062657  -0.00086  3.638645  -0.001  -0.142051  -0.00078  3.883634  -0.001  -0.130952  -0.000555  3.896278  -0.001  -0.046271  -0.144478  -0.001002  3.877484  -0.001
C  C37  1  0.95573257  0.76710255  0.10425873  1  -0.06176  -0.00079  3.63584  -0.001  -0.14051  -0.000758  3.879812  -0.001  -0.127164  -0.000546  3.891336  -0.001  -0.04643  -0.143015  -0.000959  3.873858  -0.001
C  C38  1  0.47438824  0.16176531  0.04837944  1  0.059985  -4.7e-05  3.759937  0.0  0.080828  -9.8e-05  3.998072  0.0  0.079636  -2.8e-05  4.021695  0.0  -0.015678  0.082175  -0.000208  3.980546  0.0
C  C39  1  0.02591652  0.11352233  0.95187997  1  0.059116  -5.9e-05  3.757605  0.0  0.079673  -0.000105  3.995867  0.0  0.078378  -3.2e-05  4.019111  0.0  -0.015697  0.081031  -0.000217  3.978345  0.0
C  C40  1  0.52561063  0.83823978  0.95160620  1  0.060103  -3.3e-05  3.759758  0.0  0.081005  -9.7e-05  3.997788  0.0  0.079818  -2.8e-05  4.021405  0.0  -0.015567  0.08235  -0.000208  3.980265  0.0
C  C41  1  0.97408802  0.88650294  0.04812583  1  0.059229  -0.000103  3.75757  0.0  0.079792  -0.000105  3.995858  0.0  0.078499  -3.3e-05  4.019121  0.0  -0.015627  0.081154  -0.000218  3.978334  0.0
C  C42  1  0.43902782  0.06093105  0.10523939  1  -0.108762  -0.000237  3.75667  0.0  -0.128906  4.9e-05  4.004735  0.0  -0.131758  8e-05  4.028287  0.0  -0.092615  -0.126928  -6.1e-05  3.988936  0.0
C  C43  1  0.06097504  0.95568177  0.89471527  1  -0.10601  -0.00015  3.752075  0.0  -0.125435  5.2e-05  3.999836  0.0  -0.128383  7.7e-05  4.023607  0.0  -0.091506  -0.123517  -3.4e-05  3.984046  0.0
C  C44  1  0.56097261  0.93906333  0.89474189  1  -0.10862  -0.00025  3.7565  0.0  -0.128809  4.8e-05  4.004568  0.0  -0.13166  8e-05  4.028117  0.0  -0.092629  -0.126824  -6e-05  3.988753  0.0
C  C45  1  0.93903088  0.04434468  0.10529022  1  -0.10616  -9.3e-05  3.752653  0.0  -0.125662  5.2e-05  4.000519  0.0  -0.128598  7.6e-05  4.024253  0.0  -0.091572  -0.123744  -3.4e-05  3.984736  0.0
C  C46  1  0.53523704  0.09997688  0.94267547  1  -0.100472  -0.001834  3.740767  -0.001  -0.120422  -0.000412  3.991085  0.0  -0.122531  -0.000192  4.01276  0.0  -0.090542  -0.118829  -0.000732  3.976164  -0.001
C  C47  1  0.96516063  0.15741436  0.05760424  1  -0.101726  -0.001903  3.742473  -0.002  -0.1213  -0.000403  3.992684  0.0  -0.123552  -0.000185  4.01441  0.0  -0.090994  -0.119712  -0.000716  3.97788  -0.001
C  C48  1  0.46476570  0.90001510  0.05731115  1  -0.100395  -0.001845  3.741034  -0.002  -0.12038  -0.000413  3.991286  0.0  -0.122489  -0.000192  4.012961  0.0  -0.09051  -0.118797  -0.000733  3.976388  -0.001
C  C49  1  0.03485797  0.84259776  0.94240390  1  -0.101809  -0.001858  3.742027  -0.002  -0.121397  -0.000403  3.99225  0.0  -0.123654  -0.000185  4.013973  0.0  -0.090983  -0.119812  -0.000715  3.977449  -0.001
C  C50  1  0.35302411  0.27106604  0.42779460  1  0.286785  0.019951  4.025118  0.01  0.293767  -0.001137  4.342749  -0.008  0.321816  0.000131  4.355528  -0.006  0.14235  0.27374  -0.001964  4.332829  -0.008
C  C51  1  0.14727384  0.84341831  0.57263474  1  0.286543  0.019902  4.025986  0.01  0.293319  -0.001165  4.343694  -0.008  0.321298  0.000127  4.356503  -0.006  0.141922  0.273365  -0.002019  4.333732  -0.008
C  C52  1  0.64697829  0.72889603  0.57222853  1  0.286823  0.019953  4.024599  0.01  0.293786  -0.001133  4.342312  -0.008  0.321836  0.000135  4.355083  -0.006  0.142251  0.273755  -0.001962  4.332397  -0.008
C  C53  1  0.85272373  0.15658676  0.42736049  1  0.28685  0.019881  4.026381  0.01  0.293635  -0.001159  4.344012  -0.008  0.321609  0.000132  4.356814  -0.006  0.14203  0.27369  -0.002014  4.334058  -0.008
S  S54  1  0.25857888  0.37802109  0.35793900  1  -0.296459  -0.057298  2.096557  -0.06  -0.337948  -0.006892  2.435942  -0.011  -0.359765  -0.000217  2.430316  -0.005  -0.139516  -0.318899  -0.01657  2.438053  -0.02
S  S55  1  0.24183461  0.02030230  0.64256951  1  -0.295624  -0.057206  2.096433  -0.06  -0.337124  -0.006741  2.43536  -0.011  -0.358883  -0.000175  2.429676  -0.005  -0.139099  -0.318166  -0.016288  2.437488  -0.02
S  S56  1  0.74144906  0.62194097  0.64207045  1  -0.296444  -0.057255  2.09665  -0.06  -0.337906  -0.006882  2.436044  -0.011  -0.35969  -0.00021  2.430378  -0.005  -0.139534  -0.318881  -0.016548  2.438158  -0.02
S  S57  1  0.75814985  0.97969918  0.35743600  1  -0.295853  -0.057183  2.096194  -0.06  -0.33733  -0.00673  2.435062  -0.011  -0.359088  -0.000171  2.429377  -0.005  -0.139176  -0.318365  -0.01627  2.43719  -0.02
N  N58  1  0.61027262  0.41835415  0.19660418  1  0.044296  -0.001239  3.548952  -0.002  0.166948  -0.001106  3.729534  -0.002  0.131379  -0.000836  3.787904  -0.001  -0.130171  0.1723  -0.001303  3.716959  -0.002
N  N59  1  0.88969802  0.22198161  0.80387071  1  0.042601  -0.001239  3.547073  -0.002  0.166024  -0.001108  3.726837  -0.002  0.125865  -0.000839  3.787313  -0.001  -0.130006  0.171373  -0.0013  3.714263  -0.002
N  N60  1  0.38972134  0.58165330  0.80339285  1  0.044216  -0.001238  3.549219  -0.002  0.166995  -0.001107  3.729623  -0.002  0.131388  -0.000836  3.788052  -0.001  -0.130121  0.17235  -0.001304  3.717041  -0.002
N  N61  1  0.11030313  0.77802103  0.19613248  1  0.042842  -0.001241  3.547077  -0.002  0.166131  -0.001107  3.726997  -0.002  0.126125  -0.000838  3.787309  -0.001  -0.12999  0.171484  -0.001299  3.714424  -0.002
N  N62  1  0.70353496  0.53851526  0.18884414  1  -0.287301  -0.007158  2.836361  -0.008  -0.284976  -0.00419  3.099308  -0.005  -0.286314  -0.002781  3.117704  -0.004  -0.227941  -0.278914  -0.005617  3.091414  -0.006
N  N63  1  0.79656856  0.34998496  0.81155136  1  -0.287152  -0.007101  2.836186  -0.008  -0.284992  -0.004192  3.099064  -0.005  -0.284086  -0.002781  3.116881  -0.004  -0.22794  -0.27898  -0.005608  3.091233  -0.006
N  N64  1  0.29645273  0.46149340  0.81115157  1  -0.287341  -0.007153  2.836564  -0.008  -0.285083  -0.004189  3.099493  -0.005  -0.286406  -0.002781  3.117898  -0.004  -0.227909  -0.279022  -0.005615  3.091598  -0.006
N  N65  1  0.20341074  0.65000226  0.18845035  1  -0.287289  -0.007101  2.836261  -0.008  -0.285086  -0.004193  3.099171  -0.005  -0.284233  -0.002781  3.116967  -0.004  -0.228057  -0.279072  -0.005608  3.091342  -0.006
N  N66  1  0.82544940  0.48529650  0.35052827  1  -0.376102  -0.060474  3.299128  -0.077  -0.326114  -0.053534  3.600459  -0.075  -0.361725  -0.042715  3.619366  -0.064  -0.355262  -0.303941  -0.058965  3.587638  -0.078
N  N67  1  0.67464369  0.13485039  0.64975086  1  -0.377393  -0.059759  3.298593  -0.076  -0.327025  -0.053247  3.59998  -0.074  -0.362854  -0.042541  3.618129  -0.064  -0.354784  -0.304978  -0.058465  3.587173  -0.077
N  N68  1  0.17455849  0.51470974  0.64946298  1  -0.376151  -0.06046  3.299395  -0.077  -0.326125  -0.053525  3.60072  -0.075  -0.361731  -0.042706  3.619622  -0.064  -0.355318  -0.303953  -0.058956  3.587892  -0.078
N  N69  1  0.32535686  0.86511887  0.35026097  1  -0.37723  -0.059752  3.298652  -0.076  -0.3268  -0.053243  3.599913  -0.074  -0.362632  -0.042539  3.618083  -0.064  -0.354795  -0.304754  -0.058456  3.587114  -0.077
N  N70  1  0.42202809  0.19432418  0.48126984  1  -0.531657  -0.067673  3.04533  -0.082  -0.527682  -0.041777  3.360605  -0.056  -0.560978  -0.033697  3.366113  -0.048  -0.430642  -0.5051  -0.047116  3.357602  -0.059
N  N71  1  0.07795256  0.71322342  0.51907782  1  -0.532418  -0.067844  3.046454  -0.082  -0.528325  -0.041787  3.361683  -0.056  -0.561433  -0.033736  3.366928  -0.048  -0.430969  -0.505847  -0.047137  3.358921  -0.059
N  N72  1  0.57797181  0.80565217  0.51875852  1  -0.531848  -0.067683  3.044936  -0.082  -0.52786  -0.041784  3.360267  -0.056  -0.561155  -0.033706  3.365771  -0.048  -0.430587  -0.50526  -0.047125  3.357205  -0.059
N  N73  1  0.92204084  0.28676385  0.48089730  1  -0.532618  -0.067792  3.047218  -0.082  -0.528507  -0.041779  3.362436  -0.056  -0.561607  -0.033734  3.367671  -0.048  -0.431013  -0.506031  -0.047122  3.35968  -0.059
