# generated using pymatgen
data_ZnH9C15S2(NO2)2
_symmetry_space_group_name_H-M   'P 1'
_cell_length_a   7.79560406
_cell_length_b   8.64754974
_cell_length_c   15.94109802
_cell_angle_alpha   91.28046592
_cell_angle_beta   94.15790538
_cell_angle_gamma   125.47867884
_symmetry_Int_Tables_number   1
_chemical_formula_structural   ZnH9C15S2(NO2)2
_chemical_formula_sum   'Zn2 H18 C30 S4 N4 O8'
_cell_volume   870.05556824
_cell_formula_units_Z   2
loop_
 _symmetry_equiv_pos_site_id
 _symmetry_equiv_pos_as_xyz
  1  'x, y, z'
loop_
 _atom_site_type_symbol
 _atom_site_label
 _atom_site_symmetry_multiplicity
 _atom_site_fract_x
 _atom_site_fract_y
 _atom_site_fract_z
 _atom_site_occupancy
 _atom_site_hle17_bader_spin_density
 _atom_site_hle17_ddec_charge
 _atom_site_hle17_ddec_spin_density
 _atom_site_hle17_ddec_sum_bond_order
 _atom_site_hle17_magmom
 _atom_site_hse06_10hf_bader_spin_density
 _atom_site_hse06_10hf_ddec_charge
 _atom_site_hse06_10hf_ddec_spin_density
 _atom_site_hse06_10hf_ddec_sum_bond_order
 _atom_site_hse06_10hf_magmom
 _atom_site_hse06_bader_spin_density
 _atom_site_hse06_ddec_charge
 _atom_site_hse06_ddec_spin_density
 _atom_site_hse06_ddec_sum_bond_order
 _atom_site_hse06_magmom
 _atom_site_pbe_bader_spin_density
 _atom_site_pbe_cm5_charge
 _atom_site_pbe_ddec_charge
 _atom_site_pbe_ddec_spin_density
 _atom_site_pbe_ddec_sum_bond_order
 _atom_site_pbe_magmom
Zn  Zn0  1  0.78878441  0.75343854  0.30212117  1  0  0.951034  0  1.860734  0  0  0.788264  0  2.322468  0  0  0.837582  0  2.266916  0  0  0.611575  0.753728  0  2.360498  0
Zn  Zn1  1  0.21113752  0.24642150  0.69790179  1  0  0.951024  0  1.860981  0  0  0.788239  0  2.322914  0  0  0.837556  0  2.267343  0  0  0.611638  0.753711  0  2.360953  0
H  H2  1  0.68764537  0.33486134  0.00722497  1  0  0.100633  0  0.968224  0  0  0.110048  0  1.03299  0  0  0.112967  0  1.031655  0  0  0.100755  0.108006  0  1.033968  0
H  H3  1  0.31247425  0.66572947  0.99271053  1  0  0.100424  0  0.967975  0  0  0.109859  0  1.032796  0  0  0.112767  0  1.031455  0  0  0.1007  0.107818  0  1.033777  0
H  H4  1  0.33863951  0.02721513  0.00833877  1  0  0.059406  0  0.971112  0  0  0.066693  0  1.039331  0  0  0.06845  0  1.038809  0  0  0.101142  0.065452  0  1.039754  0
H  H5  1  0.66138801  0.97344121  0.99143973  1  0  0.059509  0  0.970954  0  0  0.066668  0  1.039319  0  0  0.068402  0  1.038844  0  0  0.101276  0.065431  0  1.039722  0
H  H6  1  0.31592349  0.11950760  0.26227331  1  0  0.089689  0  0.943193  0  0  0.095326  0  1.007219  0  0  0.097841  0  1.005586  0  0  0.11374  0.093437  0  1.008499  0
H  H7  1  0.68409016  0.88024786  0.73760514  1  0  0.090042  0  0.942957  0  0  0.095574  0  1.007045  0  0  0.098089  0  1.005419  0  0  0.113906  0.093684  0  1.00833  0
H  H8  1  0.67853201  0.42218472  0.27528007  1  0  0.114739  0  0.970663  0  0  0.129469  0  1.026042  0  0  0.132802  0  1.023414  0  0  0.109558  0.126976  0  1.02823  0
H  H9  1  0.32157074  0.57751038  0.72473769  1  0  0.114679  0  0.971158  0  0  0.12962  0  1.026265  0  0  0.132959  0  1.023609  0  0  0.109608  0.127127  0  1.028453  0
H  H10  1  0.92053748  0.10994401  0.30553386  1  0  0.132561  0  0.944516  0  0  0.146327  0  0.995787  0  0  0.14962  0  0.994803  0  0  0.119477  0.143864  0  0.996849  0
H  H11  1  0.07936495  0.88986247  0.69449166  1  0  0.132513  0  0.944532  0  0  0.146373  0  0.995701  0  0  0.149657  0  0.994737  0  0  0.119569  0.143916  0  0.996768  0
H  H12  1  0.02704779  0.44108492  0.29388776  1  0  0.127711  0  0.918864  0  0  0.135874  0  0.976489  0  0  0.139078  0  0.973218  0  0  0.137585  0.133362  0  0.979065  0
H  H13  1  0.97293506  0.55874920  0.70618856  1  0  0.128009  0  0.918432  0  0  0.13598  0  0.976345  0  0  0.139177  0  0.973083  0  0  0.13773  0.13347  0  0.97892  0
H  H14  1  0.07961888  0.41183185  0.03664966  1  0  0.075  0  0.991926  0  0  0.07618  0  1.074586  0  0  0.079293  0  1.070409  0  0  0.112741  0.073908  0  1.077497  0
H  H15  1  0.92048786  0.58818709  0.96342806  1  0  0.075018  0  0.991963  0  0  0.07599  0  1.074729  0  0  0.079153  0  1.070507  0  0  0.112849  0.073727  0  1.077632  0
H  H16  1  0.98972262  0.08771477  0.03845565  1  0  0.116851  0  0.954598  0  0  0.127346  0  1.01538  0  0  0.130973  0  1.013607  0  0  0.110185  0.124774  0  1.016838  0
H  H17  1  0.01013380  0.91219326  0.96156614  1  0  0.117343  0  0.954044  0  0  0.127558  0  1.015232  0  0  0.13119  0  1.013448  0  0  0.110323  0.125  0  1.016659  0
H  H18  1  0.24544871  0.07570853  0.52032730  1  0  0.114399  0  0.948303  0  0  0.122062  0  1.010476  0  0  0.126085  0  1.007841  0  0  0.107491  0.119138  0  1.012512  0
H  H19  1  0.75453172  0.92427558  0.47970131  1  0  0.114468  0  0.948343  0  0  0.122085  0  1.010545  0  0  0.126108  0  1.007906  0  0  0.107547  0.119161  0  1.012582  0
C  C20  1  0.71127618  0.40766675  0.14141228  1  0  0.034363  0  3.797649  0  0  0.055563  0  4.045648  0  0  0.055971  0  4.071488  0  0  -0.009292  0.055483  0  4.028057  0
C  C21  1  0.28885938  0.59245853  0.85858434  1  0  0.034584  0  3.797728  0  0  0.055991  0  4.045343  0  0  0.056424  0  4.071146  0  0  -0.009057  0.055896  0  4.027771  0
C  C22  1  0.61160401  0.29541576  0.06534855  1  0  -0.159383  0  3.759352  0  0  -0.178844  0  4.003217  0  0  -0.185328  0  4.026318  0  0  -0.094587  -0.174566  0  3.987468  0
C  C23  1  0.38849853  0.70500570  0.93458052  1  0  -0.158662  0  3.759718  0  0  -0.178326  0  4.003628  0  0  -0.184782  0  4.0267  0  0  -0.094337  -0.174047  0  3.987878  0
C  C24  1  0.41443747  0.12180727  0.06608115  1  0  0.116111  0  3.756307  0  0  0.094837  0  4.012592  0  0  0.100139  0  4.030016  0  0  0.037111  0.091475  0  4.000555  0
C  C25  1  0.58560145  0.87863845  0.93375731  1  0  0.115692  0  3.757221  0  0  0.094564  0  4.013426  0  0  0.09986  0  4.030842  0  0  0.036827  0.091212  0  4.001381  0
C  C26  1  0.40292574  0.17154844  0.20681582  1  0  0.150837  0  3.672312  0  0  0.128309  0  3.927834  0  0  0.133861  0  3.945256  0  0  0.052698  0.124703  0  3.916002  0
C  C27  1  0.59712553  0.82838649  0.79308043  1  0  0.150069  0  3.672412  0  0  0.12764  0  3.927946  0  0  0.133175  0  3.945377  0  0  0.052155  0.124042  0  3.916117  0
C  C28  1  0.60336319  0.34519979  0.21347707  1  0  -0.162951  0  3.716449  0  0  -0.179559  0  3.955407  0  0  -0.186466  0  3.977362  0  0  -0.086784  -0.175175  0  3.940871  0
C  C29  1  0.39673360  0.65469919  0.78650357  1  0  -0.163203  0  3.71746  0  0  -0.180023  0  3.956195  0  0  -0.186932  0  3.978148  0  0  -0.087044  -0.175638  0  3.941662  0
C  C30  1  0.92005154  0.05772802  0.17010182  1  0  0.193683  0  3.747287  0  0  0.19992  0  4.006952  0  0  0.216851  0  4.022716  0  0  0.027693  0.18884  0  3.995825  0
C  C31  1  0.07987041  0.94215129  0.82992015  1  0  0.193539  0  3.746964  0  0  0.19985  0  4.00654  0  0  0.216788  0  4.022299  0  0  0.027698  0.188763  0  3.99542  0
C  C32  1  0.95185537  0.16903312  0.24440635  1  0  -0.15123  0  3.651487  0  0  -0.168182  0  3.900175  0  0  -0.179684  0  3.919346  0  0  -0.073751  -0.1611  0  3.887591  0
C  C33  1  0.04806025  0.83080518  0.75562727  1  0  -0.151058  0  3.651316  0  0  -0.167953  0  3.899959  0  0  -0.179457  0  3.919121  0  0  -0.073591  -0.160875  0  3.887385  0
C  C34  1  0.01452217  0.35338362  0.24023352  1  0  0.130248  0  3.584632  0  0  0.089711  0  3.836279  0  0  0.101903  0  3.850015  0  0  0.067046  0.081935  0  3.826986  0
C  C35  1  0.98543739  0.64647196  0.75982859  1  0  0.130236  0  3.584338  0  0  0.089609  0  3.836337  0  0  0.101819  0  3.850035  0  0  0.066909  0.081834  0  3.827051  0
C  C36  1  0.04693034  0.33942989  0.09455139  1  0  0.092972  0  3.684204  0  0  0.054098  0  3.938152  0  0  0.065324  0  3.952366  0  0  0.047029  0.046636  0  3.929043  0
C  C37  1  0.95308323  0.66051974  0.90551005  1  0  0.092902  0  3.683749  0  0  0.054377  0  3.937542  0  0  0.065494  0  3.951852  0  0  0.04677  0.046907  0  3.928439  0
C  C38  1  0.99012421  0.15714002  0.09613761  1  0  -0.156142  0  3.708322  0  0  -0.174694  0  3.962986  0  0  -0.184875  0  3.981532  0  0  -0.085485  -0.168383  0  3.950724  0
C  C39  1  0.00979176  0.84277390  0.90389392  1  0  -0.156551  0  3.708047  0  0  -0.175111  0  3.96288  0  0  -0.185283  0  3.981427  0  0  -0.085528  -0.168793  0  3.950624  0
C  C40  1  0.11943971  0.84890271  0.38520953  1  0  0.657122  0  3.841144  0  0  0.607837  0  4.13293  0  0  0.643436  0  4.124755  0  0  0.209298  0.583537  0  4.137798  0
C  C41  1  0.88050246  0.15102343  0.61482805  1  0  0.657061  0  3.841024  0  0  0.607566  0  4.133215  0  0  0.643178  0  4.125043  0  0  0.20896  0.583283  0  4.138055  0
C  C42  1  0.31959199  0.92251848  0.44073742  1  0  -0.040814  0  3.696807  0  0  -0.027174  0  3.930361  0  0  -0.031669  0  3.950247  0  0  -0.001717  -0.024245  0  3.91704  0
C  C43  1  0.68036201  0.07743171  0.55930054  1  0  -0.04062  0  3.696458  0  0  -0.02702  0  3.930365  0  0  -0.031593  0  3.950314  0  0  -0.001626  -0.024085  0  3.917044  0
C  C44  1  0.35784998  0.04227446  0.51102761  1  0  -0.078776  0  3.690971  0  0  -0.111323  0  3.936933  0  0  -0.11228  0  3.956601  0  0  -0.076065  -0.110614  0  3.923719  0
C  C45  1  0.64213046  0.95770964  0.48900100  1  0  -0.078957  0  3.691055  0  0  -0.111477  0  3.937029  0  0  -0.112393  0  3.956729  0  0  -0.076145  -0.110773  0  3.923801  0
C  C46  1  0.46631193  0.88058804  0.42894845  1  0  -0.049574  0  3.695847  0  0  -0.036062  0  3.928425  0  0  -0.040602  0  3.949352  0  0  -0.006127  -0.033157  0  3.914464  0
C  C47  1  0.53365375  0.11937683  0.57108660  1  0  -0.049902  0  3.695336  0  0  -0.036566  0  3.92828  0  0  -0.04102  0  3.949123  0  0  -0.00632  -0.033692  0  3.914362  0
C  C48  1  0.46339248  0.77893719  0.35007842  1  0  0.639275  0  3.92117  0  0  0.593923  0  4.219824  0  0  0.626923  0  4.212283  0  0  0.200425  0.571373  0  4.224273  0
C  C49  1  0.53658247  0.22103655  0.64995602  1  0  0.639582  0  3.920784  0  0  0.59432  0  4.219478  0  0  0.627305  0  4.21191  0  0  0.20032  0.571774  0  4.223947  0
S  S50  1  0.98871904  0.60113291  0.15113119  1  0  0.135045  0  2.377754  0  0  0.094802  0  2.724825  0  0  0.107156  0  2.72055  0  0  0.155102  0.086298  0  2.727904  0
S  S51  1  0.01145671  0.39888904  0.84894735  1  0  0.134694  0  2.377938  0  0  0.094377  0  2.724922  0  0  0.106723  0  2.720629  0  0  0.154954  0.085883  0  2.727998  0
S  S52  1  0.79148935  0.81544395  0.16281727  1  0  -0.350844  0  2.210293  0  0  -0.320318  0  2.577068  0  0  -0.347302  0  2.569382  0  0  -0.13459  -0.301364  0  2.581777  0
S  S53  1  0.20847531  0.18443860  0.83719775  1  0  -0.350781  0  2.21019  0  0  -0.320298  0  2.577108  0  0  -0.347288  0  2.569432  0  0  -0.134618  -0.301348  0  2.581828  0
N  N54  1  0.31107511  0.05914633  0.13478938  1  0  -0.296714  0  3.099091  0  0  -0.259759  0  3.368532  0  0  -0.271029  0  3.385139  0  0  -0.315111  -0.251971  0  3.357037  0
N  N55  1  0.68894961  0.94105397  0.86503486  1  0  -0.29614  0  3.099292  0  0  -0.259158  0  3.368498  0  0  -0.270415  0  3.3851  0  0  -0.314632  -0.251377  0  3.357  0
N  N56  1  0.04949599  0.43331465  0.16483749  1  0  -0.093331  0  3.478788  0  0  4.2e-05  0  3.701701  0  0  -0.017492  0  3.725359  0  0  -0.220845  0.011425  0  3.685622  0
N  N57  1  0.95052750  0.56660437  0.83523916  1  0  -0.093525  0  3.478794  0  0  -6.5e-05  0  3.701763  0  0  -0.017575  0  3.725365  0  0  -0.220985  0.011319  0  3.685684  0
O  O58  1  0.08082738  0.97071728  0.36684342  1  0  -0.623006  0  1.961087  0  0  -0.55696  0  2.201148  0  0  -0.586163  0  2.189747  0  0  -0.319391  -0.53636  0  2.208221  0
O  O59  1  0.91916038  0.02921252  0.63314527  1  0  -0.623053  0  1.960748  0  0  -0.557011  0  2.201061  0  0  -0.586213  0  2.189648  0  0  -0.319416  -0.536419  0  2.208128  0
O  O60  1  0.98237658  0.67282209  0.36096976  1  0  -0.616048  0  1.936493  0  0  -0.554561  0  2.168912  0  0  -0.583675  0  2.157632  0  0  -0.31559  -0.534125  0  2.17606  0
O  O61  1  0.01752285  0.32708304  0.63911286  1  0  -0.615922  0  1.936814  0  0  -0.55428  0  2.169278  0  0  -0.583393  0  2.157999  0  0  -0.31525  -0.533848  0  2.176407  0
O  O62  1  0.55692854  0.69336169  0.36278456  1  0  -0.664729  0  2.037436  0  0  -0.590235  0  2.304827  0  0  -0.618757  0  2.285597  0  0  -0.360297  -0.570009  0  2.317275  0
O  O63  1  0.44304182  0.30661054  0.63724772  1  0  -0.664737  0  2.037283  0  0  -0.590272  0  2.304659  0  0  -0.618797  0  2.285439  0  0  -0.360177  -0.570047  0  2.317105  0
O  O64  1  0.38792463  0.78978439  0.28110385  1  0  -0.588118  0  1.938888  0  0  -0.558763  0  2.170948  0  0  -0.580754  0  2.165216  0  0  -0.321014  -0.54309  0  2.174308  0
O  O65  1  0.61205510  0.21019932  0.71892974  1  0  -0.588291  0  1.939025  0  0  -0.558871  0  2.170905  0  0  -0.580862  0  2.165175  0  0  -0.321022  -0.543205  0  2.174285  0
