# generated using pymatgen
data_H14PbC13(BrN)2
_symmetry_space_group_name_H-M   'P 1'
_cell_length_a   4.37765327
_cell_length_b   10.99943295
_cell_length_c   15.40464834
_cell_angle_alpha   90.00320458
_cell_angle_beta   90.00608606
_cell_angle_gamma   96.83495747
_symmetry_Int_Tables_number   1
_chemical_formula_structural   H14PbC13(BrN)2
_chemical_formula_sum   'H28 Pb2 C26 Br4 N4'
_cell_volume   736.48842690
_cell_formula_units_Z   2
loop_
 _symmetry_equiv_pos_site_id
 _symmetry_equiv_pos_as_xyz
  1  'x, y, z'
loop_
 _atom_site_type_symbol
 _atom_site_label
 _atom_site_symmetry_multiplicity
 _atom_site_fract_x
 _atom_site_fract_y
 _atom_site_fract_z
 _atom_site_occupancy
 _atom_site_pbe_bader_charge
 _atom_site_pbe_bader_spin_density
 _atom_site_pbe_cm5_charge
 _atom_site_pbe_ddec_charge
 _atom_site_pbe_ddec_spin_density
 _atom_site_pbe_ddec_sum_bond_order
 _atom_site_pbe_magmom
H  H0  1  0.37234718  0.55769650  0.57217871  1  0.08575  0  0.100714  0.066366  0  1.046769  0
H  H1  1  0.62760314  0.44230814  0.07218421  1  0.085675  0  0.100735  0.066412  0  1.04671  0
H  H2  1  0.62761663  0.44232349  0.42782686  1  0.085824  0  0.100678  0.066328  0  1.046709  0
H  H3  1  0.37237989  0.55769173  0.92780838  1  0.085579  0  0.100723  0.066397  0  1.046844  0
H  H4  1  0.14626127  0.59216391  0.42602424  1  0.09758  0  0.100179  0.114119  0  1.018217  0
H  H5  1  0.85372358  0.40783311  0.92604390  1  0.097632  0  0.100203  0.114093  0  1.018247  0
H  H6  1  0.85375335  0.40784238  0.57397420  1  0.097397  0  0.100276  0.114239  0  1.018163  0
H  H7  1  0.14625381  0.59216309  0.07394479  1  0.097392  0  0.100266  0.114202  0  1.018113  0
H  H8  1  0.65841469  0.95179336  0.42641562  1  0.078339  0  0.098084  0.106778  0  1.036091  0
H  H9  1  0.34163765  0.04819271  0.92638671  1  0.077995  0  0.098032  0.106676  0  1.036187  0
H  H10  1  0.34160195  0.04821203  0.57358476  1  0.078406  0  0.098098  0.106847  0  1.036099  0
H  H11  1  0.65835600  0.95180442  0.07360198  1  0.078174  0  0.098027  0.1067  0  1.03614  0
H  H12  1  0.87293799  0.90110522  0.57164045  1  0.078192  0  0.105  0.072325  0  1.023789  0
H  H13  1  0.12709074  0.09888579  0.07159619  1  0.078522  0  0.104961  0.072161  0  1.023709  0
H  H14  1  0.12703080  0.09890836  0.42836967  1  0.07838  0  0.104948  0.072295  0  1.023745  0
H  H15  1  0.87288611  0.90110858  0.92838926  1  0.07854  0  0.105019  0.072275  0  1.023723  0
H  H16  1  0.18707075  0.90109038  0.33025193  1  0.039587  0  0.085648  0.089457  0  1.014278  0
H  H17  1  0.81295503  0.09889489  0.83025584  1  0.039525  0  0.085593  0.089353  0  1.014355  0
H  H18  1  0.81300126  0.09891688  0.66973417  1  0.039606  0  0.085678  0.089514  0  1.014153  0
H  H19  1  0.18706698  0.90109768  0.16973999  1  0.039555  0  0.085644  0.089402  0  1.01422  0
H  H20  1  0.00188232  0.74833199  0.32811451  1  0.029168  0  0.088581  0.094901  0  1.017398  0
H  H21  1  0.99814843  0.25165252  0.82814650  1  0.029133  0  0.088423  0.094787  0  1.017407  0
H  H22  1  0.99815273  0.25168165  0.67187873  1  0.028854  0  0.088557  0.094993  0  1.017362  0
H  H23  1  0.00185785  0.74834095  0.17185129  1  0.029409  0  0.088396  0.094765  0  1.01748  0
H  H24  1  0.63166448  0.83665944  0.25000378  1  0.068129  0  0.079507  0.08421  0  1.032489  0
H  H25  1  0.36836666  0.16331758  0.74998297  1  0.067939  0  0.079518  0.084283  0  1.032425  0
H  H26  1  0.45769525  0.68184507  0.24999076  1  0.035219  0  0.074207  0.079411  0  1.031847  0
H  H27  1  0.54230095  0.31813741  0.75000378  1  0.035294  0  0.074283  0.079533  0  1.031503  0
Pb  Pb28  1  0.69361005  0.70865106  0.74999991  1  1.191132  0  0.422497  0.776163  0  2.213401  0
Pb  Pb29  1  0.30639219  0.29132868  0.25000047  1  1.19106  0  0.422462  0.776118  0  2.213677  0
C  C30  1  0.43512029  0.64307326  0.53683751  1  0.452027  0  0.038274  0.086785  0  3.998717  0
C  C31  1  0.56486595  0.35692466  0.03683766  1  0.452  0  0.038167  0.086675  0  3.998783  0
C  C32  1  0.56486167  0.35693850  0.46316417  1  0.451176  0  0.038359  0.086978  0  3.998516  0
C  C33  1  0.43511399  0.64307246  0.96315493  1  0.451989  0  0.038308  0.086864  0  3.998572  0
C  C34  1  0.30725151  0.66312315  0.45621857  1  -0.023496  0  -0.087612  -0.180683  0  3.926927  0
C  C35  1  0.69274368  0.33687732  0.95622745  1  -0.023706  0  -0.087592  -0.180575  0  3.927117  0
C  C36  1  0.69275558  0.33688864  0.54378052  1  -0.023068  0  -0.087742  -0.180857  0  3.926862  0
C  C37  1  0.30723653  0.66312071  0.04376579  1  -0.023568  0  -0.087744  -0.180798  0  3.92725  0
C  C38  1  0.37903031  0.77642881  0.41498686  1  -0.030683  0  0.015542  0.179418  0  3.925906  0
C  C39  1  0.62099043  0.22356259  0.91498795  1  -0.030358  0  0.015579  0.179304  0  3.92602  0
C  C40  1  0.62098686  0.22357841  0.58501287  1  -0.03036  0  0.015615  0.179419  0  3.926093  0
C  C41  1  0.37901075  0.77642905  0.08500854  1  -0.029936  0  0.0156  0.179209  0  3.926223  0
C  C42  1  0.59188712  0.86273276  0.45640808  1  -0.068483  0  -0.086772  -0.182002  0  3.929778  0
C  C43  1  0.40813960  0.13725856  0.95638394  1  -0.069072  0  -0.086705  -0.181879  0  3.929497  0
C  C44  1  0.40812172  0.13727719  0.54359554  1  -0.068727  0  -0.086822  -0.182173  0  3.929915  0
C  C45  1  0.59184007  0.86273764  0.04360606  1  -0.069108  0  -0.086612  -0.181732  0  3.929503  0
C  C46  1  0.71125657  0.83509067  0.53677114  1  0.498951  0  0.039851  0.088722  0  3.994665  0
C  C47  1  0.28876061  0.16490361  0.03674173  1  0.499578  0  0.039989  0.089053  0  3.994402  0
C  C48  1  0.28873453  0.16492110  0.46323378  1  0.499024  0  0.039832  0.088768  0  3.994651  0
C  C49  1  0.71122081  0.83509075  0.96324631  1  0.499287  0  0.039808  0.088802  0  3.994468  0
C  C50  1  0.22714836  0.80408620  0.33131434  1  0.012016  0  -0.164384  -0.204525  0  3.941113  0
C  C51  1  0.77287734  0.19589991  0.83132202  1  0.011891  0  -0.164211  -0.204257  0  3.941031  0
C  C52  1  0.77290456  0.19591830  0.66868020  1  0.012265  0  -0.164378  -0.204534  0  3.94094  0
C  C53  1  0.22713042  0.80409081  0.16867447  1  0.011338  0  -0.164197  -0.204136  0  3.940892  0
C  C54  1  0.41061494  0.77792067  0.24999846  1  -0.044373  0  -0.168524  -0.130117  0  3.900434  0
C  C55  1  0.58940290  0.22206549  0.74999543  1  -0.044364  0  -0.168592  -0.130272  0  3.90025  0
Br  Br56  1  0.12739266  0.51415258  0.75002341  1  -0.629915  0  -0.219234  -0.471085  0  1.188735  0
Br  Br57  1  0.87261992  0.48582351  0.25004448  1  -0.629855  0  -0.219261  -0.471082  0  1.188787  0
Br  Br58  1  0.23436618  0.90240780  0.75000457  1  -0.630595  0  -0.223812  -0.466547  0  1.174286  0
Br  Br59  1  0.76564414  0.09759941  0.25000100  1  -0.630622  0  -0.223798  -0.466538  0  1.174501  0
N  N60  1  0.63223868  0.72763774  0.57730437  1  -1.243683  0  -0.3154  -0.267699  0  3.483105  0
N  N61  1  0.36775680  0.27235469  0.07728534  1  -1.243672  0  -0.315524  -0.267897  0  3.483104  0
N  N62  1  0.36773952  0.27237677  0.42270121  1  -1.243383  0  -0.315411  -0.267774  0  3.483144  0
N  N63  1  0.63222758  0.72763419  0.92270660  1  -1.243503  0  -0.315529  -0.267939  0  3.483088  0
