# generated using pymatgen
data_CdH18C18(N3Cl)2
_symmetry_space_group_name_H-M   'P 1'
_cell_length_a   9.81262461
_cell_length_b   10.39961669
_cell_length_c   11.41571673
_cell_angle_alpha   62.59132324
_cell_angle_beta   79.17996140
_cell_angle_gamma   83.98603866
_symmetry_Int_Tables_number   1
_chemical_formula_structural   CdH18C18(N3Cl)2
_chemical_formula_sum   'Cd2 H36 C36 N12 Cl4'
_cell_volume   1015.56456063
_cell_formula_units_Z   2
loop_
 _symmetry_equiv_pos_site_id
 _symmetry_equiv_pos_as_xyz
  1  'x, y, z'
loop_
 _atom_site_type_symbol
 _atom_site_label
 _atom_site_symmetry_multiplicity
 _atom_site_fract_x
 _atom_site_fract_y
 _atom_site_fract_z
 _atom_site_occupancy
 _atom_site_hle17_bader_spin_density
 _atom_site_hle17_ddec_charge
 _atom_site_hle17_ddec_spin_density
 _atom_site_hle17_ddec_sum_bond_order
 _atom_site_hle17_magmom
 _atom_site_hse06_10hf_bader_spin_density
 _atom_site_hse06_10hf_ddec_charge
 _atom_site_hse06_10hf_ddec_spin_density
 _atom_site_hse06_10hf_ddec_sum_bond_order
 _atom_site_hse06_10hf_magmom
 _atom_site_hse06_bader_spin_density
 _atom_site_hse06_ddec_charge
 _atom_site_hse06_ddec_spin_density
 _atom_site_hse06_ddec_sum_bond_order
 _atom_site_hse06_magmom
 _atom_site_pbe_bader_spin_density
 _atom_site_pbe_cm5_charge
 _atom_site_pbe_ddec_charge
 _atom_site_pbe_ddec_spin_density
 _atom_site_pbe_ddec_sum_bond_order
 _atom_site_pbe_magmom
Cd  Cd0  1  0.00890378  0.41571958  0.68678806  1  0  0.975726  0  1.948273  0  0  0.80517  0  2.404966  0  0  0.84987  0  2.367241  0  0  0.633839  0.773164  0  2.429553  0
Cd  Cd1  1  0.99109770  0.58427907  0.31321350  1  0  0.975738  0  1.948302  0  0  0.805189  0  2.404995  0  0  0.849885  0  2.367273  0  0  0.633847  0.773183  0  2.429581  0
H  H2  1  0.33539287  0.06414806  0.86370774  1  0  0.108203  0  0.953218  0  0  0.116707  0  1.019424  0  0  0.119664  0  1.018381  0  0  0.102969  0.114078  0  1.021132  0
H  H3  1  0.66460665  0.93584625  0.13629507  1  0  0.108187  0  0.953291  0  0  0.116727  0  1.01945  0  0  0.119685  0  1.018405  0  0  0.102984  0.114099  0  1.021156  0
H  H4  1  0.57070984  0.86434486  0.63043406  1  0  0.097502  0  0.944095  0  0  0.11054  0  1.002563  0  0  0.11354  0  1.001371  0  0  0.099837  0.107897  0  1.00439  0
H  H5  1  0.42929046  0.13565709  0.36956108  1  0  0.097526  0  0.944112  0  0  0.110571  0  1.002564  0  0  0.113572  0  1.00137  0  0  0.099857  0.107928  0  1.004393  0
H  H6  1  0.76357434  0.17508589  0.69520662  1  0  0.111827  0  0.976445  0  0  0.118141  0  1.046986  0  0  0.12117  0  1.045519  0  0  0.093019  0.115005  0  1.049712  0
H  H7  1  0.23642396  0.82491492  0.30479371  1  0  0.111799  0  0.976478  0  0  0.118114  0  1.047015  0  0  0.121151  0  1.045521  0  0  0.093003  0.114978  0  1.049742  0
H  H8  1  0.57711041  0.19190169  0.93880309  1  0  0.085913  0  0.943887  0  0  0.09834  0  1.012268  0  0  0.098954  0  1.012861  0  0  0.11096  0.098062  0  1.011625  0
H  H9  1  0.42288998  0.80809806  0.06119557  1  0  0.085914  0  0.943881  0  0  0.098339  0  1.012272  0  0  0.098954  0  1.012866  0  0  0.110965  0.098061  0  1.011629  0
H  H10  1  0.61164084  0.32898136  0.77188952  1  0  0.098609  0  0.933885  0  0  0.11002  0  1.00062  0  0  0.111134  0  0.999819  0  0  0.106989  0.109316  0  1.001138  0
H  H11  1  0.38835962  0.67101622  0.22811091  1  0  0.098588  0  0.933911  0  0  0.110007  0  1.000632  0  0  0.11112  0  0.999834  0  0  0.106983  0.109302  0  1.00115  0
H  H12  1  0.36791659  0.41036960  0.65161445  1  0  0.101136  0  0.937107  0  0  0.11028  0  0.999944  0  0  0.113214  0  0.99624  0  0  0.126564  0.107568  0  1.003652  0
H  H13  1  0.63208482  0.58963230  0.34838665  1  0  0.101142  0  0.937082  0  0  0.110266  0  0.999945  0  0  0.113215  0  0.996225  0  0  0.126557  0.107553  0  1.003655  0
H  H14  1  0.08844755  0.31577655  0.00776933  1  0  0.088991  0  0.996014  0  0  0.096849  0  1.062533  0  0  0.098372  0  1.063352  0  0  0.106841  0.095627  0  1.062146  0
H  H15  1  0.91155387  0.68422427  0.99223134  1  0  0.089023  0  0.995978  0  0  0.096875  0  1.0625  0  0  0.098398  0  1.06332  0  0  0.106858  0.095635  0  1.062132  0
H  H16  1  0.34762436  0.19658057  0.07280159  1  0  0.106311  0  0.991221  0  0  0.111213  0  1.062599  0  0  0.113015  0  1.063652  0  0  0.11205  0.109967  0  1.061695  0
H  H17  1  0.65237699  0.80342243  0.92719731  1  0  0.106271  0  0.991248  0  0  0.111191  0  1.062613  0  0  0.112978  0  1.063682  0  0  0.112033  0.109947  0  1.061707  0
H  H18  1  0.22520090  0.95222578  0.74572349  1  0  0.094218  0  0.968435  0  0  0.105719  0  1.038762  0  0  0.107327  0  1.03747  0  0  0.102927  0.104185  0  1.039984  0
H  H19  1  0.77479942  0.04777720  0.25427559  1  0  0.094215  0  0.968446  0  0  0.105715  0  1.038775  0  0  0.107322  0  1.037486  0  0  0.102943  0.104182  0  1.039996  0
H  H20  1  0.32770078  0.82344235  0.70198567  1  0  0.083639  0  0.914208  0  0  0.100625  0  0.971259  0  0  0.101818  0  0.970376  0  0  0.113428  0.099697  0  0.972033  0
H  H21  1  0.67229544  0.17655845  0.29801414  1  0  0.083662  0  0.914167  0  0  0.100631  0  0.971246  0  0  0.101825  0  0.970363  0  0  0.113439  0.099703  0  0.972021  0
H  H22  1  0.11035173  0.86961484  0.98581411  1  0  0.104204  0  0.945883  0  0  0.10756  0  1.019053  0  0  0.110824  0  1.015026  0  0  0.126823  0.104892  0  1.022122  0
H  H23  1  0.88965080  0.13038488  0.01418946  1  0  0.104222  0  0.945833  0  0  0.107573  0  1.019002  0  0  0.110844  0  1.014975  0  0  0.126827  0.104903  0  1.022078  0
H  H24  1  0.26923103  0.44121579  0.16257455  1  0  0.099346  0  0.960415  0  0  0.108669  0  1.02099  0  0  0.110897  0  1.020426  0  0  0.112476  0.106854  0  1.021811  0
H  H25  1  0.73076932  0.55878506  0.83742279  1  0  0.099348  0  0.960414  0  0  0.108682  0  1.020973  0  0  0.110912  0  1.020406  0  0  0.11247  0.106867  0  1.021795  0
H  H26  1  0.40923877  0.58538370  0.90185483  1  0  0.115092  0  0.948193  0  0  0.127631  0  1.004612  0  0  0.130417  0  1.003502  0  0  0.121201  0.125575  0  1.00556  0
H  H27  1  0.59076052  0.41461715  0.09814093  1  0  0.115031  0  0.948255  0  0  0.127584  0  1.004673  0  0  0.13037  0  1.003563  0  0  0.121178  0.125526  0  1.00562  0
H  H28  1  0.79419695  0.01692516  0.47444328  1  0  0.081892  0  0.936534  0  0  0.096236  0  1.002099  0  0  0.09669  0  1.002208  0  0  0.11312  0.095936  0  1.001934  0
H  H29  1  0.20580136  0.98307458  0.52555574  1  0  0.081865  0  0.936567  0  0  0.096184  0  1.002168  0  0  0.096641  0  1.002283  0  0  0.113099  0.095883  0  1.002003  0
H  H30  1  0.88303012  0.09355107  0.54862997  1  0  0.099356  0  0.932334  0  0  0.110736  0  0.997378  0  0  0.111842  0  0.997073  0  0  0.115677  0.109695  0  0.997872  0
H  H31  1  0.11697035  0.90644651  0.45137133  1  0  0.099359  0  0.932293  0  0  0.110777  0  0.997304  0  0  0.111888  0  0.997001  0  0  0.115684  0.109736  0  0.9978  0
H  H32  1  0.84493445  0.75660601  0.52276290  1  0  0.097065  0  0.972989  0  0  0.099966  0  1.048474  0  0  0.103266  0  1.044138  0  0  0.116603  0.09766  0  1.051313  0
H  H33  1  0.15506189  0.24339045  0.47723956  1  0  0.097056  0  0.972981  0  0  0.099963  0  1.048469  0  0  0.103263  0  1.044133  0  0  0.116579  0.097656  0  1.051307  0
H  H34  1  0.09450095  0.62660682  0.82269354  1  0  0.103152  0  0.965948  0  0  0.110718  0  1.029795  0  0  0.113419  0  1.02877  0  0  0.111397  0.10895  0  1.030352  0
H  H35  1  0.90549732  0.37339507  0.17730635  1  0  0.103131  0  0.965939  0  0  0.110711  0  1.02977  0  0  0.113412  0  1.028746  0  0  0.111395  0.108943  0  1.030328  0
H  H36  1  0.98362536  0.90683436  0.76727294  1  0  0.118264  0  0.996817  0  0  0.124539  0  1.064811  0  0  0.127877  0  1.062676  0  0  0.106033  0.123107  0  1.064798  0
H  H37  1  0.01636988  0.09316426  0.23272794  1  0  0.118274  0  0.996764  0  0  0.124543  0  1.064776  0  0  0.127879  0  1.062645  0  0  0.106037  0.12311  0  1.064764  0
C  C38  1  0.54955230  0.12842875  0.78894242  1  0  0.087757  0  3.740741  0  0  0.110953  0  3.978081  0  0  0.110421  0  4.00256  0  0  -0.008323  0.111695  0  3.961137  0
C  C39  1  0.45044808  0.87157207  0.21105755  1  0  0.087725  0  3.740668  0  0  0.11092  0  3.978013  0  0  0.110386  0  4.002496  0  0  -0.008337  0.111663  0  3.961068  0
C  C40  1  0.43430392  0.04836077  0.80886146  1  0  -0.166432  0  3.702713  0  0  -0.198484  0  3.952416  0  0  -0.201331  0  3.972975  0  0  -0.09376  -0.196123  0  3.938684  0
C  C41  1  0.56569866  0.95163680  0.19114211  1  0  -0.166392  0  3.702795  0  0  -0.198485  0  3.952487  0  0  -0.201332  0  3.973043  0  0  -0.093746  -0.196123  0  3.938752  0
C  C42  1  0.44166805  0.95217678  0.75302427  1  0  0.074324  0  3.785645  0  0  0.096579  0  4.030169  0  0  0.096041  0  4.054524  0  0  -0.018752  0.096366  0  4.014006  0
C  C43  1  0.55833127  0.04782405  0.24697413  1  0  0.074315  0  3.785705  0  0  0.096594  0  4.030209  0  0  0.09606  0  4.054558  0  0  -0.018767  0.096381  0  4.014045  0
C  C44  1  0.56555839  0.93652706  0.67690440  1  0  -0.185714  0  3.742788  0  0  -0.215882  0  3.990778  0  0  -0.219385  0  4.012062  0  0  -0.100062  -0.213479  0  3.977497  0
C  C45  1  0.43444203  0.06347161  0.32309470  1  0  -0.185776  0  3.74286  0  0  -0.215949  0  3.99084  0  0  -0.21945  0  4.012122  0  0  -0.100106  -0.213545  0  3.97756  0
C  C46  1  0.68187297  0.01617467  0.65676428  1  0  0.082185  0  3.772446  0  0  0.104404  0  4.011634  0  0  0.103778  0  4.03605  0  0  -0.014928  0.10417  0  3.995253  0
C  C47  1  0.31812635  0.98382616  0.34323412  1  0  0.082218  0  3.77235  0  0  0.104426  0  4.011558  0  0  0.103805  0  4.035986  0  0  -0.014903  0.104193  0  3.995176  0
C  C48  1  0.67357775  0.11108666  0.71335428  1  0  -0.1552  0  3.687079  0  0  -0.182229  0  3.923793  0  0  -0.185494  0  3.944944  0  0  -0.087647  -0.179394  0  3.90969  0
C  C49  1  0.32642060  0.88891199  0.28664606  1  0  -0.15515  0  3.686948  0  0  -0.182166  0  3.923642  0  0  -0.185428  0  3.944804  0  0  -0.087609  -0.17933  0  3.909541  0
C  C50  1  0.54227464  0.23944460  0.84109827  1  0  -0.044492  0  3.640459  0  0  -0.107718  0  3.881123  0  0  -0.10371  0  3.892038  0  0  -0.046549  -0.110579  0  3.873743  0
C  C51  1  0.45772578  0.76055514  0.15890302  1  0  -0.04443  0  3.640445  0  0  -0.107661  0  3.881111  0  0  -0.103656  0  3.89203  0  0  -0.046542  -0.110523  0  3.873731  0
C  C52  1  0.32632231  0.37251172  0.75686251  1  0  0.156325  0  3.661219  0  0  0.095899  0  3.927267  0  0  0.109193  0  3.939543  0  0  0.133574  0.087182  0  3.918641  0
C  C53  1  0.67368007  0.62749235  0.24313753  1  0  0.156394  0  3.661147  0  0  0.095983  0  3.927195  0  0  0.10926  0  3.939467  0  0  0.133617  0.087264  0  3.918569  0
C  C54  1  0.18505867  0.31830123  0.94308292  1  0  -0.00725  0  3.788268  0  0  -0.042963  0  4.058433  0  0  -0.041614  0  4.079536  0  0  -0.013805  -0.044302  0  4.044768  0
C  C55  1  0.81494272  0.68170068  0.05691643  1  0  -0.007302  0  3.788266  0  0  -0.043009  0  4.058432  0  0  -0.041658  0  4.079533  0  0  -0.013826  -0.044335  0  4.044785  0
C  C56  1  0.31237181  0.25932451  0.97723133  1  0  -0.079156  0  3.69137  0  0  -0.116263  0  3.950717  0  0  -0.11488  0  3.970352  0  0  -0.008499  -0.117203  0  3.937304  0
C  C57  1  0.68762958  0.74067740  0.02276889  1  0  -0.07905  0  3.691394  0  0  -0.116177  0  3.950726  0  0  -0.114784  0  3.970374  0  0  -0.008485  -0.117119  0  3.937311  0
C  C58  1  0.31292246  0.87408120  0.76941475  1  0  -0.054562  0  3.662172  0  0  -0.122089  0  3.909901  0  0  -0.117902  0  3.920166  0  0  -0.051493  -0.124709  0  3.903455  0
C  C59  1  0.68707593  0.12591636  0.23058691  1  0  -0.054547  0  3.66216  0  0  -0.122086  0  3.909919  0  0  -0.117901  0  3.920182  0  0  -0.051512  -0.124704  0  3.903469  0
C  C60  1  0.17176732  0.77145720  0.00105948  1  0  0.150781  0  3.64513  0  0  0.09591  0  3.907995  0  0  0.108699  0  3.920942  0  0  0.137924  0.087492  0  3.899047  0
C  C61  1  0.82823410  0.22854362  0.99894119  1  0  0.150762  0  3.645125  0  0  0.095893  0  3.907995  0  0  0.108672  0  3.920948  0  0  0.137908  0.087473  0  3.899048  0
C  C62  1  0.25801464  0.55219367  0.08766030  1  0  -0.001356  0  3.781566  0  0  -0.034025  0  4.052374  0  0  -0.031625  0  4.072075  0  0  -0.007095  -0.03581  0  4.039259  0
C  C63  1  0.74198364  0.44780716  0.91233740  1  0  -0.001416  0  3.781601  0  0  -0.034096  0  4.052419  0  0  -0.031696  0  4.072117  0  0  -0.007114  -0.035881  0  4.039305  0
C  C64  1  0.32837082  0.62166667  0.95948090  1  0  -0.085725  0  3.698784  0  0  -0.126992  0  3.96156  0  0  -0.125693  0  3.979984  0  0  -0.008542  -0.12785  0  3.949081  0
C  C65  1  0.67162645  0.37833306  0.04051830  1  0  -0.085619  0  3.698778  0  0  -0.126902  0  3.961552  0  0  -0.125607  0  3.97998  0  0  -0.008531  -0.127759  0  3.949073  0
C  C66  1  0.81462687  0.00595416  0.56985673  1  0  -0.042469  0  3.644303  0  0  -0.107086  0  3.887442  0  0  -0.10243  0  3.897817  0  0  -0.046874  -0.109954  0  3.880374  0
C  C67  1  0.18537252  0.99404450  0.43014343  1  0  -0.042424  0  3.644232  0  0  -0.107063  0  3.887392  0  0  -0.102436  0  3.897816  0  0  -0.046859  -0.109931  0  3.880328  0
C  C68  1  0.89578707  0.75604756  0.59971918  1  0  0.141003  0  3.678371  0  0  0.081715  0  3.947302  0  0  0.094789  0  3.959607  0  0  0.129731  0.073564  0  3.937979  0
C  C69  1  0.10420922  0.24395105  0.40028327  1  0  0.140939  0  3.678373  0  0  0.081649  0  3.947287  0  0  0.094725  0  3.959584  0  0  0.129713  0.073495  0  3.937969  0
C  C70  1  0.02516506  0.69512361  0.75344230  1  0  -0.010313  0  3.754849  0  0  -0.04285  0  4.02359  0  0  -0.04034  0  4.041685  0  0  -0.011202  -0.043924  0  4.01023  0
C  C71  1  0.97483231  0.30487393  0.24656041  1  0  -0.010278  0  3.754878  0  0  -0.042821  0  4.023621  0  0  -0.040311  0  4.041717  0  0  -0.011219  -0.043895  0  4.010261  0
C  C72  1  0.97152838  0.83127281  0.72878389  1  0  -0.078825  0  3.674289  0  0  -0.116143  0  3.93303  0  0  -0.114836  0  3.951141  0  0  -0.008402  -0.116972  0  3.919891  0
C  C73  1  0.02847199  0.16872802  0.27121521  1  0  -0.078871  0  3.674244  0  0  -0.11619  0  3.932982  0  0  -0.114886  0  3.951095  0  0  -0.008418  -0.11702  0  3.919845  0
N  N74  1  0.40138544  0.29570534  0.85773229  1  0  -0.069044  0  3.59458  0  0  0.025674  0  3.810047  0  0  0.011008  0  3.835844  0  0  -0.247541  0.03557  0  3.792564  0
N  N75  1  0.59861606  0.70429224  0.14226883  1  0  -0.069208  0  3.594572  0  0  0.025514  0  3.810029  0  0  0.010854  0  3.835823  0  0  -0.24756  0.035411  0  3.792547  0
N  N76  1  0.19511404  0.38813613  0.80588223  1  0  -0.371845  0  3.24674  0  0  -0.302339  0  3.525555  0  0  -0.321137  0  3.543858  0  0  -0.35716  -0.289566  0  3.512627  0
N  N77  1  0.80488953  0.61186146  0.19411853  1  0  -0.371872  0  3.246696  0  0  -0.302363  0  3.525494  0  0  -0.321158  0  3.543794  0  0  -0.357196  -0.28959  0  3.512561  0
N  N78  1  0.27204215  0.76051422  0.90541881  1  0  -0.065903  0  3.579246  0  0  0.030383  0  3.795555  0  0  0.015427  0  3.822475  0  0  -0.246791  0.040283  0  3.777456  0
N  N79  1  0.72795617  0.23948551  0.09458109  1  0  -0.065976  0  3.579268  0  0  0.030317  0  3.795584  0  0  0.015367  0  3.822502  0  0  -0.246799  0.040218  0  3.777484  0
N  N80  1  0.16100829  0.64641057  0.11224530  1  0  -0.365844  0  3.22193  0  0  -0.297443  0  3.49744  0  0  -0.316561  0  3.516444  0  0  -0.350553  -0.284532  0  3.483976  0
N  N81  1  0.83899313  0.35359025  0.88775537  1  0  -0.365807  0  3.221999  0  0  -0.297383  0  3.497471  0  0  -0.316503  0  3.51648  0  0  -0.35051  -0.284473  0  3.484011  0
N  N82  1  0.89028864  0.86839218  0.63077498  1  0  -0.063054  0  3.578324  0  0  0.03161  0  3.795426  0  0  0.016741  0  3.821867  0  0  -0.248693  0.041216  0  3.777621  0
N  N83  1  0.10970872  0.13160536  0.36922773  1  0  -0.063014  0  3.578146  0  0  0.031662  0  3.79523  0  0  0.016803  0  3.821676  0  0  -0.248664  0.041267  0  3.777426  0
N  N84  1  0.97711242  0.64991975  0.67263116  1  0  -0.36902  0  3.275089  0  0  -0.298054  0  3.553007  0  0  -0.317536  0  3.571781  0  0  -0.357929  -0.283382  0  3.537539  0
N  N85  1  0.02288692  0.35008107  0.32736899  1  0  -0.36899  0  3.27511  0  0  -0.298032  0  3.553035  0  0  -0.317513  0  3.571812  0  0  -0.357907  -0.283359  0  3.537564  0
Cl  Cl86  1  0.80508302  0.48202603  0.54221171  1  0  -0.602327  0  0.902936  0  0  -0.543158  0  1.163713  0  0  -0.56005  0  1.142878  0  0  -0.335121  -0.531806  0  1.179021  0
Cl  Cl87  1  0.19491847  0.51797263  0.45778984  1  0  -0.602329  0  0.90295  0  0  -0.543167  0  1.163742  0  0  -0.560058  0  1.142897  0  0  -0.33513  -0.531817  0  1.179051  0
Cl  Cl88  1  0.04469401  0.14217785  0.74830912  1  0  -0.644272  0  0.796795  0  0  -0.589061  0  1.041571  0  0  -0.604877  0  1.023464  0  0  -0.364248  -0.575172  0  1.053483  0
Cl  Cl89  1  0.95530548  0.85781967  0.25169762  1  0  -0.644273  0  0.796791  0  0  -0.589057  0  1.041568  0  0  -0.604874  0  1.023461  0  0  -0.36425  -0.57517  0  1.053483  0
