# generated using pymatgen
data_NaZnH24C15S2N3O2
_symmetry_space_group_name_H-M   'P 1'
_cell_length_a   7.69816733
_cell_length_b   9.29074829
_cell_length_c   15.13247105
_cell_angle_alpha   75.44306809
_cell_angle_beta   77.03056907
_cell_angle_gamma   78.54689476
_symmetry_Int_Tables_number   1
_chemical_formula_structural   NaZnH24C15S2N3O2
_chemical_formula_sum   'Na2 Zn2 H48 C30 S4 N6 O4'
_cell_volume   1009.17278211
_cell_formula_units_Z   2
loop_
 _symmetry_equiv_pos_site_id
 _symmetry_equiv_pos_as_xyz
  1  'x, y, z'
loop_
 _atom_site_type_symbol
 _atom_site_label
 _atom_site_symmetry_multiplicity
 _atom_site_fract_x
 _atom_site_fract_y
 _atom_site_fract_z
 _atom_site_occupancy
 _atom_site_pbe_bader_spin_density
 _atom_site_pbe_cm5_charge
 _atom_site_pbe_ddec_charge
 _atom_site_pbe_ddec_spin_density
 _atom_site_pbe_ddec_sum_bond_order
 _atom_site_pbe_magmom
Na  Na0  1  0.81444677  0.01935677  0.07427254  1  0  0.631669  0.806917  0  0.624899  0
Na  Na1  1  0.18556051  0.98064007  0.92572810  1  0  0.63167  0.806908  0  0.624896  0
Zn  Zn2  1  0.41644275  0.01239253  0.26906093  1  0  0.538657  0.468156  0  2.776069  0
Zn  Zn3  1  0.58356607  0.98760318  0.73093971  1  0  0.538693  0.468137  0  2.776  0
H  H4  1  0.41992151  0.56112144  0.26657418  1  0  0.085631  0.075578  0  1.033162  0
H  H5  1  0.58008633  0.43886527  0.73342530  1  0  0.085671  0.075612  0  1.033318  0
H  H6  1  0.46633606  0.63177354  0.35606609  1  0  0.101697  0.088836  0  0.980325  0
H  H7  1  0.53368108  0.36821319  0.64393697  1  0  0.101702  0.088875  0  0.980405  0
H  H8  1  0.08530064  0.77906807  0.20827004  1  0  0.100617  0.086104  0  1.036821  0
H  H9  1  0.91471046  0.22092993  0.79172405  1  0  0.100587  0.086067  0  1.036861  0
H  H10  1  0.30389822  0.75437875  0.14155220  1  0  0.115587  0.114734  0  1.003051  0
H  H11  1  0.69610811  0.24560910  0.85844397  1  0  0.115496  0.1146  0  1.003187  0
H  H12  1  0.08405986  0.27202027  0.11575307  1  0  0.098964  0.069493  0  0.998561  0
H  H13  1  0.91595234  0.72797883  0.88424601  1  0  0.099013  0.069565  0  0.998571  0
H  H14  1  0.31963693  0.26422494  0.07389644  1  0  0.097697  0.074266  0  1.009552  0
H  H15  1  0.68037285  0.73577306  0.92609581  1  0  0.097647  0.074192  0  1.009822  0
H  H16  1  0.11716071  0.31648144  0.26506085  1  0  0.082118  0.084354  0  1.010849  0
H  H17  1  0.88285736  0.68350755  0.73494110  1  0  0.082125  0.084346  0  1.010848  0
H  H18  1  0.22185783  0.44851122  0.17266877  1  0  0.084502  0.083793  0  1.023241  0
H  H19  1  0.77816239  0.55147326  0.82733561  1  0  0.084502  0.08382  0  1.023182  0
H  H20  1  0.13586970  0.65311153  0.38919399  1  0  0.101653  0.085043  0  0.968564  0
H  H21  1  0.86414756  0.34688197  0.61080207  1  0  0.101629  0.085088  0  0.968409  0
H  H22  1  0.03157699  0.83479132  0.34258072  1  0  0.111758  0.104826  0  1.006416  0
H  H23  1  0.96839506  0.16520878  0.65741811  1  0  0.111817  0.104847  0  1.006558  0
H  H24  1  0.07160022  0.67631855  0.55097315  1  0  0.106756  0.112375  0  1.001778  0
H  H25  1  0.92837507  0.32369282  0.44902293  1  0  0.106738  0.112316  0  1.001643  0
H  H26  1  0.11905489  0.80322148  0.67012649  1  0  0.11218  0.111158  0  0.985362  0
H  H27  1  0.88089503  0.19680442  0.32987221  1  0  0.112221  0.111206  0  0.985183  0
H  H28  1  0.26788703  0.03651607  0.61544891  1  0  0.091132  0.108071  0  1.070197  0
H  H29  1  0.73207271  0.96348504  0.38456965  1  0  0.091197  0.108148  0  1.070219  0
H  H30  1  0.36845926  0.12730765  0.44325515  1  0  0.104836  0.071969  0  1.036055  0
H  H31  1  0.63151919  0.87269356  0.55675269  1  0  0.104799  0.071923  0  1.035913  0
H  H32  1  0.73912370  0.46039994  0.23642109  1  0  0.081107  0.11561  0  1.033188  0
H  H33  1  0.26088788  0.53960255  0.76357490  1  0  0.081142  0.115631  0  1.033147  0
H  H34  1  0.77905388  0.53861299  0.32514650  1  0  0.079773  0.114133  0  1.017  0
H  H35  1  0.22095264  0.46139510  0.67485317  1  0  0.079769  0.114102  0  1.017025  0
H  H36  1  0.90823538  0.57929632  0.21098666  1  0  0.082701  0.11465  0  1.03032  0
H  H37  1  0.09176491  0.42070950  0.78901141  1  0  0.082679  0.114624  0  1.030274  0
H  H38  1  0.58972536  0.63778049  0.10123766  1  0  0.088111  0.122698  0  1.021134  0
H  H39  1  0.41028470  0.36222313  0.89875635  1  0  0.088107  0.122667  0  1.021157  0
H  H40  1  0.77709842  0.73328457  0.08106394  1  0  0.090559  0.112098  0  1.035243  0
H  H41  1  0.22290137  0.26671675  0.91893620  1  0  0.090568  0.112105  0  1.035205  0
H  H42  1  0.55534768  0.83511610  0.09366353  1  0  0.093019  0.118333  0  1.025119  0
H  H43  1  0.44466585  0.16488301  0.90633408  1  0  0.093011  0.118317  0  1.025026  0
H  H44  1  0.59801177  0.27326683  0.12242090  1  0  0.240314  0.265684  0  1.114262  0
H  H45  1  0.40199776  0.72673226  0.87757848  1  0  0.24033  0.265705  0  1.114217  0
H  H46  1  0.66545087  0.48777631  0.99327621  1  0  0.087726  0.080386  0  1.025595  0
H  H47  1  0.33455386  0.51222729  0.00671773  1  0  0.087712  0.080384  0  1.025646  0
H  H48  1  0.85765801  0.36009494  0.95517675  1  0  0.097569  0.084841  0  1.014971  0
H  H49  1  0.14234489  0.63990415  0.04481876  1  0  0.097573  0.084827  0  1.014984  0
H  H50  1  0.83572115  0.41311737  0.06300612  1  0  0.088516  0.077413  0  1.018708  0
H  H51  1  0.16428069  0.58688733  0.93699063  1  0  0.088509  0.077381  0  1.018743  0
C  C52  1  0.63341740  0.69849349  0.22414634  1  0  -0.008507  0.273485  0  3.761213  0
C  C53  1  0.36659664  0.30151013  0.77585053  1  0  -0.008575  0.273484  0  3.760963  0
C  C54  1  0.44974072  0.66247411  0.28299073  1  0  -0.073358  -0.128046  0  3.850691  0
C  C55  1  0.55025780  0.33753394  0.71701117  1  0  -0.073341  -0.12805  0  3.850849  0
C  C56  1  0.21854201  0.81658930  0.19237493  1  0  -0.067955  -0.20654  0  3.899895  0
C  C57  1  0.78147192  0.18340755  0.80762628  1  0  -0.067841  -0.206335  0  3.899953  0
C  C58  1  0.18954281  0.98287247  0.14364673  1  0  0.211456  0.494375  0  4.175746  0
C  C59  1  0.81045434  0.01712885  0.85634975  1  0  0.211419  0.494295  0  4.175868  0
C  C60  1  0.21698288  0.23821129  0.13704610  1  0  -0.078027  -0.009032  0  3.974431  0
C  C61  1  0.78303680  0.76178334  0.86295414  1  0  -0.07799  -0.008932  0  3.97469  0
C  C62  1  0.23097189  0.32852509  0.20630401  1  0  -0.165792  -0.140992  0  3.954028  0
C  C63  1  0.76905238  0.67146615  0.79370284  1  0  -0.165794  -0.141083  0  3.954079  0
C  C64  1  0.16010220  0.77090926  0.36084250  1  0  -0.057823  -0.144043  0  3.930076  0
C  C65  1  0.83987972  0.22908745  0.63916961  1  0  -0.057954  -0.144307  0  3.930389  0
C  C66  1  0.19917776  0.83367638  0.43608323  1  0  0.120748  0.228274  0  3.946965  0
C  C67  1  0.80085711  0.16630816  0.56392015  1  0  0.120639  0.228123  0  3.947205  0
C  C68  1  0.13910795  0.77556131  0.53020214  1  0  -0.08484  -0.182788  0  3.962214  0
C  C69  1  0.86085273  0.22443537  0.46979981  1  0  -0.084792  -0.182774  0  3.962262  0
C  C70  1  0.16407916  0.84693469  0.59622964  1  0  -0.062449  -0.005618  0  3.94447  0
C  C71  1  0.83590481  0.15305870  0.40376755  1  0  -0.062474  -0.005513  0  3.943873  0
C  C72  1  0.24629276  0.97607612  0.56649475  1  0  -0.08846  -0.131471  0  3.962355  0
C  C73  1  0.75363082  0.02394067  0.43351359  1  0  -0.088588  -0.131664  0  3.962532  0
C  C74  1  0.30336535  0.02689769  0.47171387  1  0  0.04584  0.094283  0  3.948602  0
C  C75  1  0.69662789  0.97311708  0.52829288  1  0  0.045924  0.094269  0  3.949151  0
C  C76  1  0.77362299  0.56073007  0.25092165  1  0  -0.247928  -0.409855  0  3.905579  0
C  C77  1  0.22638808  0.43926790  0.74907839  1  0  -0.247913  -0.409841  0  3.905619  0
C  C78  1  0.63815561  0.72854684  0.11933288  1  0  -0.248559  -0.437087  0  3.931156  0
C  C79  1  0.36184796  0.27145560  0.88066732  1  0  -0.248544  -0.437029  0  3.930863  0
C  C80  1  0.76056409  0.38670784  0.01641235  1  0  -0.152604  -0.108501  0  3.986029  0
C  C81  1  0.23943683  0.61329461  0.98358485  1  0  -0.152597  -0.108479  0  3.986023  0
S  S82  1  0.69480801  0.86216364  0.25225884  1  0  -0.302583  -0.573431  0  2.437276  0
S  S83  1  0.30520685  0.13783548  0.74773928  1  0  -0.302569  -0.57339  0  2.437141  0
S  S84  1  0.44157065  0.27009201  0.25196512  1  0  -0.254315  -0.44607  0  2.406243  0
S  S85  1  0.55844413  0.72990035  0.74803470  1  0  -0.25432  -0.446053  0  2.406114  0
N  N86  1  0.29735750  0.78552974  0.27620480  1  0  -0.333235  -0.066889  0  3.50477  0
N  N87  1  0.70263270  0.21447263  0.72380485  1  0  -0.33312  -0.066772  0  3.505034  0
N  N88  1  0.24477705  0.07824527  0.17827499  1  0  -0.407723  -0.401739  0  3.515587  0
N  N89  1  0.75524048  0.92175385  0.82172282  1  0  -0.40772  -0.40166  0  3.515761  0
N  N90  1  0.28255718  0.95622594  0.40835556  1  0  -0.323953  -0.232842  0  3.53359  0
N  N91  1  0.71741544  0.04378542  0.59164082  1  0  -0.323959  -0.232667  0  3.533919  0
O  O92  1  0.11126173  0.01533764  0.07322286  1  0  -0.511576  -0.706941  0  2.208743  0
O  O93  1  0.88873835  0.98466931  0.92677507  1  0  -0.511553  -0.706979  0  2.208562  0
O  O94  1  0.67071611  0.25995974  0.05938648  1  0  -0.503214  -0.510034  0  2.423724  0
O  O95  1  0.32928573  0.74004497  0.94061027  1  0  -0.503241  -0.510049  0  2.4236  0
