# generated using pymatgen
data_Cd3H38C30S2(N3O5)4
_symmetry_space_group_name_H-M   'P 1'
_cell_length_a   9.21590761
_cell_length_b   9.57002377
_cell_length_c   13.66264710
_cell_angle_alpha   84.98438961
_cell_angle_beta   83.42975672
_cell_angle_gamma   68.28220098
_symmetry_Int_Tables_number   1
_chemical_formula_structural   Cd3H38C30S2(N3O5)4
_chemical_formula_sum   'Cd3 H38 C30 S2 N12 O20'
_cell_volume   1110.78337604
_cell_formula_units_Z   1
loop_
 _symmetry_equiv_pos_site_id
 _symmetry_equiv_pos_as_xyz
  1  'x, y, z'
loop_
 _atom_site_type_symbol
 _atom_site_label
 _atom_site_symmetry_multiplicity
 _atom_site_fract_x
 _atom_site_fract_y
 _atom_site_fract_z
 _atom_site_occupancy
 _atom_site_hle17_bader_spin_density
 _atom_site_hle17_ddec_charge
 _atom_site_hle17_ddec_spin_density
 _atom_site_hle17_ddec_sum_bond_order
 _atom_site_hle17_magmom
 _atom_site_hse06_10hf_bader_spin_density
 _atom_site_hse06_10hf_ddec_charge
 _atom_site_hse06_10hf_ddec_spin_density
 _atom_site_hse06_10hf_ddec_sum_bond_order
 _atom_site_hse06_10hf_magmom
 _atom_site_hse06_bader_spin_density
 _atom_site_hse06_ddec_charge
 _atom_site_hse06_ddec_spin_density
 _atom_site_hse06_ddec_sum_bond_order
 _atom_site_hse06_magmom
 _atom_site_pbe_bader_spin_density
 _atom_site_pbe_cm5_charge
 _atom_site_pbe_ddec_charge
 _atom_site_pbe_ddec_spin_density
 _atom_site_pbe_ddec_sum_bond_order
 _atom_site_pbe_magmom
Cd  Cd0  1  0.00000320  0.99999869  0.99999816  1  0  1.206736  0  1.644751  0  0  1.029887  0  2.0943  0  0  1.079407  0  2.041163  0  0  0.777316  0.993927  0  2.131783  0
Cd  Cd1  1  0.52224913  0.18848137  0.50272646  1  0  1.192207  0  1.610493  0  0  1.009906  0  2.047887  0  0  1.067883  0  1.992296  0  0  0.776383  0.964904  0  2.08851  0
Cd  Cd2  1  0.47774340  0.81152457  0.49727473  1  0  1.192195  0  1.610444  0  0  1.009911  0  2.04782  0  0  1.067885  0  1.992235  0  0  0.776356  0.96491  0  2.088448  0
H  H3  1  0.19528158  0.09327958  0.16063680  1  0  0.09654  0  0.928912  0  0  0.10982  0  0.98324  0  0  0.110959  0  0.982418  0  0  0.136366  0.108896  0  0.984077  0
H  H4  1  0.80472478  0.90672414  0.83935604  1  0  0.096568  0  0.928782  0  0  0.109786  0  0.983176  0  0  0.110923  0  0.982356  0  0  0.136333  0.10886  0  0.98402  0
H  H5  1  0.42534950  0.76528824  0.95169937  1  0  0.12319  0  0.935444  0  0  0.132642  0  0.999051  0  0  0.135705  0  0.994934  0  0  0.144449  0.130453  0  1.001845  0
H  H6  1  0.57465921  0.23469867  0.04830325  1  0  0.123218  0  0.935334  0  0  0.132664  0  0.998931  0  0  0.135727  0  0.994816  0  0  0.144451  0.130473  0  1.001731  0
H  H7  1  0.73474106  0.82566195  0.07056937  1  0  0.075846  0  0.944437  0  0  0.088144  0  1.013874  0  0  0.088644  0  1.013725  0  0  0.110352  0.087467  0  1.014456  0
H  H8  1  0.26526762  0.17432495  0.92943179  1  0  0.075858  0  0.944333  0  0  0.088192  0  1.013743  0  0  0.088704  0  1.013581  0  0  0.110391  0.087517  0  1.014325  0
H  H9  1  0.70243045  0.69846415  0.99676490  1  0  0.097574  0  0.957128  0  0  0.109224  0  1.023216  0  0  0.110569  0  1.022873  0  0  0.116129  0.10824  0  1.023401  0
H  H10  1  0.29757474  0.30152609  0.00323632  1  0  0.097584  0  0.957129  0  0  0.109249  0  1.02324  0  0  0.110593  0  1.022898  0  0  0.116102  0.108261  0  1.023431  0
H  H11  1  0.82965744  0.56711867  0.14488919  1  0  0.099158  0  0.950974  0  0  0.114605  0  1.013799  0  0  0.115439  0  1.014596  0  0  0.099326  0.113903  0  1.013308  0
H  H12  1  0.17034083  0.43287267  0.85511547  1  0  0.099197  0  0.950946  0  0  0.114634  0  1.013757  0  0  0.115475  0  1.014558  0  0  0.099354  0.113931  0  1.013266  0
H  H13  1  0.67403624  0.68714078  0.22419369  1  0  0.092  0  0.941157  0  0  0.106273  0  1.005275  0  0  0.107738  0  1.004827  0  0  0.096177  0.105246  0  1.005531  0
H  H14  1  0.32595979  0.31285046  0.77580678  1  0  0.092018  0  0.941094  0  0  0.106254  0  1.005247  0  0  0.107724  0  1.004803  0  0  0.096164  0.105223  0  1.005502  0
H  H15  1  0.48328748  0.59471004  0.15981175  1  0  0.097315  0  0.952162  0  0  0.108022  0  1.019731  0  0  0.109148  0  1.019735  0  0  0.118232  0.107068  0  1.019738  0
H  H16  1  0.51671327  0.40528004  0.84018255  1  0  0.097303  0  0.952125  0  0  0.108032  0  1.019669  0  0  0.109157  0  1.019671  0  0  0.118217  0.107078  0  1.019684  0
H  H17  1  0.63529260  0.47703733  0.07930271  1  0  0.086261  0  0.913002  0  0  0.101223  0  0.977452  0  0  0.102161  0  0.976415  0  0  0.115457  0.100321  0  0.978306  0
H  H18  1  0.36471409  0.52295177  0.92069627  1  0  0.086214  0  0.913021  0  0  0.10117  0  0.977495  0  0  0.102094  0  0.976474  0  0  0.115431  0.100282  0  0.97834  0
H  H19  1  0.43398722  0.48527629  0.32761617  1  0  0.132036  0  0.929233  0  0  0.141611  0  0.990088  0  0  0.144241  0  0.986884  0  0  0.151101  0.13957  0  0.992574  0
H  H20  1  0.56600987  0.51472061  0.67238307  1  0  0.132  0  0.929256  0  0  0.141566  0  0.990138  0  0  0.144197  0  0.986934  0  0  0.151092  0.139518  0  0.992633  0
H  H21  1  0.84943508  0.10104042  0.32705294  1  0  0.112449  0  0.917313  0  0  0.123026  0  0.975912  0  0  0.125593  0  0.972657  0  0  0.143094  0.121062  0  0.978308  0
H  H22  1  0.15056406  0.89896002  0.67295393  1  0  0.112402  0  0.917425  0  0  0.123002  0  0.975996  0  0  0.125573  0  0.972741  0  0  0.143084  0.12104  0  0.978395  0
H  H23  1  0.67130093  0.77005251  0.72896168  1  0  0.118011  0  0.942822  0  0  0.123573  0  1.010569  0  0  0.12787  0  1.007025  0  0  0.110215  0.120567  0  1.012872  0
H  H24  1  0.32869365  0.22995128  0.27104607  1  0  0.117989  0  0.943011  0  0  0.123561  0  1.010717  0  0  0.127827  0  1.007209  0  0  0.110224  0.120575  0  1.012997  0
H  H25  1  0.07542860  0.35635444  0.71870692  1  0  0.097687  0  0.962626  0  0  0.10591  0  1.030208  0  0  0.110068  0  1.025916  0  0  0.108408  0.102898  0  1.033249  0
H  H26  1  0.92456929  0.64365148  0.28128869  1  0  0.097621  0  0.96266  0  0  0.105828  0  1.030242  0  0  0.109978  0  1.025964  0  0  0.108377  0.102818  0  1.03329  0
H  H27  1  0.04621915  0.71314281  0.49935950  1  0  0.103636  0  0.952558  0  0  0.114137  0  1.015666  0  0  0.118012  0  1.012191  0  0  0.110518  0.111292  0  1.018415  0
H  H28  1  0.95376706  0.28687667  0.50064493  1  0  0.103694  0  0.952491  0  0  0.114147  0  1.015652  0  0  0.11804  0  1.012152  0  0  0.1105  0.111294  0  1.018411  0
H  H29  1  0.70348252  0.35379956  0.55633504  1  0  0.42239  0  0.886433  0  0  0.388476  0  0.95651  0  0  0.399988  0  0.939814  0  0  0.281741  0.380084  0  0.968624  0
H  H30  1  0.29651142  0.64621081  0.44365913  1  0  0.422376  0  0.886439  0  0  0.388521  0  0.956419  0  0  0.400032  0  0.939714  0  0  0.281769  0.380146  0  0.968528  0
H  H31  1  0.77819335  0.17529566  0.57522337  1  0  0.420977  0  0.855125  0  0  0.398062  0  0.916342  0  0  0.407219  0  0.902957  0  0  0.298579  0.391702  0  0.925591  0
H  H32  1  0.22180101  0.82471357  0.42476938  1  0  0.421086  0  0.854996  0  0  0.398132  0  0.916265  0  0  0.407285  0  0.902887  0  0  0.298625  0.391773  0  0.925518  0
H  H33  1  0.94352985  0.32072964  0.00576767  1  0  0.434182  0  0.8657  0  0  0.401252  0  0.932065  0  0  0.412134  0  0.916294  0  0  0.288333  0.393551  0  0.943202  0
H  H34  1  0.05647815  0.67926743  0.99423283  1  0  0.434252  0  0.865636  0  0  0.401357  0  0.93197  0  0  0.412241  0  0.916193  0  0  0.288365  0.393654  0  0.943113  0
H  H35  1  0.90255133  0.25993891  0.11619285  1  0  0.38875  0  0.932948  0  0  0.346188  0  1.016335  0  0  0.35749  0  1.000271  0  0  0.280187  0.338157  0  1.027743  0
H  H36  1  0.09745535  0.74005585  0.88380646  1  0  0.388739  0  0.93295  0  0  0.346179  0  1.016344  0  0  0.357481  0  1.00028  0  0  0.280192  0.338148  0  1.027753  0
H  H37  1  0.86752156  0.89511942  0.19294118  1  0  0.422348  0  0.824899  0  0  0.408839  0  0.873388  0  0  0.416344  0  0.865262  0  0  0.321316  0.40316  0  0.879845  0
H  H38  1  0.13248791  0.10487647  0.80705562  1  0  0.422522  0  0.824476  0  0  0.408821  0  0.873285  0  0  0.416318  0  0.865178  0  0  0.321385  0.403148  0  0.879722  0
H  H39  1  0.05300849  0.81511279  0.17837023  1  0  0.433091  0  0.86942  0  0  0.399079  0  0.937531  0  0  0.410115  0  0.921576  0  0  0.28784  0.391192  0  0.948963  0
H  H40  1  0.94700010  0.18488535  0.82162575  1  0  0.433066  0  0.869454  0  0  0.399049  0  0.937579  0  0  0.410086  0  0.921621  0  0  0.287813  0.391161  0  0.949012  0
C  C41  1  0.28497363  0.00423661  0.12004148  1  0  0.214678  0  3.703313  0  0  0.16385  0  3.988377  0  0  0.175066  0  4.002911  0  0  0.145645  0.156524  0  3.978353  0
C  C42  1  0.71503344  0.99576264  0.87995528  1  0  0.214862  0  3.703079  0  0  0.164097  0  3.988126  0  0  0.175318  0  4.002656  0  0  0.145764  0.156771  0  3.978105  0
C  C43  1  0.39596186  0.83985666  0.01233546  1  0  0.177968  0  3.628226  0  0  0.095279  0  3.900924  0  0  0.110736  0  3.910771  0  0  0.163065  0.085629  0  3.893403  0
C  C44  1  0.60404203  0.16013697  0.98766636  1  0  0.178075  0  3.627986  0  0  0.095416  0  3.900696  0  0  0.11087  0  3.910543  0  0  0.163106  0.085771  0  3.893178  0
C  C45  1  0.66922133  0.75128828  0.06797467  1  0  -0.011322  0  3.614569  0  0  -0.083437  0  3.866903  0  0  -0.080139  0  3.878476  0  0  -0.051704  -0.085181  0  3.858705  0
C  C46  1  0.33078476  0.24869973  0.93202809  1  0  -0.011271  0  3.614421  0  0  -0.083521  0  3.866939  0  0  -0.080221  0  3.878513  0  0  -0.051705  -0.085267  0  3.858735  0
C  C47  1  0.70319089  0.63289989  0.15307623  1  0  -0.159668  0  3.662859  0  0  -0.206318  0  3.932902  0  0  -0.209065  0  3.946397  0  0  -0.166424  -0.20387  0  3.922788  0
C  C48  1  0.29680799  0.36709256  0.84692611  1  0  -0.159772  0  3.662771  0  0  -0.206315  0  3.932776  0  0  -0.209081  0  3.946279  0  0  -0.166421  -0.203859  0  3.922659  0
C  C49  1  0.60986538  0.53142763  0.15008911  1  0  -0.015436  0  3.621553  0  0  -0.092152  0  3.882541  0  0  -0.088572  0  3.893527  0  0  -0.051862  -0.094128  0  3.874663  0
C  C50  1  0.39013778  0.46856478  0.84990701  1  0  -0.015352  0  3.621497  0  0  -0.092133  0  3.882563  0  0  -0.088534  0  3.89356  0  0  -0.051876  -0.094129  0  3.8747  0
C  C51  1  0.54871991  0.40168657  0.30849937  1  0  0.204323  0  3.596035  0  0  0.121827  0  3.86115  0  0  0.136897  0  3.872717  0  0  0.176821  0.112151  0  3.852468  0
C  C52  1  0.45127827  0.59831036  0.69150051  1  0  0.204441  0  3.59615  0  0  0.121939  0  3.861278  0  0  0.137004  0  3.872853  0  0  0.176865  0.112273  0  3.852591  0
C  C53  1  0.76095043  0.20771309  0.30584354  1  0  0.219446  0  3.689954  0  0  0.159881  0  3.974958  0  0  0.172263  0  3.989468  0  0  0.156455  0.151848  0  3.964586  0
C  C54  1  0.23904847  0.79228505  0.69416132  1  0  0.219601  0  3.68979  0  0  0.159997  0  3.974806  0  0  0.172377  0  3.989312  0  0  0.156599  0.151972  0  3.96443  0
C  C55  1  0.85066705  0.75573214  0.60888460  1  0  -0.060342  0  3.746447  0  0  -0.032338  0  3.982933  0  0  -0.042307  0  4.006065  0  0  -0.015376  -0.025979  0  3.967595  0
C  C56  1  0.14932114  0.24427944  0.39111949  1  0  -0.060537  0  3.746764  0  0  -0.032555  0  3.983217  0  0  -0.042536  0  4.006366  0  0  -0.015478  -0.026198  0  3.967871  0
C  C57  1  0.78568864  0.70170547  0.69483752  1  0  -0.057251  0  3.695724  0  0  -0.097791  0  3.949215  0  0  -0.093368  0  3.966196  0  0  -0.074135  -0.099802  0  3.93716  0
C  C58  1  0.21430611  0.29830054  0.30516713  1  0  -0.057229  0  3.695921  0  0  -0.097718  0  3.949481  0  0  -0.093264  0  3.966482  0  0  -0.074122  -0.099742  0  3.937394  0
C  C59  1  0.86887274  0.55947004  0.73533443  1  0  -0.117297  0  3.748102  0  0  -0.089256  0  4.001973  0  0  -0.097806  0  4.023202  0  0  -0.018725  -0.08444  0  3.988208  0
C  C60  1  0.13112328  0.44053255  0.26466743  1  0  -0.117018  0  3.747791  0  0  -0.089194  0  4.001943  0  0  -0.097754  0  4.023186  0  0  -0.018664  -0.084381  0  3.98818  0
C  C61  1  0.01294057  0.46993108  0.69004374  1  0  -0.041427  0  3.703956  0  0  -0.083811  0  3.957716  0  0  -0.078469  0  3.973669  0  0  -0.071409  -0.086619  0  3.947064  0
C  C62  1  0.98705473  0.53007597  0.30995420  1  0  -0.041536  0  3.70387  0  0  -0.083814  0  3.957667  0  0  -0.078467  0  3.97362  0  0  -0.071424  -0.086632  0  3.947028  0
C  C63  1  0.08004120  0.52508530  0.60610663  1  0  -0.067423  0  3.753956  0  0  -0.041121  0  3.994796  0  0  -0.051136  0  4.01827  0  0  -0.017557  -0.035129  0  3.979702  0
C  C64  1  0.91995148  0.47492851  0.39389107  1  0  -0.067232  0  3.753729  0  0  -0.040948  0  3.994548  0  0  -0.050961  0  4.018019  0  0  -0.017521  -0.034957  0  3.979458  0
C  C65  1  0.99845827  0.66907097  0.56614632  1  0  -0.051571  0  3.678726  0  0  -0.092569  0  3.929402  0  0  -0.088451  0  3.947183  0  0  -0.070192  -0.095458  0  3.918268  0
C  C66  1  0.00153273  0.33094177  0.43385672  1  0  -0.051612  0  3.678508  0  0  -0.092557  0  3.929186  0  0  -0.088447  0  3.946963  0  0  -0.070177  -0.095447  0  3.918052  0
C  C67  1  0.76033246  0.90499825  0.56111718  1  0  0.64844  0  3.919808  0  0  0.597752  0  4.206855  0  0  0.631741  0  4.202158  0  0  0.200182  0.574433  0  4.209524  0
C  C68  1  0.23965577  0.09501338  0.43888984  1  0  0.648324  0  3.920032  0  0  0.597709  0  4.206959  0  0  0.631701  0  4.202265  0  0  0.200148  0.574408  0  4.209602  0
C  C69  1  0.23648654  0.42718729  0.56008696  1  0  0.6379  0  3.934237  0  0  0.585116  0  4.22909  0  0  0.61883  0  4.225612  0  0  0.199217  0.562414  0  4.22992  0
C  C70  1  0.76350479  0.57282986  0.43990842  1  0  0.637691  0  3.93447  0  0  0.584907  0  4.229325  0  0  0.618626  0  4.225837  0  0  0.199063  0.562203  0  4.230163  0
S  S71  1  0.79292668  0.48565029  0.84509424  1  0  1.277921  0  5.682588  0  0  1.177164  0  6.206754  0  0  1.224531  0  6.183625  0  0  0.506194  1.144335  0  6.22214  0
S  S72  1  0.20707936  0.51434334  0.15490521  1  0  1.277745  0  5.682881  0  0  1.177003  0  6.207101  0  0  1.224367  0  6.183982  0  0  0.50612  1.144183  0  6.222472  0
N  N73  1  0.25568876  0.94041131  0.04218423  1  0  -0.444929  0  3.205851  0  0  -0.37093  0  3.501067  0  0  -0.394206  0  3.515219  0  0  -0.353339  -0.354511  0  3.490631  0
N  N74  1  0.74431748  0.05958458  0.95781503  1  0  -0.445106  0  3.205818  0  0  -0.371122  0  3.501036  0  0  -0.394397  0  3.515183  0  0  -0.353373  -0.354708  0  3.490609  0
N  N75  1  0.50298884  0.84517997  0.06963415  1  0  0.043306  0  3.550135  0  0  0.166971  0  3.732592  0  0  0.155919  0  3.758177  0  0  -0.133837  0.172739  0  3.717987  0
N  N76  1  0.49701568  0.15481479  0.93036681  1  0  0.043331  0  3.550139  0  0  0.166978  0  3.732657  0  0  0.155931  0  3.758234  0  0  -0.133846  0.172748  0  3.718045  0
N  N77  1  0.43405692  0.94925151  0.13920606  1  0  -0.272437  0  2.817047  0  0  -0.275705  0  3.077346  0  0  -0.283444  0  3.090554  0  0  -0.228127  -0.26996  0  3.068685  0
N  N78  1  0.56594757  0.05074888  0.86079304  1  0  -0.272614  0  2.81707  0  0  -0.275871  0  3.077365  0  0  -0.283611  0  3.09057  0  0  -0.2282  -0.270123  0  3.068698  0
N  N79  1  0.64228110  0.41314522  0.22827122  1  0  0.056803  0  3.542212  0  0  0.177348  0  3.724829  0  0  0.168688  0  3.746013  0  0  -0.127825  0.182718  0  3.710384  0
N  N80  1  0.35771623  0.58684829  0.77172824  1  0  0.05671  0  3.542234  0  0  0.177297  0  3.724817  0  0  0.168637  0  3.745996  0  0  -0.127867  0.182667  0  3.710377  0
N  N81  1  0.77808685  0.29042347  0.22520619  1  0  -0.278953  0  2.94357  0  0  -0.252436  0  3.192549  0  0  -0.265013  0  3.207951  0  0  -0.206977  -0.243667  0  3.182011  0
N  N82  1  0.22191420  0.70956898  0.77479523  1  0  -0.278913  0  2.943502  0  0  -0.252339  0  3.19242  0  0  -0.264914  0  3.207818  0  0  -0.206956  -0.243574  0  3.181882  0
N  N83  1  0.62051233  0.27250344  0.35917869  1  0  -0.429378  0  3.223327  0  0  -0.352059  0  3.524825  0  0  -0.377202  0  3.538711  0  0  -0.346731  -0.334592  0  3.513837  0
N  N84  1  0.37948611  0.72749580  0.64082394  1  0  -0.429498  0  3.223326  0  0  -0.352216  0  3.524885  0  0  -0.377358  0  3.538773  0  0  -0.346815  -0.334754  0  3.513896  0
O  O85  1  0.60825855  0.94931180  0.57533680  1  0  -0.691211  0  2.040229  0  0  -0.607738  0  2.295388  0  0  -0.640459  0  2.282097  0  0  -0.340586  -0.583487  0  2.304913  0
O  O86  1  0.39173033  0.05069529  0.42466901  1  0  -0.691045  0  2.040413  0  0  -0.607599  0  2.295547  0  0  -0.640315  0  2.282247  0  0  -0.340507  -0.583362  0  2.305086  0
O  O87  1  0.83109892  0.98053377  0.51125792  1  0  -0.617124  0  1.916871  0  0  -0.567348  0  2.134288  0  0  -0.591476  0  2.124613  0  0  -0.319739  -0.550097  0  2.140107  0
O  O88  1  0.16888882  0.01947325  0.48874433  1  0  -0.617073  0  1.916794  0  0  -0.567317  0  2.134171  0  0  -0.591446  0  2.124501  0  0  -0.319729  -0.550079  0  2.139989  0
O  O89  1  0.30364102  0.47692521  0.48661820  1  0  -0.651981  0  2.00259  0  0  -0.590709  0  2.236434  0  0  -0.618836  0  2.229561  0  0  -0.317622  -0.570003  0  2.239525  0
O  O90  1  0.69634658  0.52309300  0.51337522  1  0  -0.651905  0  2.002622  0  0  -0.590596  0  2.236493  0  0  -0.61873  0  2.229621  0  0  -0.317523  -0.569885  0  2.23957  0
O  O91  1  0.29660245  0.29318963  0.59813392  1  0  -0.635372  0  1.970737  0  0  -0.567125  0  2.210728  0  0  -0.596855  0  2.200749  0  0  -0.330127  -0.54557  0  2.217927  0
O  O92  1  0.70339479  0.70682650  0.40186395  1  0  -0.63533  0  1.970799  0  0  -0.567107  0  2.210803  0  0  -0.596834  0  2.200821  0  0  -0.330107  -0.545549  0  2.218006  0
O  O93  1  0.78719791  0.34115646  0.81849628  1  0  -0.678098  0  1.974638  0  0  -0.622534  0  2.216495  0  0  -0.644071  0  2.202766  0  0  -0.34407  -0.607189  0  2.225712  0
O  O94  1  0.21281808  0.65883382  0.18149815  1  0  -0.678049  0  1.974784  0  0  -0.62251  0  2.216656  0  0  -0.644059  0  2.202955  0  0  -0.344095  -0.607174  0  2.225875  0
O  O95  1  0.90713380  0.46344281  0.91790589  1  0  -0.663862  0  1.973622  0  0  -0.600001  0  2.207654  0  0  -0.621062  0  2.193767  0  0  -0.336118  -0.585023  0  2.216598  0
O  O96  1  0.09287416  0.53655422  0.08209242  1  0  -0.663867  0  1.973766  0  0  -0.599959  0  2.20776  0  0  -0.621013  0  2.19387  0  0  -0.336066  -0.584989  0  2.216705  0
O  O97  1  0.63787101  0.59707884  0.87227212  1  0  -0.6667  0  1.976964  0  0  -0.623884  0  2.237205  0  0  -0.644708  0  2.225112  0  0  -0.342476  -0.609533  0  2.245157  0
O  O98  1  0.36213184  0.40290349  0.12773205  1  0  -0.666684  0  1.977017  0  0  -0.623804  0  2.237212  0  0  -0.64463  0  2.225125  0  0  -0.342457  -0.609451  0  2.245148  0
O  O99  1  0.68463602  0.26443199  0.59118263  1  0  -0.825869  0  1.827838  0  0  -0.768901  0  2.010146  0  0  -0.790321  0  1.97741  0  0  -0.590786  -0.753772  0  2.033446  0
O  O100  1  0.31536056  0.73557731  0.40881285  1  0  -0.825946  0  1.827739  0  0  -0.768995  0  2.009991  0  0  -0.790403  0  1.977273  0  0  -0.590869  -0.753893  0  2.033225  0
O  O101  1  0.97008250  0.23153721  0.05313341  1  0  -0.86016  0  1.907538  0  0  -0.795976  0  2.122959  0  0  -0.818593  0  2.088173  0  0  -0.596407  -0.779885  0  2.147204  0
O  O102  1  0.02992419  0.76845757  0.94686663  1  0  -0.860258  0  1.907541  0  0  -0.796123  0  2.122843  0  0  -0.818734  0  2.088041  0  0  -0.596471  -0.780027  0  2.147092  0
O  O103  1  0.96288838  0.91338942  0.16944415  1  0  -0.832009  0  1.81223  0  0  -0.776046  0  1.994896  0  0  -0.796166  0  1.967109  0  0  -0.578253  -0.761615  0  2.015093  0
O  O104  1  0.03712002  0.08660648  0.83055419  1  0  -0.83218  0  1.811836  0  0  -0.775988  0  1.994786  0  0  -0.796135  0  1.967052  0  0  -0.578314  -0.761566  0  2.014975  0
