# generated using pymatgen
data_ZnSiH24C24(N2F)6
_symmetry_space_group_name_H-M   'P 1'
_cell_length_a   7.80613131
_cell_length_b   13.85726518
_cell_length_c   13.85719068
_cell_angle_alpha   89.99992553
_cell_angle_beta   89.99961791
_cell_angle_gamma   90.00034381
_symmetry_Int_Tables_number   1
_chemical_formula_structural   ZnSiH24C24(N2F)6
_chemical_formula_sum   'Zn1 Si1 H24 C24 N12 F6'
_cell_volume   1498.95492498
_cell_formula_units_Z   1
loop_
 _symmetry_equiv_pos_site_id
 _symmetry_equiv_pos_as_xyz
  1  'x, y, z'
loop_
 _atom_site_type_symbol
 _atom_site_label
 _atom_site_symmetry_multiplicity
 _atom_site_fract_x
 _atom_site_fract_y
 _atom_site_fract_z
 _atom_site_occupancy
 _atom_site_pbe_bader_charge
 _atom_site_pbe_bader_spin_density
 _atom_site_pbe_cm5_charge
 _atom_site_pbe_ddec_charge
 _atom_site_pbe_ddec_spin_density
 _atom_site_pbe_ddec_sum_bond_order
 _atom_site_pbe_magmom
Zn  Zn0  1  0.50009381  0.50000322  0.50001133  1  1.365268  0  0.721818  0.761149  0  2.333974  0
Si  Si1  1  0.00005866  0.49998433  0.50000578  1  3.185712  0  0.264224  1.72276  0  3.93179  0
H  H2  1  0.24740069  0.65825188  0.54830865  1  0.150274  0  0.111183  0.112108  0  1.052939  0
H  H3  1  0.75267715  0.65830476  0.45167916  1  0.151398  0  0.111165  0.112083  0  1.052672  0
H  H4  1  0.24742135  0.34174072  0.45165868  1  0.150455  0  0.111149  0.112004  0  1.053013  0
H  H5  1  0.75264544  0.34169460  0.54837934  1  0.151197  0  0.111104  0.11202  0  1.052857  0
H  H6  1  0.24743610  0.45169229  0.65827841  1  0.149857  0  0.111189  0.112102  0  1.05323  0
H  H7  1  0.75265359  0.54832838  0.65832501  1  0.151336  0  0.11115  0.112144  0  1.053041  0
H  H8  1  0.24745000  0.54832917  0.34171851  1  0.149933  0  0.111229  0.112125  0  1.053206  0
H  H9  1  0.75261393  0.45163418  0.34169307  1  0.15057  0  0.111204  0.112151  0  1.053195  0
H  H10  1  0.79067828  0.91857697  0.43019765  1  0.435141  0  0.299248  0.291671  0  0.967085  0
H  H11  1  0.89425659  0.80969059  0.42152766  1  0.475621  0  0.314798  0.316845  0  0.926564  0
H  H12  1  0.20923580  0.91851239  0.56980858  1  0.436278  0  0.299267  0.291666  0  0.967107  0
H  H13  1  0.10572807  0.80960183  0.57847655  1  0.476262  0  0.314889  0.316968  0  0.926739  0
H  H14  1  0.79062562  0.08141819  0.56988091  1  0.434443  0  0.299434  0.291922  0  0.966994  0
H  H15  1  0.89421908  0.19031070  0.57854979  1  0.474624  0  0.314574  0.316656  0  0.92679  0
H  H16  1  0.20926547  0.08148296  0.43015239  1  0.435524  0  0.299313  0.291727  0  0.96694  0
H  H17  1  0.10576285  0.19039967  0.42147905  1  0.474608  0  0.314937  0.317119  0  0.926437  0
H  H18  1  0.79068767  0.56980076  0.91858475  1  0.434971  0  0.299289  0.291719  0  0.966986  0
H  H19  1  0.89424669  0.57847588  0.80969884  1  0.475658  0  0.314843  0.316807  0  0.926643  0
H  H20  1  0.20925935  0.43017699  0.91852605  1  0.435875  0  0.299333  0.29181  0  0.966875  0
H  H21  1  0.10576437  0.42152078  0.80962034  1  0.474861  0  0.31479  0.316764  0  0.926896  0
H  H22  1  0.79066235  0.43010419  0.08144185  1  0.43443  0  0.299449  0.292047  0  0.966832  0
H  H23  1  0.89421616  0.42144602  0.19033314  1  0.474615  0  0.314751  0.316965  0  0.926597  0
H  H24  1  0.20929829  0.56983063  0.08147967  1  0.435738  0  0.299395  0.291916  0  0.967036  0
H  H25  1  0.10580981  0.57850670  0.19038866  1  0.474712  0  0.314839  0.316902  0  0.926801  0
C  C26  1  0.35828184  0.70099500  0.52676364  1  0.527406  0  0.012261  -0.081177  0  3.943247  0
C  C27  1  0.35070115  0.80199544  0.52623823  1  0.35817  0  0.101888  0.241072  0  4.108323  0
C  C28  1  0.49997655  0.85434370  0.50000749  1  0.209105  0  -0.025879  -0.079312  0  4.099217  0
C  C29  1  0.64927830  0.80203134  0.47375589  1  0.35715  0  0.101953  0.24117  0  4.108084  0
C  C30  1  0.64177725  0.70102655  0.47322411  1  0.526216  0  0.012512  -0.081015  0  3.942947  0
C  C31  1  0.49995147  0.95574611  0.50001247  1  -0.133601  0  -0.054917  -0.105129  0  4.194915  0
C  C32  1  0.49994791  0.04424085  0.50002101  1  -0.367621  0  -0.054879  -0.105307  0  4.194992  0
C  C33  1  0.49995742  0.14564903  0.50003249  1  0.210154  0  -0.025791  -0.079452  0  4.099665  0
C  C34  1  0.35070466  0.19799679  0.47376118  1  0.357528  0  0.101898  0.241219  0  4.108568  0
C  C35  1  0.35828514  0.29899653  0.47322924  1  0.527399  0  0.012283  -0.081022  0  3.943202  0
C  C36  1  0.64174918  0.29896883  0.52682470  1  0.526115  0  0.012488  -0.080973  0  3.943208  0
C  C37  1  0.64925429  0.19796551  0.52629579  1  0.356991  0  0.101701  0.241155  0  4.108723  0
C  C38  1  0.35827833  0.47322556  0.70100185  1  0.5271  0  0.012393  -0.081024  0  3.944806  0
C  C39  1  0.35068883  0.47374795  0.80197904  1  0.354466  0  0.101805  0.241137  0  4.109441  0
C  C40  1  0.49999694  0.49999145  0.85429742  1  0.217038  0  -0.025338  -0.078715  0  4.098047  0
C  C41  1  0.64933128  0.52625016  0.80200947  1  0.353272  0  0.101853  0.241163  0  4.109038  0
C  C42  1  0.64179293  0.52678639  0.70103014  1  0.526075  0  0.01244  -0.081316  0  3.94438  0
C  C43  1  0.49997585  0.49998488  0.95574006  1  -0.366825  0  -0.055244  -0.106028  0  4.193201  0
C  C44  1  0.49996837  0.49996816  0.04426816  1  -0.132732  0  -0.055115  -0.105675  0  4.192852  0
C  C45  1  0.49998058  0.49995582  0.14571152  1  0.217011  0  -0.025521  -0.078845  0  4.098015  0
C  C46  1  0.35069392  0.52624427  0.19802903  1  0.354806  0  0.101741  0.24093  0  4.10975  0
C  C47  1  0.35828352  0.52676741  0.29900186  1  0.526993  0  0.012313  -0.081035  0  3.945036  0
C  C48  1  0.64176553  0.47317435  0.29898404  1  0.526502  0  0.012447  -0.081099  0  3.94494  0
C  C49  1  0.64931019  0.47369689  0.19800612  1  0.353513  0  0.101673  0.240969  0  4.109502  0
N  N50  1  0.50004082  0.65352341  0.49999319  1  -1.235329  0  -0.323681  -0.181438  0  3.661444  0
N  N51  1  0.50003278  0.34647437  0.50002009  1  -1.234837  0  -0.323656  -0.181563  0  3.661279  0
N  N52  1  0.50004423  0.50001034  0.65356987  1  -1.23489  0  -0.323794  -0.181404  0  3.661986  0
N  N53  1  0.50003834  0.49998239  0.34643835  1  -1.23493  0  -0.32378  -0.181486  0  3.662172  0
N  N54  1  0.80010242  0.84918738  0.45295193  1  -1.251149  0  -0.589384  -0.612646  0  3.349973  0
N  N55  1  0.19985319  0.84912280  0.54704934  1  -1.252962  0  -0.58947  -0.612741  0  3.35057  0
N  N56  1  0.80005589  0.15080709  0.54713237  1  -1.24959  0  -0.589097  -0.612596  0  3.350276  0
N  N57  1  0.19987181  0.15087036  0.45291383  1  -1.250786  0  -0.58949  -0.612906  0  3.350183  0
N  N58  1  0.80011131  0.54705247  0.84919261  1  -1.251245  0  -0.589557  -0.612655  0  3.350182  0
N  N59  1  0.19988776  0.45293404  0.84913248  1  -1.251649  0  -0.589388  -0.612608  0  3.350445  0
N  N60  1  0.80007390  0.45285252  0.15082818  1  -1.249746  0  -0.589281  -0.612931  0  3.350205  0
N  N61  1  0.19990386  0.54707283  0.15086678  1  -1.251418  0  -0.589418  -0.61276  0  3.350573  0
F  F62  1  0.22307310  0.49999698  0.49999959  1  -0.835816  0  -0.190362  -0.494856  0  1.339761  0
F  F63  1  0.77708121  0.49998565  0.50001224  1  -0.836031  0  -0.190067  -0.494608  0  1.340251  0
F  F64  1  0.00007501  0.58739558  0.41256881  1  -0.832707  0  -0.247275  -0.543628  0  1.082398  0
F  F65  1  0.00009612  0.41258319  0.58743843  1  -0.832985  0  -0.247288  -0.543678  0  1.082574  0
F  F66  1  0.00009577  0.58742289  0.58741161  1  -0.832699  0  -0.247231  -0.543665  0  1.082463  0
F  F67  1  0.00008305  0.41254867  0.41260429  1  -0.832821  0  -0.24731  -0.543677  0  1.082502  0
