# generated using pymatgen
data_HoH18C20N4Cl3
_symmetry_space_group_name_H-M   'P 1'
_cell_length_a   12.68315903
_cell_length_b   14.24487563
_cell_length_c   14.75591386
_cell_angle_alpha   90.00005514
_cell_angle_beta   90.00001447
_cell_angle_gamma   90.00003023
_symmetry_Int_Tables_number   1
_chemical_formula_structural   HoH18C20N4Cl3
_chemical_formula_sum   'Ho4 H72 C80 N16 Cl12'
_cell_volume   2665.95129435
_cell_formula_units_Z   4
loop_
 _symmetry_equiv_pos_site_id
 _symmetry_equiv_pos_as_xyz
  1  'x, y, z'
loop_
 _atom_site_type_symbol
 _atom_site_label
 _atom_site_symmetry_multiplicity
 _atom_site_fract_x
 _atom_site_fract_y
 _atom_site_fract_z
 _atom_site_occupancy
 _atom_site_pbe_bader_charge
 _atom_site_pbe_bader_spin_density
 _atom_site_pbe_cm5_charge
 _atom_site_pbe_ddec_charge
 _atom_site_pbe_ddec_spin_density
 _atom_site_pbe_ddec_sum_bond_order
 _atom_site_pbe_magmom
Ho  Ho0  1  0.16557404  0.33296838  0.36478747  1  2.021575  0  1.185136  1.629178  0  2.517689  0
Ho  Ho1  1  0.33442726  0.66703125  0.86478853  1  2.021568  0  1.185131  1.62915  0  2.517735  0
Ho  Ho2  1  0.66557328  0.16703177  0.63521191  1  2.021576  0  1.185123  1.629103  0  2.517786  0
Ho  Ho3  1  0.83442724  0.83296928  0.13521271  1  2.021701  0  1.185123  1.629123  0  2.517786  0
H  H4  1  0.08469535  0.89929215  0.64191797  1  0.086532  0  0.109934  0.117781  0  0.998296  0
H  H5  1  0.41530510  0.10070796  0.14191811  1  0.086558  0  0.109937  0.117781  0  0.998279  0
H  H6  1  0.58469683  0.60070756  0.35808321  1  0.086545  0  0.109933  0.117793  0  0.998277  0
H  H7  1  0.91530376  0.39929160  0.85808336  1  0.086542  0  0.109936  0.117769  0  0.998283  0
H  H8  1  0.12810407  0.77038059  0.74928911  1  0.127031  0  0.104961  0.078937  0  1.042535  0
H  H9  1  0.37189405  0.22961892  0.24928867  1  0.12704  0  0.104966  0.078911  0  1.042567  0
H  H10  1  0.62810560  0.72961984  0.25071277  1  0.127048  0  0.104991  0.078926  0  1.042553  0
H  H11  1  0.87189417  0.27038062  0.75071211  1  0.127045  0  0.10498  0.078907  0  1.042574  0
H  H12  1  0.40714581  0.99571007  0.67237160  1  0.126837  0  0.10065  0.119761  0  1.050387  0
H  H13  1  0.09285387  0.00429007  0.17237158  1  0.126963  0  0.100649  0.119759  0  1.050386  0
H  H14  1  0.90714722  0.50429049  0.32762830  1  0.12696  0  0.100651  0.119747  0  1.050388  0
H  H15  1  0.59285336  0.49571004  0.82762779  1  0.126964  0  0.100647  0.119761  0  1.050368  0
H  H16  1  0.31981325  0.32472765  0.55308487  1  0.103849  0  0.104028  0.076868  0  1.040463  0
H  H17  1  0.18018797  0.67527167  0.05308481  1  0.103869  0  0.104035  0.076901  0  1.040437  0
H  H18  1  0.81981165  0.17527186  0.44691590  1  0.103878  0  0.104046  0.076904  0  1.040442  0
H  H19  1  0.68018818  0.82472808  0.94691639  1  0.103869  0  0.104051  0.07691  0  1.040435  0
H  H20  1  0.32297022  0.36330090  0.71753353  1  0.11655  0  0.101112  0.122183  0  1.009001  0
H  H21  1  0.17702946  0.63669788  0.21753276  1  0.116566  0  0.101112  0.122211  0  1.008975  0
H  H22  1  0.82297092  0.13669932  0.28246656  1  0.11655  0  0.101104  0.12218  0  1.008978  0
H  H23  1  0.67703044  0.86330117  0.78246709  1  0.11657  0  0.101116  0.122209  0  1.008953  0
H  H24  1  0.30944197  0.36363338  0.17392843  1  0.092999  0  0.108971  0.06944  0  1.029744  0
H  H25  1  0.19055849  0.63636676  0.67392808  1  0.093016  0  0.108943  0.069363  0  1.029832  0
H  H26  1  0.80944204  0.13636613  0.82607301  1  0.093004  0  0.108992  0.069465  0  1.029769  0
H  H27  1  0.69055855  0.86363370  0.32607245  1  0.093015  0  0.108938  0.069319  0  1.029866  0
H  H28  1  0.03397826  0.18794925  0.50751864  1  0.127677  0  0.105559  0.080555  0  1.041548  0
H  H29  1  0.46602136  0.81205003  0.00751877  1  0.127669  0  0.105581  0.080577  0  1.041512  0
H  H30  1  0.53397833  0.31205083  0.49248139  1  0.127682  0  0.105568  0.080565  0  1.041544  0
H  H31  1  0.96602151  0.68794916  0.99248182  1  0.127683  0  0.105573  0.080591  0  1.041514  0
H  H32  1  0.34519645  0.17003547  0.42288209  1  0.084759  0  0.111757  0.07415  0  1.02893  0
H  H33  1  0.15480409  0.82996352  0.92288259  1  0.084707  0  0.111756  0.074149  0  1.028952  0
H  H34  1  0.84519656  0.32996405  0.57711801  1  0.0847  0  0.111754  0.074147  0  1.028926  0
H  H35  1  0.65480395  0.67003623  0.07711794  1  0.084705  0  0.11176  0.07414  0  1.028952  0
H  H36  1  0.16290288  0.43477502  0.78862505  1  0.113817  0  0.102342  0.097442  0  1.02283  0
H  H37  1  0.33709683  0.56522594  0.28862559  1  0.113808  0  0.102338  0.097447  0  1.022807  0
H  H38  1  0.66290351  0.06522582  0.21137434  1  0.113812  0  0.102344  0.097432  0  1.022835  0
H  H39  1  0.83709704  0.93477530  0.71137565  1  0.113835  0  0.102351  0.097447  0  1.022785  0
H  H40  1  0.98778008  0.39302939  0.21208272  1  0.079576  0  0.108015  0.075216  0  1.033955  0
H  H41  1  0.51222046  0.60697032  0.71208162  1  0.079569  0  0.108021  0.075239  0  1.03394  0
H  H42  1  0.48777926  0.10697090  0.78791538  1  0.079532  0  0.107981  0.075169  0  1.033974  0
H  H43  1  0.01222124  0.89303076  0.28791752  1  0.079522  0  0.108004  0.075225  0  1.033935  0
H  H44  1  0.38076327  0.03691679  0.52843836  1  0.078482  0  0.107862  0.11542  0  1.028695  0
H  H45  1  0.11923636  0.96308251  0.02843855  1  0.078488  0  0.107871  0.11545  0  1.028614  0
H  H46  1  0.88076422  0.46308276  0.47156175  1  0.078471  0  0.107867  0.115427  0  1.028655  0
H  H47  1  0.61923641  0.53691722  0.97156129  1  0.07848  0  0.107871  0.115433  0  1.028629  0
H  H48  1  0.05682980  0.05998400  0.61761817  1  0.100807  0  0.098085  0.117439  0  1.034009  0
H  H49  1  0.44317064  0.94001539  0.11761773  1  0.100811  0  0.098083  0.11746  0  1.033963  0
H  H50  1  0.55682992  0.44001540  0.38238255  1  0.100816  0  0.098084  0.117459  0  1.033963  0
H  H51  1  0.94317068  0.55998449  0.88238285  1  0.100817  0  0.098085  0.117458  0  1.033987  0
H  H52  1  0.01293468  0.41923664  0.52603268  1  0.076377  0  0.107092  0.06363  0  1.063312  0
H  H53  1  0.48706574  0.58076266  0.02603327  1  0.076361  0  0.107137  0.063677  0  1.063384  0
H  H54  1  0.51293461  0.08076203  0.47396735  1  0.076364  0  0.107116  0.063665  0  1.063362  0
H  H55  1  0.98706602  0.91923654  0.97396800  1  0.07635  0  0.107125  0.06365  0  1.063377  0
H  H56  1  0.00157792  0.46041223  0.69065957  1  0.068338  0  0.102133  0.105431  0  1.004947  0
H  H57  1  0.49842254  0.53958864  0.19066081  1  0.06832  0  0.102121  0.105402  0  1.004948  0
H  H58  1  0.50157778  0.03958854  0.30933978  1  0.068323  0  0.102114  0.105407  0  1.004976  0
H  H59  1  0.99842201  0.96041197  0.80934114  1  0.068336  0  0.102121  0.105414  0  1.004973  0
H  H60  1  0.43697983  0.86131092  0.77526250  1  0.146049  0  0.112009  0.084808  0  1.023316  0
H  H61  1  0.06301829  0.13868932  0.27526394  1  0.146025  0  0.112017  0.084829  0  1.023338  0
H  H62  1  0.93698051  0.63868966  0.22473741  1  0.146027  0  0.112025  0.084823  0  1.023384  0
H  H63  1  0.56301925  0.36130937  0.72473677  1  0.146005  0  0.112028  0.084852  0  1.023405  0
H  H64  1  0.96166513  0.44820634  0.05284557  1  0.090041  0  0.101324  0.104443  0  1.014833  0
H  H65  1  0.53833458  0.55179392  0.55284510  1  0.09004  0  0.101328  0.104458  0  1.014812  0
H  H66  1  0.46166589  0.05179464  0.94715253  1  0.090045  0  0.101328  0.104451  0  1.014835  0
H  H67  1  0.03833543  0.94820647  0.44715472  1  0.090028  0  0.101319  0.104437  0  1.014818  0
H  H68  1  0.29641839  0.41396017  0.01113271  1  0.13319  0  0.09696  0.119726  0  1.029908  0
H  H69  1  0.20358202  0.58603982  0.51113299  1  0.133197  0  0.09696  0.119728  0  1.029922  0
H  H70  1  0.79641769  0.08603934  0.98886806  1  0.133212  0  0.096959  0.119725  0  1.029914  0
H  H71  1  0.70358215  0.91396065  0.48886755  1  0.133193  0  0.096951  0.119706  0  1.029933  0
H  H72  1  0.12076435  0.46058227  0.95030667  1  0.089596  0  0.098806  0.095226  0  1.030708  0
H  H73  1  0.37923619  0.53941745  0.45030653  1  0.089587  0  0.098806  0.095228  0  1.030726  0
H  H74  1  0.62076256  0.03941785  0.04969270  1  0.089588  0  0.098821  0.095268  0  1.03067  0
H  H75  1  0.87923636  0.96058310  0.54969337  1  0.089578  0  0.098812  0.095245  0  1.030774  0
C  C76  1  0.24236113  0.95950542  0.64709154  1  -0.027402  0  0.01292  0.108855  0  3.976156  0
C  C77  1  0.25763774  0.04049470  0.14709090  1  -0.027428  0  0.012918  0.108836  0  3.976146  0
C  C78  1  0.74236101  0.54049366  0.35290833  1  -0.02755  0  0.012921  0.10885  0  3.976206  0
C  C79  1  0.75763879  0.45950619  0.85290850  1  -0.027557  0  0.012929  0.108853  0  3.976161  0
C  C80  1  0.16368198  0.89484357  0.67076065  1  -0.038544  0  -0.083793  -0.174756  0  3.945212  0
C  C81  1  0.33631611  0.10515728  0.17076077  1  -0.038527  0  -0.08381  -0.174805  0  3.945184  0
C  C82  1  0.66368346  0.60515618  0.32924055  1  -0.038533  0  -0.083799  -0.174818  0  3.945208  0
C  C83  1  0.83631633  0.39484365  0.82924000  1  -0.038494  0  -0.083788  -0.174744  0  3.945161  0
C  C84  1  0.18773039  0.82179488  0.72963803  1  0.406679  0  0.041431  0.091941  0  3.992078  0
C  C85  1  0.31226850  0.17820673  0.22963822  1  0.40666  0  0.041435  0.092038  0  3.992085  0
C  C86  1  0.68773111  0.67820559  0.27036250  1  0.406702  0  0.041387  0.091971  0  3.992084  0
C  C87  1  0.81226866  0.32179349  0.77036256  1  0.406668  0  0.041389  0.091989  0  3.992047  0
C  C88  1  0.34214543  0.94775176  0.68662078  1  -0.025421  0  -0.07782  -0.156559  0  3.884578  0
C  C89  1  0.15785346  0.05224839  0.18662013  1  -0.025533  0  -0.077834  -0.156564  0  3.884475  0
C  C90  1  0.84214687  0.55224807  0.31337843  1  -0.025393  0  -0.077891  -0.156612  0  3.884592  0
C  C91  1  0.65785371  0.44775175  0.81337857  1  -0.025381  0  -0.077839  -0.156575  0  3.884456  0
C  C92  1  0.22216793  0.03607858  0.58228184  1  -0.049856  0  0.012443  0.106846  0  3.978609  0
C  C93  1  0.27783250  0.96392147  0.08228139  1  -0.049856  0  0.012455  0.106907  0  3.978636  0
C  C94  1  0.72216886  0.46392089  0.41771756  1  -0.048051  0  0.012451  0.106901  0  3.978591  0
C  C95  1  0.77783175  0.53607903  0.91771781  1  -0.047678  0  0.012455  0.106884  0  3.978675  0
C  C96  1  0.25044332  0.35461068  0.58582904  1  0.502985  0  0.046883  0.111026  0  3.940197  0
C  C97  1  0.24955633  0.64538798  0.08582829  1  0.502981  0  0.04691  0.111032  0  3.94009  0
C  C98  1  0.75044327  0.14538951  0.41417240  1  0.502955  0  0.046883  0.11102  0  3.940127  0
C  C99  1  0.74955734  0.85461041  0.91417158  1  0.503031  0  0.046885  0.111044  0  3.940071  0
C  C100  1  0.25189408  0.37566250  0.67798261  1  -0.05939  0  -0.081486  -0.111446  0  3.927971  0
C  C101  1  0.24810559  0.62433554  0.17798252  1  -0.059397  0  -0.081498  -0.111528  0  3.927954  0
C  C102  1  0.75189399  0.12433768  0.32201815  1  -0.059348  0  -0.081478  -0.111445  0  3.927806  0
C  C103  1  0.74810659  0.87566285  0.82201803  1  -0.059415  0  -0.081493  -0.111507  0  3.927928  0
C  C104  1  0.23337496  0.38091676  0.14372766  1  0.43897  0  0.044728  0.101971  0  3.966513  0
C  C105  1  0.26662470  0.61908266  0.64372663  1  0.438954  0  0.044757  0.102019  0  3.966557  0
C  C106  1  0.73337660  0.11908342  0.85627309  1  0.438866  0  0.044644  0.101857  0  3.966591  0
C  C107  1  0.76662478  0.88091784  0.35627324  1  0.438978  0  0.044757  0.102061  0  3.966527  0
C  C108  1  0.11000584  0.15277522  0.51374054  1  0.515194  0  0.047256  0.114768  0  3.945475  0
C  C109  1  0.38999457  0.84722406  0.01374137  1  0.51537  0  0.047294  0.11489  0  3.945407  0
C  C110  1  0.61000672  0.34722420  0.48625950  1  0.515209  0  0.047308  0.114839  0  3.945501  0
C  C111  1  0.88999391  0.65277579  0.98625921  1  0.515204  0  0.047269  0.114816  0  3.945414  0
C  C112  1  0.28288626  0.14218195  0.46623350  1  0.44422  0  0.046969  0.1089  0  3.967036  0
C  C113  1  0.21711350  0.85781638  0.96623404  1  0.444261  0  0.046989  0.108931  0  3.96701  0
C  C114  1  0.78288637  0.35781684  0.53376658  1  0.444271  0  0.046996  0.108892  0  3.967092  0
C  C115  1  0.71711334  0.64218270  0.03376650  1  0.44427  0  0.046979  0.10893  0  3.967026  0
C  C116  1  0.16216724  0.41458457  0.71739529  1  -0.063194  0  -0.06557  -0.022654  0  3.957868  0
C  C117  1  0.33783244  0.58541421  0.21739518  1  -0.063183  0  -0.065551  -0.022618  0  3.957886  0
C  C118  1  0.66216633  0.08541557  0.28260477  1  -0.063172  0  -0.065578  -0.022637  0  3.957807  0
C  C119  1  0.83783345  0.91458491  0.78260606  1  -0.06318  0  -0.065576  -0.022629  0  3.957869  0
C  C120  1  0.05408446  0.39882773  0.16533932  1  0.48735  0  0.0466  0.108477  0  3.954956  0
C  C121  1  0.44591600  0.60117241  0.66533967  1  0.487438  0  0.046615  0.108458  0  3.954904  0
C  C122  1  0.55408451  0.10117237  0.83466004  1  0.487413  0  0.046645  0.108511  0  3.954897  0
C  C123  1  0.94591607  0.89882888  0.33466092  1  0.487497  0  0.046631  0.108445  0  3.954947  0
C  C124  1  0.30276930  0.06859833  0.52548497  1  0.048233  0  -0.079359  -0.157356  0  3.921253  0
C  C125  1  0.19723111  0.93140096  0.02548515  1  0.048279  0  -0.079354  -0.157374  0  3.92113  0
C  C126  1  0.80277023  0.43140117  0.47451512  1  0.048276  0  -0.079377  -0.157376  0  3.921193  0
C  C127  1  0.69723039  0.56859880  0.97451470  1  0.048271  0  -0.079338  -0.157325  0  3.921145  0
C  C128  1  0.12341573  0.07957419  0.57493564  1  -0.0516  0  -0.082942  -0.167365  0  3.917038  0
C  C129  1  0.37658391  0.92042515  0.07493585  1  -0.051792  0  -0.083006  -0.16752  0  3.917138  0
C  C130  1  0.62341664  0.42042523  0.42506374  1  -0.05344  0  -0.083019  -0.16751  0  3.917023  0
C  C131  1  0.87658318  0.57957400  0.92506405  1  -0.053834  0  -0.082955  -0.167448  0  3.917099  0
C  C132  1  0.07901207  0.40695296  0.57153850  1  0.494262  0  0.042427  0.098023  0  3.983727  0
C  C133  1  0.42098994  0.59304568  0.07153910  1  0.494238  0  0.042315  0.09789  0  3.983837  0
C  C134  1  0.57901120  0.09304644  0.42846154  1  0.494256  0  0.042393  0.097977  0  3.983754  0
C  C135  1  0.92098941  0.90695349  0.92846216  1  0.494263  0  0.042384  0.098001  0  3.983773  0
C  C136  1  0.07360413  0.42981456  0.66311129  1  -0.01715  0  -0.089507  -0.13397  0  3.977606  0
C  C137  1  0.42639633  0.57018417  0.16311118  1  -0.017168  0  -0.089508  -0.133939  0  3.977645  0
C  C138  1  0.57360322  0.07018484  0.33688875  1  -0.017167  0  -0.089512  -0.133975  0  3.977607  0
C  C139  1  0.92639736  0.92981500  0.83688872  1  -0.017179  0  -0.089522  -0.133996  0  3.977633  0
C  C140  1  0.35958823  0.87246157  0.74467408  1  0.450171  0  0.052146  0.117822  0  3.92941  0
C  C141  1  0.14041146  0.12753935  0.24467350  1  0.450202  0  0.052134  0.117809  0  3.929368  0
C  C142  1  0.85958970  0.62753757  0.25532513  1  0.450142  0  0.052171  0.117833  0  3.929436  0
C  C143  1  0.64041007  0.37246148  0.75532520  1  0.450168  0  0.052084  0.117717  0  3.92954  0
C  C144  1  0.04014077  0.42869667  0.07630724  1  -0.055693  0  -0.088561  -0.130459  0  3.972932  0
C  C145  1  0.45985887  0.57130338  0.57630688  1  -0.055688  0  -0.088612  -0.130533  0  3.972839  0
C  C146  1  0.54014004  0.07130342  0.92369280  1  -0.055752  0  -0.088591  -0.130487  0  3.972965  0
C  C147  1  0.95985900  0.92869721  0.42369371  1  -0.055702  0  -0.088594  -0.130479  0  3.972861  0
C  C148  1  0.22623162  0.40903629  0.05360584  1  0.009187  0  -0.085203  -0.121481  0  3.945933  0
C  C149  1  0.27376880  0.59096373  0.55360546  1  0.009173  0  -0.085198  -0.121467  0  3.945969  0
C  C150  1  0.72623091  0.09096388  0.94639356  1  0.009231  0  -0.085172  -0.121417  0  3.945901  0
C  C151  1  0.77376892  0.90903747  0.44639509  1  0.009197  0  -0.085137  -0.121382  0  3.945874  0
C  C152  1  0.12775537  0.43430569  0.01942768  1  -0.062364  0  -0.067675  -0.023017  0  3.958923  0
C  C153  1  0.37224504  0.56569430  0.51942730  1  -0.062381  0  -0.067673  -0.02301  0  3.95891  0
C  C154  1  0.62775229  0.06569444  0.98057102  1  -0.062332  0  -0.067665  -0.023076  0  3.958965  0
C  C155  1  0.87224519  0.93430695  0.48057327  1  -0.062403  0  -0.067702  -0.023092  0  3.958968  0
N  N156  1  0.18824502  0.18469055  0.46008140  1  -1.245254  0  -0.384238  -0.340201  0  3.549479  0
N  N157  1  0.31175394  0.81530848  0.96008260  1  -1.245249  0  -0.384248  -0.340255  0  3.549429  0
N  N158  1  0.68824590  0.31530890  0.53991798  1  -1.245287  0  -0.384216  -0.340137  0  3.549598  0
N  N159  1  0.81175460  0.68469134  0.03991796  1  -1.245305  0  -0.384264  -0.340275  0  3.549483  0
N  N160  1  0.16583111  0.37028504  0.53264697  1  -1.293554  0  -0.395357  -0.350073  0  3.566252  0
N  N161  1  0.33416852  0.62971356  0.03264622  1  -1.293524  0  -0.395338  -0.350007  0  3.566159  0
N  N162  1  0.66583107  0.12971370  0.46735377  1  -1.293566  0  -0.395358  -0.350067  0  3.566241  0
N  N163  1  0.83416955  0.87028557  0.96735434  1  -1.293653  0  -0.395343  -0.350062  0  3.566154  0
N  N164  1  0.14924214  0.37551271  0.19933180  1  -1.267246  0  -0.395896  -0.343765  0  3.556123  0
N  N165  1  0.35075833  0.62448675  0.69933146  1  -1.267292  0  -0.395863  -0.343695  0  3.556096  0
N  N166  1  0.64924298  0.12448742  0.80066691  1  -1.267191  0  -0.395886  -0.343686  0  3.556068  0
N  N167  1  0.85075838  0.87551379  0.30066842  1  -1.267285  0  -0.395903  -0.343703  0  3.556141  0
N  N168  1  0.28436484  0.80912791  0.76580184  1  -1.231311  0  -0.378385  -0.337052  0  3.542134  0
N  N169  1  0.21563486  0.19087373  0.26580134  1  -1.231358  0  -0.378401  -0.337109  0  3.542235  0
N  N170  1  0.78436555  0.69087260  0.23419803  1  -1.231295  0  -0.378361  -0.33699  0  3.542067  0
N  N171  1  0.71563421  0.30912714  0.73419873  1  -1.231319  0  -0.378349  -0.337029  0  3.542174  0
Cl  Cl172  1  0.36818682  0.36212558  0.36267581  1  -0.725946  0  -0.356752  -0.609326  0  1.053823  0
Cl  Cl173  1  0.13181133  0.63787335  0.86267612  1  -0.725944  0  -0.356749  -0.609325  0  1.053804  0
Cl  Cl174  1  0.86818762  0.13787256  0.63732361  1  -0.725954  0  -0.356746  -0.609313  0  1.053809  0
Cl  Cl175  1  0.63181211  0.86212638  0.13732372  1  -0.725944  0  -0.35675  -0.60931  0  1.053806  0
Cl  Cl176  1  0.97030020  0.28224998  0.36054449  1  -0.718547  0  -0.360563  -0.600683  0  1.066151  0
Cl  Cl177  1  0.52970039  0.71774919  0.86054621  1  -0.718554  0  -0.360579  -0.600697  0  1.06616  0
Cl  Cl178  1  0.47029939  0.21774891  0.63945496  1  -0.718554  0  -0.360564  -0.600673  0  1.066169  0
Cl  Cl179  1  0.02970027  0.78225190  0.13945496  1  -0.718541  0  -0.36056  -0.600682  0  1.066191  0
Cl  Cl180  1  0.11281831  0.51052345  0.36844913  1  -0.728875  0  -0.387414  -0.636093  0  1.026512  0
Cl  Cl181  1  0.38718220  0.48947759  0.86845072  1  -0.728881  0  -0.387422  -0.636104  0  1.026553  0
Cl  Cl182  1  0.61281774  0.98947698  0.63155003  1  -0.728867  0  -0.387414  -0.636091  0  1.026533  0
Cl  Cl183  1  0.88718357  0.01052476  0.13155007  1  -0.728867  0  -0.387399  -0.636084  0  1.026527  0
