# generated using pymatgen
data_ZnPH9C11O3
_symmetry_space_group_name_H-M   'P 1'
_cell_length_a   5.14496888
_cell_length_b   10.37143956
_cell_length_c   19.46223157
_cell_angle_alpha   91.67595780
_cell_angle_beta   90.00017517
_cell_angle_gamma   90.00073404
_symmetry_Int_Tables_number   1
_chemical_formula_structural   ZnPH9C11O3
_chemical_formula_sum   'Zn4 P4 H36 C44 O12'
_cell_volume   1038.07469973
_cell_formula_units_Z   4
loop_
 _symmetry_equiv_pos_site_id
 _symmetry_equiv_pos_as_xyz
  1  'x, y, z'
loop_
 _atom_site_type_symbol
 _atom_site_label
 _atom_site_symmetry_multiplicity
 _atom_site_fract_x
 _atom_site_fract_y
 _atom_site_fract_z
 _atom_site_occupancy
 _atom_site_hle17_bader_spin_density
 _atom_site_hle17_ddec_charge
 _atom_site_hle17_ddec_spin_density
 _atom_site_hle17_ddec_sum_bond_order
 _atom_site_hle17_magmom
 _atom_site_hse06_10hf_bader_spin_density
 _atom_site_hse06_10hf_ddec_charge
 _atom_site_hse06_10hf_ddec_spin_density
 _atom_site_hse06_10hf_ddec_sum_bond_order
 _atom_site_hse06_10hf_magmom
 _atom_site_hse06_bader_spin_density
 _atom_site_hse06_ddec_charge
 _atom_site_hse06_ddec_spin_density
 _atom_site_hse06_ddec_sum_bond_order
 _atom_site_hse06_magmom
 _atom_site_pbe_bader_spin_density
 _atom_site_pbe_cm5_charge
 _atom_site_pbe_ddec_charge
 _atom_site_pbe_ddec_spin_density
 _atom_site_pbe_ddec_sum_bond_order
 _atom_site_pbe_magmom
Zn  Zn0  1  0.22265660  0.35359816  0.49622007  1  0  1.250579  0  1.779915  0  0  1.08854  0  2.254016  0  0  1.131326  0  2.190174  0  0  0.723865  1.057602  0  2.298915  0
Zn  Zn1  1  0.72265702  0.14640382  0.50377939  1  0  1.250491  0  1.780063  0  0  1.088434  0  2.254181  0  0  1.13121  0  2.190352  0  0  0.723818  1.057488  0  2.299078  0
Zn  Zn2  1  0.77733431  0.64640401  0.50378259  1  0  1.250596  0  1.779817  0  0  1.08854  0  2.253914  0  0  1.131321  0  2.19007  0  0  0.723876  1.057602  0  2.298814  0
Zn  Zn3  1  0.27733388  0.85359928  0.49622174  1  0  1.250645  0  1.779965  0  0  1.088565  0  2.254061  0  0  1.131343  0  2.190228  0  0  0.723864  1.057624  0  2.298959  0
P  P4  1  0.25813449  0.59237209  0.41080770  1  0  1.535199  0  4.797124  0  0  1.384607  0  5.281336  0  0  1.433042  0  5.245754  0  0  0.346289  1.350311  0  5.305678  0
P  P5  1  0.75814474  0.90763588  0.58919512  1  0  1.535194  0  4.796915  0  0  1.384686  0  5.280999  0  0  1.433155  0  5.245351  0  0  0.346353  1.350382  0  5.305355  0
P  P6  1  0.74186030  0.40762911  0.58919444  1  0  1.53528  0  4.796926  0  0  1.384755  0  5.28111  0  0  1.4332  0  5.245506  0  0  0.346337  1.350452  0  5.305465  0
P  P7  1  0.24184616  0.09237011  0.41080552  1  0  1.535108  0  4.797052  0  0  1.384596  0  5.28115  0  0  1.433069  0  5.245505  0  0  0.346288  1.350292  0  5.305506  0
H  H8  1  0.07470726  0.74138723  0.21261675  1  0  0.085403  0  0.989309  0  0  0.094701  0  1.056898  0  0  0.096611  0  1.057703  0  0  0.096242  0.093281  0  1.056566  0
H  H9  1  0.57470872  0.75861370  0.78738280  1  0  0.085427  0  0.989294  0  0  0.094708  0  1.056909  0  0  0.096618  0  1.057718  0  0  0.096236  0.09329  0  1.056576  0
H  H10  1  0.92528947  0.25860615  0.78738017  1  0  0.085402  0  0.989299  0  0  0.094684  0  1.056905  0  0  0.096593  0  1.057713  0  0  0.09624  0.093264  0  1.056572  0
H  H11  1  0.42528024  0.24139615  0.21261840  1  0  0.085429  0  0.989322  0  0  0.094714  0  1.056924  0  0  0.096625  0  1.057734  0  0  0.096259  0.093297  0  1.05659  0
H  H12  1  0.02257578  0.61526713  0.30777344  1  0  0.145246  0  0.943078  0  0  0.160303  0  0.997495  0  0  0.162012  0  0.998647  0  0  0.111734  0.159179  0  0.996553  0
H  H13  1  0.52258301  0.88474607  0.69222979  1  0  0.145223  0  0.943068  0  0  0.160293  0  0.997509  0  0  0.162004  0  0.998665  0  0  0.11176  0.159165  0  0.99657  0
H  H14  1  0.97742290  0.38474079  0.69222774  1  0  0.145176  0  0.943142  0  0  0.160231  0  0.997587  0  0  0.161941  0  0.99874  0  0  0.111727  0.159106  0  0.996645  0
H  H15  1  0.47740789  0.11525799  0.30777134  1  0  0.145257  0  0.94309  0  0  0.160288  0  0.997598  0  0  0.161997  0  0.998755  0  0  0.111743  0.159162  0  0.996656  0
H  H16  1  0.24964201  0.74009231  0.32128661  1  0  0.141201  0  0.932733  0  0  0.155098  0  0.990863  0  0  0.157037  0  0.990789  0  0  0.111679  0.153467  0  0.991388  0
H  H17  1  0.74963226  0.75991464  0.67871620  1  0  0.141007  0  0.932861  0  0  0.154972  0  0.990973  0  0  0.156916  0  0.990899  0  0  0.1116  0.153336  0  0.9915  0
H  H18  1  0.75037416  0.25991177  0.67871504  1  0  0.141129  0  0.932744  0  0  0.155041  0  0.9909  0  0  0.156985  0  0.990824  0  0  0.111631  0.15341  0  0.991425  0
H  H19  1  0.25036253  0.24009038  0.32128444  1  0  0.141091  0  0.932763  0  0  0.15509  0  0.990836  0  0  0.157033  0  0.990763  0  0  0.111656  0.153459  0  0.991362  0
H  H20  1  0.60190290  0.44554067  0.34149605  1  0  0.105996  0  0.963854  0  0  0.119959  0  1.018358  0  0  0.122801  0  1.016841  0  0  0.102633  0.117862  0  1.019631  0
H  H21  1  0.10192626  0.05446546  0.65850902  1  0  0.105988  0  0.963935  0  0  0.12007  0  1.018262  0  0  0.122915  0  1.016738  0  0  0.102645  0.117969  0  1.019542  0
H  H22  1  0.39809577  0.55446252  0.65850919  1  0  0.105959  0  0.963913  0  0  0.120035  0  1.018245  0  0  0.122881  0  1.016718  0  0  0.102641  0.117935  0  1.019523  0
H  H23  1  0.89806853  0.94553756  0.34148851  1  0  0.106012  0  0.963844  0  0  0.120065  0  1.018225  0  0  0.122907  0  1.016705  0  0  0.102663  0.117965  0  1.019501  0
H  H24  1  0.91006237  0.35296286  0.25707534  1  0  0.08843  0  0.960569  0  0  0.099903  0  1.020475  0  0  0.101967  0  1.020719  0  0  0.098179  0.098305  0  1.020615  0
H  H25  1  0.41010094  0.14702694  0.74293029  1  0  0.088487  0  0.960571  0  0  0.099974  0  1.020439  0  0  0.102036  0  1.02069  0  0  0.098192  0.098377  0  1.020576  0
H  H26  1  0.08992465  0.64702683  0.74293028  1  0  0.088477  0  0.960596  0  0  0.09993  0  1.020521  0  0  0.101995  0  1.020758  0  0  0.098167  0.098334  0  1.020658  0
H  H27  1  0.58990551  0.85297313  0.25706413  1  0  0.088508  0  0.960657  0  0  0.099999  0  1.020496  0  0  0.102049  0  1.020766  0  0  0.098179  0.098402  0  1.020631  0
H  H28  1  0.07197644  0.80692994  0.09367261  1  0  0.079704  0  0.978149  0  0  0.090618  0  1.041698  0  0  0.092648  0  1.041829  0  0  0.094485  0.089018  0  1.041979  0
H  H29  1  0.57196040  0.69306520  0.90632739  1  0  0.079755  0  0.978034  0  0  0.090669  0  1.041574  0  0  0.092699  0  1.041704  0  0  0.094503  0.089067  0  1.041858  0
H  H30  1  0.92803001  0.19305766  0.90632476  1  0  0.079719  0  0.978139  0  0  0.090633  0  1.041677  0  0  0.092662  0  1.041808  0  0  0.094471  0.089032  0  1.041961  0
H  H31  1  0.42803245  0.30694659  0.09367382  1  0  0.079757  0  0.978061  0  0  0.090676  0  1.041585  0  0  0.092705  0  1.041719  0  0  0.094502  0.089075  0  1.04187  0
H  H32  1  0.91274468  0.42513490  0.13691628  1  0  0.091421  0  0.96337  0  0  0.101945  0  1.026662  0  0  0.104202  0  1.026967  0  0  0.097577  0.100314  0  1.026558  0
H  H33  1  0.41277532  0.07485002  0.86308519  1  0  0.091547  0  0.963464  0  0  0.102108  0  1.026707  0  0  0.104366  0  1.027001  0  0  0.097623  0.100478  0  1.026603  0
H  H34  1  0.08724428  0.57484796  0.86308517  1  0  0.091605  0  0.96344  0  0  0.102123  0  1.026724  0  0  0.104382  0  1.027023  0  0  0.097635  0.100493  0  1.02662  0
H  H35  1  0.58723502  0.92514811  0.13690818  1  0  0.091527  0  0.963484  0  0  0.102069  0  1.026743  0  0  0.104326  0  1.027042  0  0  0.097636  0.100438  0  1.02664  0
H  H36  1  0.72238112  0.55664098  0.04682904  1  0  0.089101  0  0.949743  0  0  0.102039  0  1.007617  0  0  0.104733  0  1.006977  0  0  0.098627  0.100106  0  1.008099  0
H  H37  1  0.22238748  0.94335522  0.95317570  1  0  0.089191  0  0.949824  0  0  0.10222  0  1.00755  0  0  0.104917  0  1.00691  0  0  0.09872  0.100286  0  1.008034  0
H  H38  1  0.27763505  0.44334967  0.95317607  1  0  0.089186  0  0.949899  0  0  0.102195  0  1.00765  0  0  0.10489  0  1.007009  0  0  0.098736  0.100256  0  1.008136  0
H  H39  1  0.77763258  0.05664873  0.04681979  1  0  0.089132  0  0.94981  0  0  0.102172  0  1.007531  0  0  0.10487  0  1.006888  0  0  0.098698  0.100228  0  1.008026  0
H  H40  1  0.39357040  0.71571349  0.00899756  1  0  0.080947  0  0.978918  0  0  0.092345  0  1.04223  0  0  0.094636  0  1.041848  0  0  0.09469  0.090709  0  1.042524  0
H  H41  1  0.89356178  0.78428375  0.99100422  1  0  0.080937  0  0.978918  0  0  0.092347  0  1.042214  0  0  0.094631  0  1.041839  0  0  0.094705  0.090712  0  1.042508  0
H  H42  1  0.60644577  0.28427511  0.99100137  1  0  0.080909  0  0.979015  0  0  0.092277  0  1.04236  0  0  0.094588  0  1.041955  0  0  0.094689  0.090643  0  1.042649  0
H  H43  1  0.10645051  0.21572700  0.00899390  1  0  0.080869  0  0.978914  0  0  0.092265  0  1.042244  0  0  0.094556  0  1.041862  0  0  0.0947  0.090629  0  1.042537  0
C  C44  1  0.41040235  0.56955065  0.27069902  1  0  0.107866  0  3.711787  0  0  0.119789  0  3.952158  0  0  0.120337  0  3.977711  0  0  -0.00425  0.119417  0  3.934834  0
C  C45  1  0.91041322  0.93045539  0.72930338  1  0  0.107673  0  3.711627  0  0  0.11959  0  3.952021  0  0  0.120141  0  3.977579  0  0  -0.004309  0.119214  0  3.934698  0
C  C46  1  0.58959438  0.43044667  0.72930257  1  0  0.107742  0  3.711712  0  0  0.119636  0  3.952167  0  0  0.120185  0  3.977724  0  0  -0.00427  0.119263  0  3.934842  0
C  C47  1  0.08957962  0.06955345  0.27069524  1  0  0.10771  0  3.711475  0  0  0.119675  0  3.951862  0  0  0.120225  0  3.97742  0  0  -0.004279  0.119301  0  3.934537  0
C  C48  1  0.58616334  0.55586875  0.15203958  1  0  0.055128  0  3.798509  0  0  0.072699  0  4.022587  0  0  0.0723  0  4.047502  0  0  -0.008366  0.072823  0  4.005903  0
C  C49  1  0.08617990  0.94412362  0.84796195  1  0  0.055129  0  3.798815  0  0  0.07265  0  4.022896  0  0  0.072253  0  4.047811  0  0  -0.008402  0.072773  0  4.006212  0
C  C50  1  0.41383728  0.44412377  0.84796299  1  0  0.055055  0  3.798502  0  0  0.072607  0  4.022595  0  0  0.072209  0  4.04751  0  0  -0.008451  0.072729  0  4.005909  0
C  C51  1  0.91383044  0.05587843  0.15203455  1  0  0.055122  0  3.798671  0  0  0.072659  0  4.022763  0  0  0.07226  0  4.047681  0  0  -0.008418  0.072783  0  4.006076  0
C  C52  1  0.21885313  0.70032906  0.17736022  1  0  -0.101754  0  3.743216  0  0  -0.122138  0  3.992726  0  0  -0.124173  0  4.014367  0  0  -0.090433  -0.120732  0  3.978154  0
C  C53  1  0.71884836  0.79967376  0.82263945  1  0  -0.101666  0  3.743144  0  0  -0.122066  0  3.992556  0  0  -0.124104  0  4.014204  0  0  -0.090461  -0.120662  0  3.977985  0
C  C54  1  0.78115526  0.29966242  0.82263874  1  0  -0.101723  0  3.743111  0  0  -0.122112  0  3.992579  0  0  -0.124148  0  4.014224  0  0  -0.090478  -0.120708  0  3.978007  0
C  C55  1  0.28113671  0.20034181  0.17735872  1  0  -0.101719  0  3.743245  0  0  -0.122137  0  3.99276  0  0  -0.124167  0  4.014385  0  0  -0.090489  -0.120735  0  3.978196  0
C  C56  1  0.40227987  0.60923431  0.20074039  1  0  -0.002646  0  3.734641  0  0  0.010958  0  3.957952  0  0  0.00954  0  3.982794  0  0  -0.007891  0.01187  0  3.941297  0
C  C57  1  0.90229265  0.89076395  0.79926141  1  0  -0.002719  0  3.734863  0  0  0.01104  0  3.957937  0  0  0.00962  0  3.982781  0  0  -0.007833  0.011954  0  3.941282  0
C  C58  1  0.59771492  0.39075529  0.79926061  1  0  -0.002708  0  3.734502  0  0  0.010964  0  3.957752  0  0  0.009542  0  3.982599  0  0  -0.007842  0.011878  0  3.941094  0
C  C59  1  0.09770214  0.10924585  0.20073722  1  0  -0.002707  0  3.734684  0  0  0.010989  0  3.957851  0  0  0.009569  0  3.982698  0  0  -0.007819  0.011901  0  3.941195  0
C  C60  1  0.22669786  0.63438322  0.32186166  1  0  -0.482804  0  3.685489  0  0  -0.498871  0  3.913703  0  0  -0.50871  0  3.923259  0  0  -0.158115  -0.491844  0  3.907082  0
C  C61  1  0.72670247  0.86562644  0.67813962  1  0  -0.482457  0  3.685279  0  0  -0.498685  0  3.913618  0  0  -0.508545  0  3.923202  0  0  -0.158027  -0.491647  0  3.906996  0
C  C62  1  0.77330665  0.36561990  0.67814049  1  0  -0.482601  0  3.685476  0  0  -0.498707  0  3.913713  0  0  -0.508552  0  3.923276  0  0  -0.158054  -0.491677  0  3.907089  0
C  C63  1  0.27329038  0.13437951  0.32185949  1  0  -0.482581  0  3.685201  0  0  -0.498855  0  3.913644  0  0  -0.508715  0  3.923222  0  0  -0.158092  -0.491824  0  3.907023  0
C  C64  1  0.58943638  0.47659505  0.28864345  1  0  -0.138865  0  3.740116  0  0  -0.160301  0  3.990839  0  0  -0.163119  0  4.011168  0  0  -0.097717  -0.158387  0  3.977207  0
C  C65  1  0.08945385  0.02341195  0.71136111  1  0  -0.138746  0  3.739837  0  0  -0.16026  0  3.990541  0  0  -0.163077  0  4.01087  0  0  -0.097736  -0.158345  0  3.976907  0
C  C66  1  0.41056229  0.52340621  0.71136229  1  0  -0.138687  0  3.740116  0  0  -0.16017  0  3.990804  0  0  -0.162987  0  4.011132  0  0  -0.097685  -0.158257  0  3.977174  0
C  C67  1  0.91054094  0.97659104  0.28863488  1  0  -0.13877  0  3.739819  0  0  -0.160257  0  3.990492  0  0  -0.163075  0  4.010826  0  0  -0.097774  -0.158341  0  3.976856  0
C  C68  1  0.76878145  0.42379114  0.24038954  1  0  -0.062596  0  3.791044  0  0  -0.075834  0  4.047778  0  0  -0.077046  0  4.068078  0  0  -0.094149  -0.074866  0  4.034086  0
C  C69  1  0.26881067  0.07620157  0.75961397  1  0  -0.062826  0  3.790917  0  0  -0.076109  0  4.047776  0  0  -0.077323  0  4.068075  0  0  -0.094176  -0.07514  0  4.034079  0
C  C70  1  0.23120168  0.57619752  0.75961247  1  0  -0.062932  0  3.79112  0  0  -0.076204  0  4.047961  0  0  -0.077411  0  4.068255  0  0  -0.09428  -0.075237  0  4.034269  0
C  C71  1  0.73118607  0.92380140  0.24038100  1  0  -0.062896  0  3.791126  0  0  -0.076167  0  4.047969  0  0  -0.077377  0  4.06826  0  0  -0.09417  -0.075199  0  4.034275  0
C  C72  1  0.21621560  0.73711619  0.10983757  1  0  -0.073659  0  3.792772  0  0  -0.086442  0  4.041436  0  0  -0.08822  0  4.062687  0  0  -0.096078  -0.084982  0  4.026926  0
C  C73  1  0.71621278  0.76287796  0.89016303  1  0  -0.073935  0  3.792725  0  0  -0.086717  0  4.041401  0  0  -0.088497  0  4.062654  0  0  -0.096205  -0.085257  0  4.026893  0
C  C74  1  0.78379085  0.26287050  0.89016237  1  0  -0.073733  0  3.792898  0  0  -0.086513  0  4.04156  0  0  -0.088294  0  4.062817  0  0  -0.096084  -0.085054  0  4.027053  0
C  C75  1  0.28378589  0.23712994  0.10983711  1  0  -0.073843  0  3.79281  0  0  -0.086628  0  4.041478  0  0  -0.088406  0  4.062735  0  0  -0.096145  -0.085167  0  4.026968  0
C  C76  1  0.77032086  0.46359996  0.17359692  1  0  -0.110704  0  3.749074  0  0  -0.133196  0  4.001489  0  0  -0.135254  0  4.022058  0  0  -0.088871  -0.131733  0  3.987605  0
C  C77  1  0.27035582  0.03638790  0.82640500  1  0  -0.11066  0  3.749192  0  0  -0.133185  0  4.001589  0  0  -0.135238  0  4.02215  0  0  -0.088856  -0.131723  0  3.987707  0
C  C78  1  0.22966033  0.53638679  0.82640662  1  0  -0.110636  0  3.748978  0  0  -0.13311  0  4.00134  0  0  -0.135168  0  4.021904  0  0  -0.088776  -0.131649  0  3.987461  0
C  C79  1  0.72964480  0.96361312  0.17358892  1  0  -0.11061  0  3.749105  0  0  -0.133112  0  4.001483  0  0  -0.135165  0  4.022042  0  0  -0.088827  -0.13165  0  3.987602  0
C  C80  1  0.57986402  0.59688647  0.08309450  1  0  -0.119545  0  3.764854  0  0  -0.137293  0  4.010417  0  0  -0.139932  0  4.03221  0  0  -0.091957  -0.135184  0  3.995428  0
C  C81  1  0.07988050  0.90310584  0.91690651  1  0  -0.119723  0  3.765154  0  0  -0.137574  0  4.010767  0  0  -0.140216  0  4.032559  0  0  -0.092072  -0.13546  0  3.995785  0
C  C82  1  0.42013271  0.40310221  0.91690854  1  0  -0.119639  0  3.765038  0  0  -0.137465  0  4.010633  0  0  -0.140107  0  4.032433  0  0  -0.092071  -0.135348  0  3.995652  0
C  C83  1  0.92013761  0.09689330  0.08308944  1  0  -0.119623  0  3.764953  0  0  -0.137462  0  4.010543  0  0  -0.140106  0  4.032339  0  0  -0.092013  -0.135341  0  3.99556  0
C  C84  1  0.39816128  0.68532364  0.06214084  1  0  -0.091206  0  3.811682  0  0  -0.10421  0  4.05964  0  0  -0.106219  0  4.08119  0  0  -0.101269  -0.102732  0  4.044689  0
C  C85  1  0.89816629  0.81466877  0.93785884  1  0  -0.090993  0  3.811592  0  0  -0.103986  0  4.059555  0  0  -0.10599  0  4.08111  0  0  -0.101162  -0.102512  0  4.044603  0
C  C86  1  0.60185489  0.31466497  0.93785912  1  0  -0.091069  0  3.811763  0  0  -0.104035  0  4.059714  0  0  -0.106059  0  4.08126  0  0  -0.101211  -0.10256  0  4.044763  0
C  C87  1  0.10185571  0.18533520  0.06213715  1  0  -0.091038  0  3.811515  0  0  -0.10403  0  4.059493  0  0  -0.106041  0  4.081047  0  0  -0.101274  -0.102555  0  4.044538  0
O  O88  1  0.10146269  0.69714060  0.45467770  1  0  -0.918736  0  2.102252  0  0  -0.804665  0  2.422171  0  0  -0.83444  0  2.39013  0  0  -0.379806  -0.783185  0  2.444053  0
O  O89  1  0.60146771  0.80286538  0.54532448  1  0  -0.91863  0  2.102125  0  0  -0.804565  0  2.422026  0  0  -0.834336  0  2.389975  0  0  -0.379741  -0.783078  0  2.443897  0
O  O90  1  0.89853404  0.30286058  0.54532392  1  0  -0.918682  0  2.102296  0  0  -0.804614  0  2.422176  0  0  -0.834388  0  2.390137  0  0  -0.379749  -0.783138  0  2.444067  0
O  O91  1  0.39852514  0.19713868  0.45467614  1  0  -0.918604  0  2.102184  0  0  -0.804578  0  2.422122  0  0  -0.834358  0  2.390083  0  0  -0.379725  -0.78309  0  2.443992  0
O  O92  1  0.54474286  0.59908200  0.43053493  1  0  -0.890799  0  2.069602  0  0  -0.798833  0  2.374002  0  0  -0.826618  0  2.346562  0  0  -0.38103  -0.778878  0  2.39241  0
O  O93  1  0.04475439  0.90092466  0.56947134  1  0  -0.890775  0  2.069555  0  0  -0.798838  0  2.373956  0  0  -0.826632  0  2.346516  0  0  -0.381026  -0.778872  0  2.392343  0
O  O94  1  0.45525193  0.40091441  0.56946870  1  0  -0.890808  0  2.069635  0  0  -0.798878  0  2.374041  0  0  -0.826664  0  2.346595  0  0  -0.381022  -0.778906  0  2.392418  0
O  O95  1  0.95523651  0.09908133  0.43052982  1  0  -0.890696  0  2.069566  0  0  -0.798739  0  2.373953  0  0  -0.826537  0  2.346515  0  0  -0.381024  -0.778775  0  2.392345  0
O  O96  1  0.13066270  0.46005693  0.42033127  1  0  -0.862951  0  1.969595  0  0  -0.771776  0  2.260896  0  0  -0.799517  0  2.235415  0  0  -0.37611  -0.751798  0  2.278352  0
O  O97  1  0.63067701  0.03994641  0.57966968  1  0  -0.862977  0  1.969685  0  0  -0.771805  0  2.260957  0  0  -0.799558  0  2.235489  0  0  -0.376158  -0.751826  0  2.278411  0
O  O98  1  0.86933015  0.53994523  0.57967087  1  0  -0.862949  0  1.969508  0  0  -0.771792  0  2.260788  0  0  -0.799549  0  2.235335  0  0  -0.37613  -0.751814  0  2.278245  0
O  O99  1  0.36931194  0.96005765  0.42033095  1  0  -0.863046  0  1.969729  0  0  -0.771826  0  2.26101  0  0  -0.799543  0  2.235463  0  0  -0.376136  -0.751846  0  2.278461  0
