# generated using pymatgen
data_CuH8C6N8O
_symmetry_space_group_name_H-M   'P 1'
_cell_length_a   7.85094098
_cell_length_b   12.38452744
_cell_length_c   12.38219221
_cell_angle_alpha   90.00113319
_cell_angle_beta   89.99922427
_cell_angle_gamma   90.00008585
_symmetry_Int_Tables_number   1
_chemical_formula_structural   CuH8C6N8O
_chemical_formula_sum   'Cu4 H32 C24 N32 O4'
_cell_volume   1203.92295055
_cell_formula_units_Z   4
loop_
 _symmetry_equiv_pos_site_id
 _symmetry_equiv_pos_as_xyz
  1  'x, y, z'
loop_
 _atom_site_type_symbol
 _atom_site_label
 _atom_site_symmetry_multiplicity
 _atom_site_fract_x
 _atom_site_fract_y
 _atom_site_fract_z
 _atom_site_occupancy
 _atom_site_hle17_ddec_charge
 _atom_site_hle17_ddec_spin_density
 _atom_site_hle17_ddec_sum_bond_order
 _atom_site_hle17_magmom
 _atom_site_hse06_10hf_ddec_charge
 _atom_site_hse06_10hf_ddec_spin_density
 _atom_site_hse06_10hf_ddec_sum_bond_order
 _atom_site_hse06_10hf_magmom
 _atom_site_hse06_ddec_charge
 _atom_site_hse06_ddec_spin_density
 _atom_site_hse06_ddec_sum_bond_order
 _atom_site_hse06_magmom
 _atom_site_pbe_cm5_charge
 _atom_site_pbe_ddec_charge
 _atom_site_pbe_ddec_spin_density
 _atom_site_pbe_ddec_sum_bond_order
 _atom_site_pbe_magmom
Cu  Cu0  1  0.03022493  0.67676393  0.99016968  1  0.739577  -0.683852  2.037428  -0.5  0.687643  -0.774804  2.448826  -0.61  0.765228  -0.851769  2.391223  -0.692  0.826562  0.639136  -0.694112  2.488455  -0.537
Cu  Cu1  1  0.78015031  0.01010354  0.67685424  1  0.739193  0.682742  2.03738  0.499  0.687903  0.774386  2.44776  0.609  0.764825  0.851629  2.391027  0.691  0.82621  0.639051  0.693182  2.487823  0.536
Cu  Cu2  1  0.53022971  0.32324159  0.00983356  1  0.739561  0.683858  2.037318  0.5  0.687654  0.77481  2.448741  0.61  0.765283  0.851803  2.391118  0.692  0.826549  0.639208  0.694113  2.488271  0.537
Cu  Cu3  1  0.28013996  0.98989334  0.32314521  1  0.739155  -0.682738  2.037458  -0.499  0.687718  -0.774372  2.447914  -0.609  0.764782  -0.851636  2.391092  -0.691  0.826176  0.638939  -0.69317  2.487929  -0.536
H  H4  1  0.18839444  0.90704563  0.90111918  1  0.111393  6.9e-05  0.906865  0.0  0.128287  6e-05  0.960127  0.0  0.129748  6.5e-05  0.960011  0.0  0.109273  0.127161  5.1e-05  0.960372  0.0
H  H5  1  0.93692282  0.09873018  0.90702692  1  0.111154  -0.000347  0.907518  0.0  0.128425  -0.000203  0.960525  0.0  0.129894  -0.000216  0.9603  0.0  0.109231  0.127293  -0.000179  0.960842  0.0
H  H6  1  0.68839553  0.09296166  0.09888833  1  0.111471  -7e-05  0.906918  0.0  0.128375  -6e-05  0.960166  0.0  0.129838  -6.5e-05  0.960045  0.0  0.109333  0.127254  -5.1e-05  0.960409  0.0
H  H7  1  0.43692986  0.90126846  0.09297682  1  0.11116  0.000348  0.907577  0.0  0.128468  0.000203  0.960519  0.0  0.129924  0.000216  0.960309  0.0  0.109233  0.127327  0.000179  0.960842  0.0
H  H8  1  0.14355158  0.95308078  0.76934672  1  0.118464  7e-06  0.925989  0.0  0.129059  3.5e-05  0.991421  0.0  0.130945  7e-06  0.990524  0.0  0.111604  0.127617  6.3e-05  0.99218  0.0
H  H9  1  0.89193170  0.23046112  0.95309216  1  0.118461  -0.000118  0.926214  0.0  0.129302  -8.9e-05  0.991553  0.0  0.13112  -9.3e-05  0.990656  0.0  0.111885  0.127915  -7.6e-05  0.992349  0.0
H  H10  1  0.64355487  0.04692081  0.23065634  1  0.118573  -9e-06  0.925951  0.0  0.129149  -3.5e-05  0.991411  0.0  0.131035  -7e-06  0.990515  0.0  0.111615  0.127713  -6.3e-05  0.992166  0.0
H  H11  1  0.39193431  0.76953910  0.04690390  1  0.118511  0.000119  0.926219  0.0  0.129338  9e-05  0.991554  0.0  0.131157  9.3e-05  0.990653  0.0  0.111883  0.127946  7.6e-05  0.992349  0.0
H  H12  1  0.19131455  0.76505435  0.69754719  1  0.052865  3e-06  0.936844  0.0  0.063528  1.2e-05  1.003975  0.0  0.064636  1.3e-05  1.00272  0.0  0.09683  0.062655  8e-06  1.004948  0.0
H  H13  1  0.94027829  0.30238694  0.76519701  1  0.053116  -2.2e-05  0.935963  0.0  0.063486  -2.8e-05  1.003464  0.0  0.064598  -1.9e-05  1.002217  0.0  0.09698  0.062613  -3.5e-05  1.004435  0.0
H  H14  1  0.69133841  0.23494810  0.30246192  1  0.052815  -5e-06  0.936821  0.0  0.063506  -1.2e-05  1.003944  0.0  0.064615  -1.2e-05  1.002686  0.0  0.096774  0.062636  -8e-06  1.004912  0.0
H  H15  1  0.44027040  0.69760525  0.23479863  1  0.053027  2.1e-05  0.93598  0.0  0.063425  2.8e-05  1.003495  0.0  0.064535  1.9e-05  1.002244  0.0  0.09698  0.062547  3.5e-05  1.004467  0.0
H  H16  1  0.37450850  0.82177992  0.76495182  1  0.05903  -0.000253  0.948204  0.0  0.065595  -0.000231  1.023946  0.0  0.066962  -0.000144  1.022394  0.0  0.098634  0.064531  -0.000307  1.025152  0.0
H  H17  1  0.12325963  0.23479712  0.82198144  1  0.058634  0.000177  0.948954  0.0  0.065071  0.000175  1.024805  0.0  0.066458  9.9e-05  1.023249  0.0  0.098509  0.06405  0.000254  1.025921  0.0
H  H18  1  0.87452475  0.17822674  0.23504116  1  0.058932  0.000253  0.94823  0.0  0.065536  0.000232  1.023946  0.0  0.066905  0.000145  1.022393  0.0  0.098595  0.064478  0.000307  1.025145  0.0
H  H19  1  0.62325551  0.76519557  0.17801534  1  0.058564  -0.000178  0.94895  0.0  0.065019  -0.000175  1.024825  0.0  0.066408  -9.9e-05  1.023266  0.0  0.098488  0.063992  -0.000254  1.025948  0.0
H  H20  1  0.48788120  0.63728434  0.83723154  1  0.059673  -4.3e-05  0.940128  0.0  0.065213  -1.7e-05  1.015132  0.0  0.066765  -6e-06  1.014111  0.0  0.096959  0.0641  -3.2e-05  1.015829  0.0
H  H21  1  0.23715994  0.16266099  0.63779152  1  0.059606  7.1e-05  0.941012  0.0  0.065191  5.1e-05  1.015887  0.0  0.066799  2.5e-05  1.014831  0.0  0.097168  0.064042  9e-05  1.016596  0.0
H  H22  1  0.98788411  0.36271677  0.16275804  1  0.059627  3.8e-05  0.940193  0.0  0.06517  1.7e-05  1.015195  0.0  0.066702  5e-06  1.014193  0.0  0.096937  0.064057  3.2e-05  1.015888  0.0
H  H23  1  0.73715083  0.83733342  0.36220669  1  0.059504  -6.8e-05  0.941193  0.0  0.065202  -5.1e-05  1.015986  0.0  0.066811  -2.4e-05  1.014926  0.0  0.097202  0.064055  -9e-05  1.016701  0.0
H  H24  1  0.34800483  0.60811534  0.72682653  1  0.058302  -6.9e-05  0.899661  0.0  0.078671  -9.1e-05  0.949436  0.0  0.079087  -7e-05  0.949216  0.0  0.108591  0.078266  -9.7e-05  0.949715  0.0
H  H25  1  0.09753635  0.27308067  0.60822091  1  0.058876  7e-05  0.899791  0.0  0.079119  9.1e-05  0.94948  0.0  0.079557  6.9e-05  0.949265  0.0  0.108814  0.078704  9.9e-05  0.949755  0.0
H  H26  1  0.84801567  0.39188645  0.27316749  1  0.058306  6.4e-05  0.899593  0.0  0.078705  9.1e-05  0.949344  0.0  0.079123  6.9e-05  0.949119  0.0  0.108628  0.0783  9.7e-05  0.949622  0.0
H  H27  1  0.59753273  0.72691442  0.39178094  1  0.058838  -6.9e-05  0.899783  0.0  0.07908  -9.1e-05  0.949508  0.0  0.079516  -6.9e-05  0.949296  0.0  0.10882  0.078669  -9.9e-05  0.949786  0.0
H  H28  1  0.17112536  0.49046390  0.83764657  1  0.113972  1.5e-05  0.93169  0.0  0.126618  2.1e-05  0.992993  0.0  0.128346  3.2e-05  0.992396  0.0  0.108349  0.125374  5e-06  0.993477  0.0
H  H29  1  0.92121707  0.16215036  0.49025409  1  0.113591  -2.4e-05  0.931634  0.0  0.126247  -2.1e-05  0.993137  0.0  0.12796  -3.2e-05  0.992534  0.0  0.108445  0.125031  -7e-06  0.993609  0.0
H  H30  1  0.67112735  0.50953611  0.16234898  1  0.113942  -8e-06  0.931794  0.0  0.12661  -2.1e-05  0.993048  0.0  0.128337  -3.2e-05  0.992452  0.0  0.108365  0.125369  -5e-06  0.993538  0.0
H  H31  1  0.42120625  0.83784827  0.50974899  1  0.113571  2.1e-05  0.931533  0.0  0.126311  2.1e-05  0.992991  0.0  0.128025  3.3e-05  0.99239  0.0  0.108468  0.125093  7e-06  0.993461  0.0
H  H32  1  0.38671219  0.44665047  0.83895353  1  0.111461  -0.00021  0.928344  0.0  0.122713  -0.000208  0.994231  0.0  0.124829  -0.00021  0.991764  0.0  0.110604  0.120925  -0.000193  0.996439  0.0
H  H33  1  0.13703637  0.16080836  0.44689844  1  0.111625  0.000219  0.928591  0.0  0.122613  0.000231  0.994842  0.0  0.124754  0.000221  0.992334  0.0  0.110683  0.120875  0.000226  0.996984  0.0
H  H34  1  0.88671304  0.55335135  0.16104742  1  0.111433  0.000215  0.928349  0.0  0.122666  0.000208  0.99425  0.0  0.124781  0.00021  0.991782  0.0  0.11059  0.120885  0.000193  0.996452  0.0
H  H35  1  0.63702579  0.83918919  0.55310145  1  0.111677  -0.00022  0.928457  0.0  0.12265  -0.000231  0.994784  0.0  0.124791  -0.000221  0.992273  0.0  0.110689  0.120914  -0.000226  0.99693  0.0
C  C36  1  0.95205256  0.85322337  0.83749171  1  0.350243  -0.001396  3.703355  -0.002  0.33294  -0.001604  3.975504  -0.002  0.349529  -0.00123  3.991617  -0.002  0.226926  0.321755  -0.0018  3.964802  -0.002
C  C37  1  0.70063969  0.16233875  0.85303249  1  0.350955  -0.003316  3.697698  -0.001  0.332241  0.001332  3.971306  0.003  0.348506  -0.000732  3.9874  0.0  0.226349  0.321641  0.002793  3.960374  0.005
C  C38  1  0.45205127  0.14678336  0.16251918  1  0.350263  0.001381  3.703265  0.002  0.332996  0.001605  3.975364  0.002  0.349589  0.001229  3.991486  0.002  0.226977  0.321817  0.001799  3.964668  0.002
C  C39  1  0.20063907  0.83766129  0.14696524  1  0.351098  0.003325  3.697833  0.001  0.33236  -0.001331  3.971386  -0.003  0.348625  0.000732  3.987481  0.0  0.226415  0.321764  -0.002795  3.960432  -0.005
C  C40  1  0.13456093  0.88253037  0.82271383  1  -0.225917  8.9e-05  3.700499  0.0  -0.270463  5e-06  3.956838  0.0  -0.27396  5e-06  3.96564  0.0  -0.148466  -0.267929  3e-06  3.950675  0.0
C  C41  1  0.88312070  0.17711563  0.88250562  1  -0.226782  -0.000655  3.699467  0.0  -0.272014  -0.000347  3.957349  0.0  -0.275155  -0.000288  3.965574  0.0  -0.148834  -0.269713  -0.000351  3.951441  0.0
C  C42  1  0.63456806  0.11747122  0.17729334  1  -0.226129  -8e-05  3.700455  0.0  -0.270681  -5e-06  3.95679  0.0  -0.274178  -4e-06  3.965587  0.0  -0.148517  -0.268149  -3e-06  3.950629  0.0
C  C43  1  0.38312195  0.82288216  0.11749456  1  -0.227041  0.00065  3.699605  0.0  -0.272236  0.000346  3.957453  0.0  -0.275368  0.000288  3.96568  0.0  -0.148882  -0.269937  0.000351  3.951549  0.0
C  C44  1  0.24340305  0.79192739  0.77578943  1  0.106088  -0.000312  3.614577  0.0  0.049262  -0.000351  3.881626  0.0  0.056372  -0.000206  3.887516  0.0  -0.069754  0.044654  -0.00048  3.877345  0.0
C  C45  1  0.99218635  0.22409922  0.79202648  1  0.106396  -0.000258  3.613042  0.0  0.050219  3e-05  3.879664  0.0  0.057265  -0.000101  3.885499  0.0  -0.070069  0.045661  0.000176  3.875401  0.0
C  C46  1  0.74341450  0.20807511  0.22421276  1  0.106235  0.000317  3.614526  0.0  0.049359  0.000352  3.88158  0.0  0.056468  0.000206  3.887478  0.0  -0.069695  0.044749  0.000481  3.877296  0.0
C  C47  1  0.49218302  0.77589464  0.20797436  1  0.106791  0.000265  3.612717  0.0  0.05053  -2.9e-05  3.879435  0.0  0.057588  0.000101  3.885268  0.0  -0.070021  0.045969  -0.000175  3.875168  0.0
C  C48  1  0.35576858  0.61676410  0.81533514  1  0.116506  -0.000235  3.603581  0.0  0.061647  -0.000288  3.869905  0.0  0.068475  -0.000175  3.876063  0.0  -0.063935  0.057226  -0.000378  3.865444  0.0
C  C49  1  0.10518110  0.18458566  0.61694140  1  0.115457  0.000248  3.604101  0.0  0.061118  0.000302  3.869858  0.0  0.067893  0.000178  3.87605  0.0  -0.064324  0.056738  0.00042  3.865388  0.0
C  C50  1  0.85577490  0.38323931  0.18465962  1  0.11653  0.000265  3.603594  0.0  0.06165  0.000288  3.869915  0.0  0.068495  0.000176  3.876078  0.0  -0.063954  0.057237  0.000379  3.865451  0.0
C  C51  1  0.60517405  0.81540701  0.38305554  1  0.1156  -0.000257  3.604299  0.0  0.06116  -0.000302  3.870208  0.0  0.067946  -0.000178  3.876399  0.0  -0.064395  0.056772  -0.000419  3.865738  0.0
C  C52  1  0.29981156  0.51038830  0.86678645  1  -0.237384  -0.000142  3.703967  0.0  -0.282647  -0.000222  3.957615  0.0  -0.285698  -0.000196  3.966025  0.0  -0.151146  -0.280471  -0.000239  3.952022  0.0
C  C53  1  0.04979644  0.13302831  0.51048421  1  -0.236885  0.000148  3.7032  0.0  -0.281913  0.000242  3.957425  0.0  -0.28492  0.000208  3.965818  0.0  -0.151484  -0.279818  0.000261  3.951883  0.0
C  C54  1  0.79981539  0.48961344  0.13321122  1  -0.237391  0.000106  3.70414  0.0  -0.282617  0.000223  3.957814  0.0  -0.285658  0.000197  3.966205  0.0  -0.151184  -0.280464  0.000239  3.952255  0.0
C  C55  1  0.54978854  0.86696511  0.48951240  1  -0.236898  -0.000142  3.702885  0.0  -0.282025  -0.000241  3.957312  0.0  -0.285029  -0.000208  3.965699  0.0  -0.151504  -0.279911  -0.000261  3.951742  0.0
C  C56  1  0.29839390  0.51220708  0.98703820  1  0.351302  -0.000699  3.701547  0.0  0.334397  -0.000445  3.97118  0.0  0.350304  -0.000323  3.98804  0.0  0.22437  0.32356  -0.000596  3.960257  0.0
C  C57  1  0.04836206  0.01279201  0.51244149  1  0.350854  9.1e-05  3.701747  0.0  0.33291  0.000284  3.972993  0.0  0.348799  0.000213  3.989815  0.0  0.223814  0.322098  0.000263  3.961991  0.0
C  C58  1  0.79840409  0.48779950  0.01296029  1  0.351432  0.000707  3.701665  0.0  0.334405  0.000447  3.971422  0.0  0.350315  0.000324  3.988289  0.0  0.22438  0.323565  0.000595  3.960501  0.0
C  C59  1  0.54835575  0.98720060  0.48755837  1  0.350995  -5.4e-05  3.701322  0.0  0.333016  -0.000284  3.972697  0.0  0.348912  -0.00021  3.989496  0.0  0.223918  0.322204  -0.000262  3.961697  0.0
N  N60  1  0.89329194  0.77478256  0.90231896  1  -0.294735  -0.077474  3.274891  -0.099  -0.268154  -0.05727  3.605018  -0.076  -0.298586  -0.048681  3.623177  -0.068  -0.265044  -0.249073  -0.059235  3.593728  -0.077
N  N61  1  0.64197358  0.09709767  0.77484723  1  -0.294967  0.082482  3.280737  0.105  -0.266898  0.060218  3.610028  0.08  -0.296689  0.051357  3.627839  0.071  -0.264537  -0.248357  0.061874  3.599182  0.08
N  N62  1  0.39330113  0.22522574  0.09769889  1  -0.29483  0.077491  3.27492  0.099  -0.26827  0.057267  3.605079  0.076  -0.298714  0.048677  3.623235  0.068  -0.265054  -0.249212  0.059237  3.593803  0.077
N  N63  1  0.14196637  0.90289908  0.22515261  1  -0.295009  -0.082503  3.280795  -0.105  -0.266906  -0.06022  3.610066  -0.08  -0.296736  -0.051365  3.627904  -0.071  -0.264533  -0.248384  -0.061879  3.599226  -0.08
N  N64  1  0.72154700  0.77390147  0.89548731  1  -0.060886  0.009445  2.936604  0.011  -0.057828  0.004376  3.239938  0.006  -0.055356  0.003489  3.252513  0.005  -0.089613  -0.059111  0.005157  3.23155  0.007
N  N65  1  0.47056740  0.10431383  0.77357606  1  -0.061907  0.004619  2.939259  0.006  -0.059079  0.003768  3.242389  0.004  -0.056895  0.001336  3.255028  0.001  -0.089941  -0.059823  0.005917  3.233695  0.007
N  N66  1  0.22155477  0.22610181  0.10452477  1  -0.060808  -0.009457  2.936365  -0.011  -0.057761  -0.004376  3.239732  -0.006  -0.055284  -0.003492  3.252298  -0.005  -0.089656  -0.059041  -0.005158  3.231351  -0.007
N  N67  1  0.97056129  0.89568242  0.22642174  1  -0.061751  -0.0046  2.939142  -0.006  -0.05893  -0.003767  3.242277  -0.004  -0.05674  -0.001336  3.254925  -0.001  -0.089864  -0.059687  -0.005917  3.233602  -0.007
N  N68  1  0.67503999  0.84972201  0.82867134  1  -0.083356  -0.008523  2.942472  -0.01  -0.079125  -0.003142  3.248729  -0.004  -0.078655  -0.002249  3.261216  -0.003  -0.097162  -0.079308  -0.003939  3.240444  -0.005
N  N69  1  0.42393915  0.17175758  0.84901188  1  -0.082844  0.006209  2.945035  0.008  -0.078418  0.004489  3.250425  0.006  -0.078181  0.002174  3.26306  0.003  -0.097132  -0.078125  0.006398  3.241984  0.008
N  N70  1  0.17504363  0.15027235  0.17133145  1  -0.083435  0.008535  2.942315  0.01  -0.079205  0.003143  3.248575  0.004  -0.078735  0.002253  3.261073  0.003  -0.097179  -0.079382  0.003939  3.240287  0.005
N  N71  1  0.92393830  0.82824105  0.15098310  1  -0.082933  -0.006215  2.945012  -0.008  -0.078539  -0.004487  3.250426  -0.006  -0.078303  -0.002176  3.263053  -0.003  -0.097188  -0.078257  -0.0064  3.241984  -0.008
N  N72  1  0.81685530  0.90013057  0.79081686  1  -0.319435  0.064372  3.259431  0.083  -0.294248  0.048637  3.595178  0.066  -0.322832  0.04126  3.611441  0.059  -0.266178  -0.275736  0.050448  3.584808  0.067
N  N73  1  0.56541215  0.20957308  0.89943486  1  -0.321167  0.070928  3.266123  0.092  -0.293957  0.052653  3.601047  0.071  -0.322121  0.04467  3.616873  0.063  -0.26636  -0.276502  0.054273  3.591394  0.071
N  N74  1  0.31686184  0.09986715  0.20918147  1  -0.319295  -0.064366  3.259412  -0.083  -0.294071  -0.048631  3.595097  -0.066  -0.322693  -0.041255  3.61139  -0.059  -0.266086  -0.275576  -0.050438  3.584722  -0.067
N  N75  1  0.06541495  0.79042763  0.10056000  1  -0.321209  -0.070933  3.266173  -0.092  -0.293947  -0.052664  3.601046  -0.071  -0.322096  -0.044673  3.616863  -0.063  -0.266411  -0.276472  -0.054279  3.591377  -0.071
N  N76  1  0.20342291  0.57822207  0.04840499  1  -0.316744  -0.069542  3.275569  -0.089  -0.285501  -0.053239  3.599603  -0.071  -0.316315  -0.04518  3.619772  -0.063  -0.271861  -0.265916  -0.054992  3.586676  -0.072
N  N77  1  0.95317247  0.95154915  0.57844969  1  -0.315649  0.071363  3.275774  0.091  -0.284357  0.053648  3.600051  0.072  -0.31511  0.045424  3.620311  0.063  -0.271428  -0.264465  0.056061  3.586949  0.073
N  N78  1  0.70343352  0.42178604  0.95159109  1  -0.316883  0.069556  3.275367  0.089  -0.285644  0.053235  3.599488  0.071  -0.316471  0.04518  3.619662  0.063  -0.271978  -0.266071  0.054995  3.586564  0.072
N  N79  1  0.45315275  0.04844790  0.42155876  1  -0.315813  -0.071403  3.275777  -0.092  -0.284446  -0.053652  3.600033  -0.072  -0.315242  -0.045428  3.620332  -0.063  -0.271511  -0.264578  -0.056063  3.586942  -0.073
N  N80  1  0.23622167  0.55474464  0.15333676  1  -0.077515  0.008213  2.938312  0.01  -0.073089  0.00314  3.243375  0.004  -0.071195  0.002408  3.255358  0.004  -0.096126  -0.074044  0.003792  3.235313  0.005
N  N81  1  0.98584893  0.84660347  0.55506574  1  -0.078231  -0.00817  2.938728  -0.01  -0.073488  -0.003081  3.243536  -0.004  -0.071474  -0.002368  3.255379  -0.004  -0.096201  -0.074637  -0.003805  3.235585  -0.005
N  N82  1  0.73623709  0.44526835  0.84665823  1  -0.07727  -0.008229  2.938037  -0.01  -0.072817  -0.003138  3.243058  -0.004  -0.070921  -0.002414  3.255045  -0.004  -0.096026  -0.073773  -0.003793  3.235007  -0.005
N  N83  1  0.48583788  0.15339361  0.44493920  1  -0.078177  0.008174  2.938724  0.01  -0.073432  0.003078  3.243503  0.004  -0.071416  0.002371  3.255359  0.004  -0.096175  -0.074578  0.003803  3.235551  0.005
N  N84  1  0.34762984  0.47649951  0.15650457  1  -0.071455  -0.010613  2.922799  -0.013  -0.075823  -0.004901  3.230262  -0.007  -0.072948  -0.003764  3.24071  -0.005  -0.099322  -0.077568  -0.005922  3.223308  -0.007
N  N85  1  0.09741612  0.84333206  0.47690166  1  -0.071364  0.01054  2.922934  0.013  -0.075857  0.004886  3.230233  0.006  -0.073057  0.003747  3.240622  0.005  -0.099456  -0.077524  0.005816  3.223317  0.007
N  N86  1  0.84764424  0.52351358  0.84349349  1  -0.071552  0.010614  2.922779  0.013  -0.075931  0.004903  3.230221  0.007  -0.073053  0.003762  3.240667  0.005  -0.099306  -0.077683  0.005921  3.223262  0.007
N  N87  1  0.59742623  0.15666384  0.52308969  1  -0.07152  -0.010529  2.923292  -0.013  -0.076018  -0.004887  3.230616  -0.006  -0.073222  -0.003742  3.240997  -0.005  -0.099533  -0.077685  -0.005816  3.223694  -0.007
N  N88  1  0.38855593  0.44888583  0.05368388  1  -0.315355  0.065752  3.262711  0.085  -0.286378  0.048976  3.593406  0.067  -0.315211  0.041395  3.610308  0.059  -0.263185  -0.267874  0.051255  3.582678  0.068
N  N89  1  0.13858612  0.94609713  0.44923696  1  -0.316622  -0.063963  3.261042  -0.083  -0.2868  -0.048802  3.59129  -0.067  -0.315246  -0.041398  3.608165  -0.059  -0.263183  -0.268625  -0.050367  3.580695  -0.066
N  N90  1  0.88856440  0.55112165  0.94631464  1  -0.315444  -0.065759  3.263015  -0.085  -0.2864  -0.048981  3.593682  -0.067  -0.315234  -0.041399  3.610591  -0.059  -0.263186  -0.267865  -0.051253  3.582933  -0.068
N  N91  1  0.63860050  0.05389719  0.55075242  1  -0.316555  0.063932  3.260921  0.083  -0.286753  0.048794  3.591192  0.067  -0.315155  0.041382  3.608035  0.059  -0.263101  -0.268562  0.050357  3.580594  0.066
O  O92  1  0.24407215  0.70218146  0.84972052  1  -0.343737  -0.002099  2.287515  -0.004  -0.271544  -0.002836  2.551859  -0.005  -0.289892  -0.001895  2.55047  -0.004  -0.235894  -0.258968  -0.003541  2.552842  -0.006
O  O93  1  0.99295272  0.15031029  0.70215151  1  -0.343836  0.002118  2.288866  0.004  -0.271794  0.002759  2.552954  0.005  -0.290168  0.001837  2.55161  0.003  -0.236166  -0.259088  0.003519  2.553906  0.005
O  O94  1  0.74407135  0.29782023  0.15028086  1  -0.34375  0.002097  2.287442  0.004  -0.271568  0.002837  2.551817  0.005  -0.289927  0.001895  2.55043  0.004  -0.235902  -0.258993  0.003543  2.552798  0.006
O  O95  1  0.49294640  0.84968033  0.29785094  1  -0.34394  -0.002116  2.288842  -0.004  -0.271905  -0.002758  2.553053  -0.005  -0.290321  -0.001836  2.551747  -0.003  -0.236161  -0.259197  -0.003517  2.55401  -0.005
