# generated using pymatgen
data_Zn4H44C56N16O5
_symmetry_space_group_name_H-M   'P 1'
_cell_length_a   15.64026422
_cell_length_b   15.89486171
_cell_length_c   17.58777278
_cell_angle_alpha   104.61821924
_cell_angle_beta   107.58290265
_cell_angle_gamma   110.84837491
_symmetry_Int_Tables_number   1
_chemical_formula_structural   Zn4H44C56N16O5
_chemical_formula_sum   'Zn4 H44 C56 N16 O5'
_cell_volume   3563.16114429
_cell_formula_units_Z   1
loop_
 _symmetry_equiv_pos_site_id
 _symmetry_equiv_pos_as_xyz
  1  'x, y, z'
loop_
 _atom_site_type_symbol
 _atom_site_label
 _atom_site_symmetry_multiplicity
 _atom_site_fract_x
 _atom_site_fract_y
 _atom_site_fract_z
 _atom_site_occupancy
 _atom_site_pbe_bader_charge
 _atom_site_pbe_bader_spin_density
 _atom_site_pbe_cm5_charge
 _atom_site_pbe_ddec_charge
 _atom_site_pbe_ddec_spin_density
 _atom_site_pbe_ddec_sum_bond_order
 _atom_site_pbe_magmom
Zn  Zn0  1  0.87232644  0.87384031  0.49742183  1  1.189459  0  0.745962  0.609915  0  2.458821  0
Zn  Zn1  1  0.13341572  0.12596816  0.49951910  1  1.197427  0  0.747861  0.661009  0  2.38913  0
Zn  Zn2  1  0.12069986  0.99592795  0.62305813  1  1.203802  0  0.753975  0.686724  0  2.296037  0
Zn  Zn3  1  0.88682661  0.00915908  0.38678472  1  1.192235  0  0.751207  0.612347  0  2.491401  0
H  H4  1  0.79309669  0.76338366  0.62085444  1  0.08455  0  0.123211  0.11525  0  0.984653  0
H  H5  1  0.85195489  0.18051354  0.32357538  1  0.07568  0  0.122323  0.112459  0  0.98683  0
H  H6  1  0.64835920  0.67498707  0.35252187  1  0.094032  0  0.123264  0.113284  0  0.988081  0
H  H7  1  0.44827048  0.24499175  0.54473034  1  0.631706  0  0.346666  0.379803  0  0.860282  0
H  H8  1  0.27478423  0.73545764  0.69316327  1  0.019785  0  0.084551  0.110267  0  1.0034  0
H  H9  1  0.27034133  0.83878117  0.75719961  1  0.01624  0  0.079034  0.100991  0  1.017875  0
H  H10  1  0.19583748  0.71931557  0.74825295  1  0.020199  0  0.088511  0.116525  0  0.99934  0
H  H11  1  0.08751807  0.77106767  0.65400094  1  0.016893  0  0.083597  0.073559  0  1.007583  0
H  H12  1  0.08898810  0.66719493  0.58986373  1  0.0434  0  0.091673  0.085771  0  0.979217  0
H  H13  1  0.21353034  0.77037558  0.54966403  1  0.054634  0  0.101111  0.10808  0  0.964794  0
H  H14  1  0.22685053  0.87904491  0.62231085  1  -0.007582  0  0.091452  0.083409  0  1.024963  0
H  H15  1  0.86449398  0.84796974  0.22146218  1  0.089336  0  0.122042  0.113104  0  0.990376  0
H  H16  1  0.22330212  0.97834313  0.31886567  1  0.607059  0  0.344179  0.375271  0  0.864516  0
H  H17  1  0.39752312  0.42692013  0.08099875  1  0.601812  0  0.333986  0.359299  0  0.883243  0
H  H18  1  0.80648310  0.73632169  0.90843600  1  0.615756  0  0.336008  0.365302  0  0.875727  0
H  H19  1  0.37961238  0.50313295  0.48360362  1  0.033532  0  0.084308  0.108871  0  1.00412  0
H  H20  1  0.41284688  0.41230200  0.50357506  1  0.015979  0  0.081456  0.108303  0  1.014104  0
H  H21  1  0.39868952  0.42707300  0.40425329  1  0.02305  0  0.083682  0.107395  0  1.006337  0
H  H22  1  0.24507211  0.27880502  0.37900809  1  0.023746  0  0.087984  0.078073  0  0.976148  0
H  H23  1  0.21206374  0.36915196  0.35945770  1  0.035778  0  0.091639  0.082013  0  0.972945  0
H  H24  1  0.22182489  0.42740104  0.51065756  1  0.062503  0  0.099665  0.105508  0  0.967031  0
H  H25  1  0.25181603  0.33426266  0.52797831  1  0.033068  0  0.094333  0.092846  0  0.995243  0
H  H26  1  0.85895934  0.69791415  0.34540423  1  0.101434  0  0.12055  0.112584  0  0.998236  0
H  H27  1  0.29123902  0.87001877  0.96951519  1  0.016018  0  0.082203  0.105745  0  1.011464  0
H  H28  1  0.35084527  0.96998610  0.07259627  1  0.000966  0  0.081823  0.104726  0  1.008274  0
H  H29  1  0.36400064  0.86187014  0.06406235  1  0.023636  0  0.086209  0.112479  0  1.004642  0
H  H30  1  0.23629613  0.86151258  0.12312477  1  0.019992  0  0.085743  0.073728  0  0.985022  0
H  H31  1  0.17616082  0.76462375  0.01926749  1  0.039103  0  0.09206  0.084866  0  0.966026  0
H  H32  1  0.12422087  0.87063165  0.95198523  1  0.007169  0  0.083698  0.06808  0  1.036895  0
H  H33  1  0.18090583  0.96603161  0.05726809  1  0.055082  0  0.090516  0.085553  0  0.974418  0
H  H34  1  0.37969497  0.24509821  0.98075867  1  0.00814  0  0.079249  0.10335  0  1.02099  0
H  H35  1  0.35917911  0.13223863  0.90720753  1  0.021469  0  0.078008  0.102237  0  1.016536  0
H  H36  1  0.46954111  0.24336720  0.93889362  1  0.01968  0  0.085514  0.112228  0  1.002792  0
H  H37  1  0.66425635  0.85831406  0.20675207  1  0.094701  0  0.125777  0.116378  0  0.983172  0
H  H38  1  0.34195720  0.19598277  0.78873623  1  0.025713  0  0.080117  0.066974  0  1.015175  0
H  H39  1  0.36265677  0.30823521  0.86138938  1  0.056077  0  0.090021  0.08571  0  0.98254  0
H  H40  1  0.20496978  0.22601502  0.87456783  1  0.067416  0  0.099274  0.112405  0  0.971782  0
H  H41  1  0.18442446  0.10833511  0.81109233  1  0.049787  0  0.087928  0.091008  0  1.036763  0
H  H42  1  0.12516506  0.93384041  0.85921616  1  0.615719  0  0.336027  0.36947  0  0.890933  0
H  H43  1  0.36264992  0.02232714  0.68174337  1  0.089967  0  0.123659  0.113301  0  0.99171  0
H  H44  1  0.34976422  0.60059475  0.96052689  1  0.068654  0  0.109806  0.130498  0  0.985486  0
H  H45  1  0.82401358  0.16287072  0.48807902  1  0.098822  0  0.122898  0.113011  0  0.993401  0
H  H46  1  0.10842339  0.30328616  0.60755687  1  0.098099  0  0.120337  0.114834  0  0.998867  0
H  H47  1  0.82652758  0.99279661  0.64621420  1  0.108793  0  0.123852  0.11647  0  0.992398  0
C  C48  1  0.87433823  0.81228539  0.65323303  1  0.506489  0  0.013676  -0.041658  0  4.010395  0
C  C49  1  0.93211167  0.73997257  0.40196830  1  0.435425  0  0.01435  -0.042178  0  3.953954  0
C  C50  1  0.67587290  0.82707056  0.25483726  1  0.445694  0  0.019074  -0.050527  0  3.965638  0
C  C51  1  0.10025204  0.28228803  0.43553525  1  0.486078  0  0.101529  0.162622  0  3.976722  0
C  C52  1  0.34815050  0.06596121  0.64582212  1  0.48153  0  0.021341  -0.022982  0  3.998735  0
C  C53  1  0.61580100  0.73242785  0.24785727  1  0.168054  0  -0.031287  0.033233  0  4.213031  0
C  C54  1  0.41502416  0.12870934  0.62201930  1  0.125208  0  -0.047479  -0.107154  0  4.254513  0
C  C55  1  0.00694032  0.71181776  0.43349594  1  0.108033  0  -0.030136  -0.02834  0  4.184121  0
C  C56  1  0.03163378  0.90301229  0.25814608  1  0.137371  0  -0.044806  -0.094136  0  4.237224  0
C  C57  1  0.74275747  0.12958847  0.61539746  1  0.099418  0  -0.035195  -0.073863  0  4.092458  0
C  C58  1  0.67579412  0.14509747  0.62842179  1  -0.336337  0  -0.057798  -0.058404  0  4.34282  0
C  C59  1  0.01655387  0.29547657  0.39200405  1  0.103772  0  -0.032975  -0.03058  0  4.200543  0
C  C60  1  0.59368923  0.15042971  0.63421223  1  -0.058384  0  -0.058783  -0.059076  0  4.351359  0
C  C61  1  0.51205688  0.14440835  0.63142070  1  -0.166097  0  -0.050619  -0.085536  0  4.17077  0
C  C62  1  0.01710360  0.38196377  0.38648633  1  -0.299363  0  -0.040016  -0.074756  0  4.128793  0
C  C63  1  0.16395415  0.19624572  0.74011888  1  0.464579  0  0.106162  0.183838  0  3.932662  0
C  C64  1  0.01445692  0.45826576  0.38628725  1  0.037743  0  -0.057793  -0.062234  0  4.348632  0
C  C65  1  0.01099182  0.54330846  0.39328005  1  0.195976  0  -0.055774  -0.062074  0  4.341936  0
C  C66  1  0.00591595  0.62067899  0.40542801  1  -0.376886  0  -0.035455  -0.067549  0  4.112513  0
C  C67  1  0.21191261  0.37370869  0.80497945  1  -0.396925  0  -0.052705  -0.107437  0  4.153278  0
C  C68  1  0.32995868  0.52551714  0.95491068  1  0.200045  0  -0.109598  -0.214783  0  4.097795  0
C  C69  1  0.37760142  0.51426131  0.02822254  1  0.494543  0  0.077079  0.316391  0  4.178311  0
C  C70  1  0.16535299  0.28378069  0.73292597  1  0.119125  0  -0.028724  -0.01588  0  4.172387  0
C  C71  1  0.45503100  0.59288079  0.10671417  1  -0.272108  0  -0.069145  -0.213255  0  4.199403  0
C  C72  1  0.26340621  0.44598148  0.87460350  1  0.024184  0  -0.059593  -0.043533  0  4.220835  0
C  C73  1  0.52815404  0.65645508  0.17464313  1  -0.100214  0  -0.046883  -0.058063  0  4.17261  0
C  C74  1  0.04127497  0.87064177  0.18086089  1  -0.414672  0  -0.064629  -0.112142  0  4.207842  0
C  C75  1  0.83217002  0.11355970  0.51927479  1  0.461113  0  0.021438  -0.039366  0  3.931608  0
C  C76  1  0.04344078  0.84119569  0.02798298  1  0.19252  0  -0.02563  0.003394  0  4.041851  0
C  C77  1  0.95187520  0.79867393  0.95589216  1  0.571204  0  0.074469  0.256349  0  4.161249  0
C  C78  1  0.94406486  0.80131620  0.87490131  1  -0.005295  0  -0.067682  -0.208616  0  4.221808  0
C  C79  1  0.04443453  0.85227363  0.10998703  1  0.046093  0  -0.053847  -0.088176  0  4.182579  0
C  C80  1  0.93596118  0.81112284  0.80646874  1  -0.410726  0  -0.053923  -0.057516  0  4.211104  0
C  C81  1  0.80353395  0.09710796  0.58524530  1  0.123768  0  -0.027087  0.035761  0  4.194545  0
C  C82  1  0.12153698  0.25842993  0.64254962  1  0.413607  0  0.011822  -0.042642  0  3.95372  0
C  C83  1  0.83372603  0.02687773  0.60068110  1  0.439048  0  0.018676  -0.039675  0  3.914829  0
C  C84  1  0.93159526  0.20305010  0.36072748  1  0.439326  0  0.014877  -0.048318  0  3.995979  0
C  C85  1  0.03751281  0.90347691  0.74330983  1  1.060325  0  0.191261  0.35259  0  4.115216  0
C  C86  1  0.94456808  0.83686505  0.73782634  1  0.108179  0  -0.049075  -0.105627  0  4.255028  0
C  C87  1  0.17276419  0.80146825  0.57903738  1  0.023026  0  -0.153812  -0.211687  0  3.972304  0
C  C88  1  0.13681426  0.74587722  0.63283817  1  -0.001653  0  -0.164274  -0.081783  0  3.935488  0
C  C89  1  0.22436313  0.76063371  0.71211844  1  -0.060501  0  -0.245749  -0.355427  0  3.993473  0
C  C90  1  0.21062842  0.35295159  0.47747726  1  -0.027032  0  -0.154174  -0.215316  0  3.982817  0
C  C91  1  0.25575896  0.35333403  0.41088704  1  0.004403  0  -0.161761  -0.081017  0  3.95161  0
C  C92  1  0.66760488  0.73307314  0.32921342  1  0.435496  0  0.015721  -0.055245  0  3.965499  0
C  C93  1  0.36801329  0.42805337  0.45286349  1  -0.078596  0  -0.244686  -0.352815  0  3.99064  0
C  C94  1  0.14228922  0.88528353  0.02107895  1  -0.032207  0  -0.154696  -0.166401  0  3.978701  0
C  C95  1  0.21558278  0.84536820  0.05351745  1  -0.017508  0  -0.166238  -0.093178  0  3.966372  0
C  C96  1  0.31066407  0.88913624  0.03932802  1  -0.040881  0  -0.244514  -0.351518  0  3.99281  0
C  C97  1  0.21628962  0.18600987  0.82066353  1  -0.010621  0  -0.161128  -0.224913  0  3.963557  0
C  C98  1  0.33118226  0.22892029  0.84585948  1  -0.028923  0  -0.166797  -0.081555  0  3.936119  0
C  C99  1  0.38806353  0.21140583  0.92245300  1  -0.063396  0  -0.246955  -0.352058  0  3.9966  0
C  C100  1  0.35562010  0.16582210  0.57766262  1  1.077841  0  0.192618  0.362764  0  4.114821  0
C  C101  1  0.08463299  0.79562032  0.51018441  1  0.457754  0  0.105592  0.178512  0  3.937941  0
C  C102  1  0.94326730  0.89284232  0.26918189  1  0.480393  0  0.019679  -0.017343  0  3.95886  0
C  C103  1  0.11081865  0.97006907  0.34189849  1  1.054137  0  0.191473  0.362293  0  4.082584  0
N  N104  1  0.92166312  0.85982675  0.61324293  1  -0.813112  0  -0.270484  -0.171453  0  3.55786  0
N  N105  1  0.12078715  0.12567454  0.65942480  1  -0.8061  0  -0.280226  -0.243256  0  3.583213  0
N  N106  1  0.87308556  0.05581723  0.49680476  1  -0.821137  0  -0.279538  -0.177277  0  3.663581  0
N  N107  1  0.09612556  0.16354532  0.59911886  1  -0.793557  0  -0.289738  -0.214137  0  3.616529  0
N  N108  1  0.87427060  0.00273864  0.54642440  1  -0.77135  0  -0.280071  -0.18055  0  3.629875  0
N  N109  1  0.96162877  0.14036659  0.38363367  1  -0.785035  0  -0.276639  -0.17756  0  3.593151  0
N  N110  1  0.02401346  0.91765171  0.66995313  1  -0.807457  0  -0.269933  -0.28873  0  3.438233  0
N  N111  1  0.75091640  0.82055072  0.37954222  1  -0.807191  0  -0.265414  -0.169606  0  3.536258  0
N  N112  1  0.26321407  0.12885123  0.57532683  1  -0.815621  0  -0.278314  -0.275066  0  3.462077  0
N  N113  1  0.05685470  0.86699519  0.52023541  1  -0.807553  0  -0.276251  -0.237653  0  3.577013  0
N  N114  1  0.96888546  0.95008544  0.35111629  1  -0.795912  0  -0.292185  -0.198053  0  3.676061  0
N  N115  1  0.07289440  0.99811976  0.39683026  1  -0.827394  0  -0.289792  -0.289294  0  3.515665  0
N  N116  1  0.96277883  0.83294230  0.45542495  1  -0.780123  0  -0.287285  -0.192106  0  3.63493  0
N  N117  1  0.75576259  0.87874179  0.33327001  1  -0.792831  0  -0.264501  -0.168011  0  3.549622  0
N  N118  1  0.25855742  0.06590226  0.61799876  1  -0.81033  0  -0.269517  -0.194587  0  3.541637  0
N  N119  1  0.06577905  0.18934772  0.43002211  1  -0.814914  0  -0.264627  -0.229695  0  3.483067  0
O  O120  1  0.37980303  0.22899337  0.53931909  1  -1.161458  0  -0.339262  -0.455128  0  2.281149  0
O  O121  1  0.21224180  0.00745094  0.36861701  1  -1.130446  0  -0.338552  -0.442282  0  2.26761  0
O  O122  1  0.35293646  0.42045176  0.02502661  1  -1.088513  0  -0.340887  -0.430374  0  2.242627  0
O  O123  1  0.86289114  0.75796078  0.96414113  1  -1.111418  0  -0.350781  -0.434444  0  2.233622  0
O  O124  1  0.13145612  0.94896077  0.80998418  1  -1.142241  0  -0.334367  -0.443168  0  2.294817  0
