# generated using pymatgen
data_PrH11C11O9
_symmetry_space_group_name_H-M   'P 1'
_cell_length_a   7.83803954
_cell_length_b   12.34896234
_cell_length_c   13.01500631
_cell_angle_alpha   90.34655931
_cell_angle_beta   90.00002780
_cell_angle_gamma   90.00012871
_symmetry_Int_Tables_number   1
_chemical_formula_structural   PrH11C11O9
_chemical_formula_sum   'Pr4 H44 C44 O36'
_cell_volume   1259.72095813
_cell_formula_units_Z   4
loop_
 _symmetry_equiv_pos_site_id
 _symmetry_equiv_pos_as_xyz
  1  'x, y, z'
loop_
 _atom_site_type_symbol
 _atom_site_label
 _atom_site_symmetry_multiplicity
 _atom_site_fract_x
 _atom_site_fract_y
 _atom_site_fract_z
 _atom_site_occupancy
 _atom_site_hle17_bader_spin_density
 _atom_site_hle17_ddec_charge
 _atom_site_hle17_ddec_spin_density
 _atom_site_hle17_ddec_sum_bond_order
 _atom_site_hle17_magmom
 _atom_site_hse06_10hf_bader_spin_density
 _atom_site_hse06_10hf_ddec_charge
 _atom_site_hse06_10hf_ddec_spin_density
 _atom_site_hse06_10hf_ddec_sum_bond_order
 _atom_site_hse06_10hf_magmom
 _atom_site_hse06_bader_spin_density
 _atom_site_hse06_ddec_charge
 _atom_site_hse06_ddec_spin_density
 _atom_site_hse06_ddec_sum_bond_order
 _atom_site_hse06_magmom
 _atom_site_pbe_bader_spin_density
 _atom_site_pbe_cm5_charge
 _atom_site_pbe_ddec_charge
 _atom_site_pbe_ddec_spin_density
 _atom_site_pbe_ddec_sum_bond_order
 _atom_site_pbe_magmom
Pr  Pr0  1  0.92577559  0.97539082  0.68900094  1  0  2.35401  0  1.5603  0  0  2.240222  0  1.923417  0  0  2.280244  0  1.880154  0  0  1.485913  2.16069  0  2.045752  0
Pr  Pr1  1  0.42577648  0.02460999  0.81099973  1  0  2.354005  0  1.560312  0  0  2.240218  0  1.923434  0  0  2.280243  0  1.880167  0  0  1.485919  2.160702  0  2.045744  0
Pr  Pr2  1  0.07422409  0.02460989  0.31099916  1  0  2.353978  0  1.560349  0  0  2.24019  0  1.923486  0  0  2.280218  0  1.88022  0  0  1.48588  2.160628  0  2.045884  0
Pr  Pr3  1  0.57422320  0.97538911  0.18900036  1  0  2.35399  0  1.560307  0  0  2.240215  0  1.92343  0  0  2.280237  0  1.880167  0  0  1.485908  2.160671  0  2.045785  0
H  H4  1  0.43548655  0.57499060  0.90199326  1  0  0.082007  0  0.954699  0  0  0.09512  0  1.01221  0  0  0.097064  0  1.011577  0  0  0.098148  0.093668  0  1.012785  0
H  H5  1  0.93548875  0.42501022  0.59800664  1  0  0.082001  0  0.954761  0  0  0.095116  0  1.012264  0  0  0.09706  0  1.011632  0  0  0.09815  0.093665  0  1.012839  0
H  H6  1  0.56451313  0.42500930  0.09800683  1  0  0.082014  0  0.954685  0  0  0.095128  0  1.012197  0  0  0.097071  0  1.011564  0  0  0.098153  0.093677  0  1.012771  0
H  H7  1  0.06451221  0.57499049  0.40199346  1  0  0.081987  0  0.954751  0  0  0.095106  0  1.01225  0  0  0.097049  0  1.011619  0  0  0.09815  0.093655  0  1.012825  0
H  H8  1  0.62706408  0.73524266  0.89884795  1  0  0.136788  0  0.948827  0  0  0.145756  0  1.008401  0  0  0.15034  0  1.005902  0  0  0.112938  0.142354  0  1.010642  0
H  H9  1  0.12706437  0.26475853  0.60115109  1  0  0.136788  0  0.948823  0  0  0.145762  0  1.008382  0  0  0.150347  0  1.005881  0  0  0.112948  0.142359  0  1.010625  0
H  H10  1  0.37293560  0.26475643  0.10115214  1  0  0.136785  0  0.948823  0  0  0.145759  0  1.008387  0  0  0.150344  0  1.005887  0  0  0.112936  0.142358  0  1.010629  0
H  H11  1  0.87293531  0.73524219  0.39884824  1  0  0.136791  0  0.948828  0  0  0.145766  0  1.008388  0  0  0.150351  0  1.005886  0  0  0.112932  0.142363  0  1.010632  0
H  H12  1  0.05987849  0.52220057  0.86051338  1  0  0.115942  0  0.989936  0  0  0.125352  0  1.056485  0  0  0.128512  0  1.05566  0  0  0.103612  0.123108  0  1.057162  0
H  H13  1  0.55987835  0.47779971  0.63948641  1  0  0.115944  0  0.989963  0  0  0.125364  0  1.0565  0  0  0.128524  0  1.05568  0  0  0.103628  0.123118  0  1.057179  0
H  H14  1  0.94011992  0.47779933  0.13948672  1  0  0.115942  0  0.989954  0  0  0.125347  0  1.056512  0  0  0.128507  0  1.055688  0  0  0.103611  0.123102  0  1.057189  0
H  H15  1  0.44012133  0.52220019  0.36051368  1  0  0.115934  0  0.989966  0  0  0.125352  0  1.056506  0  0  0.128512  0  1.055686  0  0  0.103627  0.123107  0  1.057185  0
H  H16  1  0.55392655  0.38746381  0.88242269  1  0  0.128428  0  0.942216  0  0  0.13909  0  1.001323  0  0  0.143532  0  0.998675  0  0  0.107886  0.13582  0  1.003543  0
H  H17  1  0.05392936  0.61253566  0.61757710  1  0  0.12845  0  0.94219  0  0  0.139115  0  1.001291  0  0  0.143556  0  0.998644  0  0  0.107906  0.135846  0  1.003511  0
H  H18  1  0.44607186  0.61253610  0.11757741  1  0  0.128444  0  0.942227  0  0  0.139106  0  1.001332  0  0  0.143549  0  0.998683  0  0  0.107894  0.135837  0  1.003551  0
H  H19  1  0.94607160  0.38746425  0.38242300  1  0  0.128444  0  0.94222  0  0  0.139109  0  1.00132  0  0  0.14355  0  0.998672  0  0  0.107896  0.135839  0  1.00354  0
H  H20  1  0.10949392  0.34008860  0.92938202  1  0  0.087796  0  0.94812  0  0  0.097868  0  1.011668  0  0  0.098883  0  1.011554  0  0  0.107092  0.097034  0  1.012178  0
H  H21  1  0.60949182  0.65991175  0.57061702  1  0  0.08779  0  0.948139  0  0  0.097864  0  1.011681  0  0  0.098879  0  1.011567  0  0  0.107084  0.097032  0  1.012189  0
H  H22  1  0.89050704  0.65991130  0.07061731  1  0  0.087762  0  0.94814  0  0  0.09784  0  1.011683  0  0  0.098854  0  1.011571  0  0  0.107084  0.097017  0  1.012183  0
H  H23  1  0.39050914  0.34008815  0.42938308  1  0  0.08779  0  0.948153  0  0  0.097874  0  1.011686  0  0  0.098887  0  1.011573  0  0  0.107096  0.097044  0  1.012189  0
H  H24  1  0.10601473  0.36807029  0.79481850  1  0  0.086368  0  0.96391  0  0  0.100115  0  1.023357  0  0  0.100599  0  1.024228  0  0  0.108264  0.099755  0  1.023049  0
H  H25  1  0.60601263  0.63193086  0.70518053  1  0  0.08639  0  0.963912  0  0  0.100139  0  1.023351  0  0  0.100623  0  1.024221  0  0  0.108278  0.09978  0  1.023042  0
H  H26  1  0.89398495  0.63193042  0.20518160  1  0  0.086353  0  0.963899  0  0  0.100123  0  1.023319  0  0  0.100608  0  1.024189  0  0  0.108271  0.099764  0  1.023013  0
H  H27  1  0.39398705  0.36806904  0.29481956  1  0  0.086371  0  0.963843  0  0  0.100126  0  1.023289  0  0  0.100609  0  1.024158  0  0  0.108272  0.099767  0  1.022982  0
H  H28  1  0.17134028  0.67189664  0.80324924  1  0  0.101901  0  0.923722  0  0  0.111172  0  0.988419  0  0  0.112901  0  0.987093  0  0  0.118592  0.109931  0  0.989617  0
H  H29  1  0.67134093  0.32810380  0.69675059  1  0  0.101889  0  0.923707  0  0  0.111159  0  0.988408  0  0  0.112886  0  0.987081  0  0  0.118589  0.109917  0  0.989607  0
H  H30  1  0.82865940  0.32810326  0.19675086  1  0  0.101904  0  0.923702  0  0  0.111181  0  0.988395  0  0  0.112907  0  0.987069  0  0  0.118594  0.109939  0  0.989595  0
H  H31  1  0.32865875  0.67189610  0.30324874  1  0  0.101888  0  0.923719  0  0  0.111159  0  0.988424  0  0  0.112886  0  0.987098  0  0  0.118584  0.109917  0  0.989623  0
H  H32  1  0.17945206  0.67782003  0.94112462  1  0  0.092802  0  0.934165  0  0  0.099532  0  1.001804  0  0  0.10134  0  1.000396  0  0  0.11097  0.098168  0  1.003164  0
H  H33  1  0.67945259  0.32218043  0.55887520  1  0  0.092777  0  0.934181  0  0  0.099509  0  1.001819  0  0  0.101314  0  1.00041  0  0  0.110968  0.098145  0  1.003179  0
H  H34  1  0.82054762  0.32217988  0.05887547  1  0  0.092797  0  0.934173  0  0  0.099533  0  1.001807  0  0  0.101338  0  1.000399  0  0  0.11097  0.098169  0  1.003168  0
H  H35  1  0.32054837  0.67782029  0.44112490  1  0  0.092783  0  0.934181  0  0  0.099516  0  1.001821  0  0  0.101321  0  1.000413  0  0  0.110963  0.098152  0  1.003181  0
H  H36  1  0.58817187  0.93227848  0.45755644  1  0  0.016809  0  0.912899  0  0  0.025451  0  0.983269  0  0  0.0258  0  0.97854  0  0  0.124048  0.024687  0  0.987216  0
H  H37  1  0.08817270  0.06772216  0.04244386  1  0  0.016762  0  0.912899  0  0  0.025385  0  0.983311  0  0  0.02573  0  0.978581  0  0  0.124046  0.024623  0  0.987255  0
H  H38  1  0.41182909  0.06772223  0.54244442  1  0  0.016796  0  0.912895  0  0  0.025446  0  0.983261  0  0  0.025793  0  0.978534  0  0  0.12406  0.024684  0  0.987206  0
H  H39  1  0.91182698  0.93227855  0.95755624  1  0  0.016798  0  0.912887  0  0  0.025478  0  0.983227  0  0  0.025828  0  0.978496  0  0  0.124065  0.024713  0  0.987175  0
H  H40  1  0.10380314  0.82542196  0.53421491  1  0  0.441649  0  0.849461  0  0  0.413816  0  0.907915  0  0  0.423621  0  0.89369  0  0  0.308045  0.406802  0  0.917943  0
H  H41  1  0.60380347  0.17457758  0.96578566  1  0  0.441666  0  0.849438  0  0  0.413846  0  0.907876  0  0  0.423651  0  0.893651  0  0  0.308047  0.406832  0  0.917904  0
H  H42  1  0.89619654  0.17457794  0.46578518  1  0  0.441667  0  0.84944  0  0  0.413843  0  0.907884  0  0  0.423649  0  0.893659  0  0  0.308067  0.406829  0  0.917912  0
H  H43  1  0.39619749  0.82542151  0.03421367  1  0  0.441668  0  0.849434  0  0  0.413842  0  0.907881  0  0  0.423648  0  0.893655  0  0  0.308046  0.406828  0  0.917909  0
H  H44  1  0.22398629  0.82166608  0.63178813  1  0  0.437469  0  0.847712  0  0  0.403438  0  0.924077  0  0  0.413975  0  0.908526  0  0  0.305616  0.395741  0  0.935286  0
H  H45  1  0.72398528  0.17833444  0.86821248  1  0  0.437481  0  0.847699  0  0  0.40345  0  0.924059  0  0  0.413987  0  0.908509  0  0  0.305615  0.395753  0  0.93527  0
H  H46  1  0.77601467  0.17833383  0.36821196  1  0  0.437464  0  0.847726  0  0  0.403436  0  0.924077  0  0  0.413973  0  0.908527  0  0  0.305617  0.395739  0  0.935288  0
H  H47  1  0.27601440  0.82166546  0.13178839  1  0  0.437477  0  0.84769  0  0  0.403443  0  0.924064  0  0  0.413981  0  0.908513  0  0  0.30561  0.395746  0  0.935274  0
C  C48  1  0.57220184  0.56340644  0.89202922  1  0  -0.020474  0  3.825623  0  0  -0.03119  0  4.079812  0  0  -0.028173  0  4.099134  0  0  -0.092354  -0.032989  0  4.06657  0
C  C49  1  0.07220275  0.43659386  0.60796904  1  0  -0.020501  0  3.825674  0  0  -0.031217  0  4.079858  0  0  -0.028201  0  4.099182  0  0  -0.092357  -0.033016  0  4.066617  0
C  C50  1  0.42779784  0.43659265  0.10797011  1  0  -0.020452  0  3.825609  0  0  -0.031168  0  4.079796  0  0  -0.02815  0  4.099118  0  0  -0.09234  -0.032966  0  4.066554  0
C  C51  1  0.92779693  0.56340605  0.39203182  1  0  -0.020419  0  3.82565  0  0  -0.031134  0  4.079829  0  0  -0.028117  0  4.099153  0  0  -0.092365  -0.032933  0  4.066587  0
C  C52  1  0.67850409  0.65377383  0.89120545  1  0  -0.212254  0  3.730348  0  0  -0.240132  0  3.990692  0  0  -0.245742  0  4.006061  0  0  -0.115329  -0.236647  0  3.981035  0
C  C53  1  0.17850468  0.34622743  0.60879284  1  0  -0.212228  0  3.730336  0  0  -0.240115  0  3.990683  0  0  -0.245726  0  4.006044  0  0  -0.115342  -0.236628  0  3.981025  0
C  C54  1  0.32149559  0.34622607  0.10879465  1  0  -0.212275  0  3.730365  0  0  -0.240151  0  3.990705  0  0  -0.245764  0  4.006072  0  0  -0.115337  -0.236667  0  3.981049  0
C  C55  1  0.82149500  0.65377247  0.39120649  1  0  -0.212295  0  3.730401  0  0  -0.240194  0  3.990769  0  0  -0.245804  0  4.006131  0  0  -0.115311  -0.236707  0  3.981111  0
C  C56  1  0.85410281  0.63826383  0.87794164  1  0  0.292658  0  3.825028  0  0  0.285506  0  4.085004  0  0  0.298843  0  4.098937  0  0  0.082136  0.276319  0  4.075704  0
C  C57  1  0.35410219  0.36173768  0.62205747  1  0  0.292643  0  3.825103  0  0  0.285515  0  4.085059  0  0  0.298867  0  4.098977  0  0  0.082132  0.276332  0  4.075755  0
C  C58  1  0.14589687  0.36173526  0.12205846  1  0  0.292694  0  3.824988  0  0  0.285549  0  4.084956  0  0  0.298897  0  4.098879  0  0  0.082165  0.276366  0  4.075653  0
C  C59  1  0.64589749  0.63826222  0.37794262  1  0  0.292678  0  3.825113  0  0  0.285552  0  4.085058  0  0  0.298902  0  4.098978  0  0  0.08211  0.276368  0  4.075753  0
C  C60  1  0.92333295  0.53399522  0.86896914  1  0  -0.345832  0  3.770652  0  0  -0.374106  0  4.026795  0  0  -0.384094  0  4.046909  0  0  -0.133035  -0.36744  0  4.013381  0
C  C61  1  0.42333270  0.46600557  0.63102922  1  0  -0.34578  0  3.770803  0  0  -0.374072  0  4.026925  0  0  -0.384067  0  4.047042  0  0  -0.133026  -0.367406  0  4.013508  0
C  C62  1  0.07666546  0.46600387  0.13103019  1  0  -0.345813  0  3.770636  0  0  -0.374086  0  4.026778  0  0  -0.384076  0  4.046893  0  0  -0.133044  -0.36742  0  4.013362  0
C  C63  1  0.57666698  0.53399433  0.36897088  1  0  -0.345779  0  3.770733  0  0  -0.37405  0  4.026864  0  0  -0.384044  0  4.046983  0  0  -0.132997  -0.367383  0  4.013448  0
C  C64  1  0.81255509  0.44474865  0.87032474  1  0  0.283249  0  3.843126  0  0  0.275256  0  4.106474  0  0  0.287926  0  4.122432  0  0  0.074811  0.26663  0  4.095669  0
C  C65  1  0.31255516  0.55525199  0.62967436  1  0  0.283125  0  3.843198  0  0  0.275147  0  4.106533  0  0  0.287815  0  4.122494  0  0  0.074755  0.26653  0  4.095727  0
C  C66  1  0.18744459  0.55525125  0.12967459  1  0  0.283192  0  3.843197  0  0  0.275202  0  4.106547  0  0  0.28787  0  4.122508  0  0  0.074795  0.266581  0  4.09574  0
C  C67  1  0.68744452  0.44474711  0.37032650  1  0  0.283245  0  3.843093  0  0  0.275211  0  4.106495  0  0  0.28788  0  4.122455  0  0  0.074769  0.266586  0  4.09569  0
C  C68  1  0.63616407  0.45861386  0.88101910  1  0  -0.231572  0  3.774796  0  0  -0.25993  0  4.039326  0  0  -0.267105  0  4.057754  0  0  -0.123416  -0.255191  0  4.027042  0
C  C69  1  0.13616408  0.54138572  0.61898225  1  0  -0.231557  0  3.77476  0  0  -0.259923  0  4.03929  0  0  -0.267098  0  4.057718  0  0  -0.123431  -0.255182  0  4.027003  0
C  C70  1  0.36383561  0.54138604  0.11898023  1  0  -0.231598  0  3.774854  0  0  -0.259959  0  4.039383  0  0  -0.267135  0  4.057812  0  0  -0.123416  -0.255219  0  4.027097  0
C  C71  1  0.86383560  0.45861338  0.38102015  1  0  -0.231627  0  3.774774  0  0  -0.259977  0  4.039314  0  0  -0.267153  0  4.057743  0  0  -0.123416  -0.255237  0  4.027031  0
C  C72  1  0.04668350  0.31993989  0.85599861  1  0  -0.071048  0  3.618149  0  0  -0.124749  0  3.865564  0  0  -0.121388  0  3.866975  0  0  -0.069618  -0.127579  0  3.866005  0
C  C73  1  0.54668153  0.68006037  0.64400041  1  0  -0.071125  0  3.618158  0  0  -0.124792  0  3.865587  0  0  -0.121434  0  3.866995  0  0  -0.069637  -0.127618  0  3.866035  0
C  C74  1  0.95331745  0.68006082  0.14400149  1  0  -0.071026  0  3.618078  0  0  -0.124716  0  3.86551  0  0  -0.121358  0  3.866923  0  0  -0.069611  -0.127554  0  3.865957  0
C  C75  1  0.45331815  0.31993872  0.35599968  1  0  -0.071062  0  3.618092  0  0  -0.124751  0  3.865546  0  0  -0.121387  0  3.866947  0  0  -0.069622  -0.127588  0  3.865991  0
C  C76  1  0.08134629  0.20179810  0.83008042  1  0  0.730712  0  3.839587  0  0  0.682834  0  4.147688  0  0  0.716678  0  4.13624  0  0  0.230569  0.659825  0  4.151276  0
C  C77  1  0.58134476  0.79820059  0.66991860  1  0  0.730869  0  3.839477  0  0  0.682904  0  4.147714  0  0  0.716749  0  4.136265  0  0  0.230623  0.659894  0  4.151303  0
C  C78  1  0.91865722  0.79820180  0.16991890  1  0  0.730863  0  3.839542  0  0  0.682902  0  4.147771  0  0  0.716747  0  4.13632  0  0  0.2306  0.659892  0  4.151359  0
C  C79  1  0.41865620  0.20180013  0.33008150  1  0  0.730828  0  3.839587  0  0  0.68285  0  4.147843  0  0  0.716693  0  4.136397  0  0  0.230587  0.65984  0  4.15143  0
C  C80  1  0.13108287  0.71858722  0.87191493  1  0  -0.067736  0  3.615687  0  0  -0.117321  0  3.865461  0  0  -0.114189  0  3.866058  0  0  -0.056175  -0.119968  0  3.865933  0
C  C81  1  0.63108203  0.28141397  0.62808411  1  0  -0.067696  0  3.615678  0  0  -0.117254  0  3.865472  0  0  -0.11411  0  3.866059  0  0  -0.05617  -0.119899  0  3.865943  0
C  C82  1  0.86891681  0.28141268  0.12808440  1  0  -0.067749  0  3.61569  0  0  -0.117332  0  3.865491  0  0  -0.114185  0  3.866079  0  0  -0.056181  -0.119977  0  3.865964  0
C  C83  1  0.36891765  0.71858674  0.37191522  1  0  -0.067715  0  3.61565  0  0  -0.117301  0  3.865459  0  0  -0.114157  0  3.866045  0  0  -0.056165  -0.119947  0  3.865931  0
C  C84  1  0.21512321  0.82849348  0.86307487  1  0  0.715621  0  3.826554  0  0  0.664804  0  4.131309  0  0  0.698418  0  4.120815  0  0  0.222982  0.642237  0  4.132944  0
C  C85  1  0.71512326  0.17150702  0.63692420  1  0  0.715687  0  3.826341  0  0  0.664779  0  4.131243  0  0  0.698398  0  4.120736  0  0  0.222984  0.642211  0  4.132878  0
C  C86  1  0.78487519  0.17150642  0.13692523  1  0  0.715665  0  3.826508  0  0  0.664814  0  4.131318  0  0  0.698423  0  4.120827  0  0  0.222987  0.642245  0  4.132951  0
C  C87  1  0.28487514  0.82849450  0.36307513  1  0  0.715689  0  3.826434  0  0  0.664842  0  4.131248  0  0  0.698461  0  4.120741  0  0  0.222987  0.642274  0  4.13288  0
C  C88  1  0.72404005  0.94639229  0.43927026  1  0  0.660654  0  3.851475  0  0  0.585799  0  4.175834  0  0  0.620734  0  4.161595  0  0  0.176365  0.562192  0  4.178842  0
C  C89  1  0.22404211  0.05361098  0.06072932  1  0  0.660926  0  3.851268  0  0  0.586075  0  4.175635  0  0  0.621018  0  4.161386  0  0  0.176471  0.562469  0  4.178649  0
C  C90  1  0.27596091  0.05360843  0.56073060  1  0  0.660757  0  3.85133  0  0  0.585889  0  4.175711  0  0  0.620827  0  4.16147  0  0  0.1764  0.562283  0  4.178722  0
C  C91  1  0.77595757  0.94638893  0.93927001  1  0  0.660725  0  3.85133  0  0  0.585823  0  4.175755  0  0  0.620759  0  4.16152  0  0  0.176396  0.562216  0  4.178766  0
O  O92  1  0.86751124  0.33955860  0.86138341  1  0  -0.276701  0  2.381665  0  0  -0.201796  0  2.613173  0  0  -0.219755  0  2.615838  0  0  -0.181239  -0.189477  0  2.611628  0
O  O93  1  0.36751042  0.66044212  0.63861571  1  0  -0.276611  0  2.381709  0  0  -0.201714  0  2.613201  0  0  -0.219667  0  2.61586  0  0  -0.181183  -0.189415  0  2.611668  0
O  O94  1  0.13248971  0.66044131  0.13861669  1  0  -0.276682  0  2.381673  0  0  -0.201776  0  2.613177  0  0  -0.21973  0  2.61584  0  0  -0.181236  -0.189467  0  2.611643  0
O  O95  1  0.63248926  0.33955778  0.36138516  1  0  -0.276684  0  2.381676  0  0  -0.201753  0  2.613182  0  0  -0.219708  0  2.615839  0  0  -0.181217  -0.189436  0  2.611641  0
O  O96  1  0.23830259  0.17984295  0.82466526  1  0  -0.710032  0  2.039213  0  0  -0.670028  0  2.29842  0  0  -0.693943  0  2.286672  0  0  -0.396739  -0.646592  0  2.306226  0
O  O97  1  0.73830114  0.82015760  0.67533766  1  0  -0.710124  0  2.039241  0  0  -0.670098  0  2.298532  0  0  -0.694011  0  2.286781  0  0  -0.396779  -0.646657  0  2.306339  0
O  O98  1  0.76169964  0.82015696  0.17533561  1  0  -0.710113  0  2.03933  0  0  -0.670109  0  2.298619  0  0  -0.694023  0  2.286868  0  0  -0.396768  -0.646666  0  2.306421  0
O  O99  1  0.26169854  0.17984312  0.32466398  1  0  -0.710102  0  2.03924  0  0  -0.670077  0  2.298541  0  0  -0.693992  0  2.286792  0  0  -0.396768  -0.646631  0  2.306346  0
O  O100  1  0.95763289  0.13655346  0.81568541  1  0  -0.732993  0  2.010188  0  0  -0.683945  0  2.257068  0  0  -0.707985  0  2.24573  0  0  -0.359501  -0.661503  0  2.264535  0
O  O101  1  0.45763154  0.86344819  0.68431066  1  0  -0.733018  0  2.010126  0  0  -0.683961  0  2.257074  0  0  -0.708002  0  2.245738  0  0  -0.359506  -0.661521  0  2.264538  0
O  O102  1  0.04237062  0.86344725  0.18431315  1  0  -0.733031  0  2.0101  0  0  -0.683937  0  2.257022  0  0  -0.707977  0  2.245681  0  0  -0.359479  -0.661493  0  2.264489  0
O  O103  1  0.54236686  0.13655252  0.31568790  1  0  -0.733011  0  2.010167  0  0  -0.683934  0  2.257103  0  0  -0.707974  0  2.245769  0  0  -0.359491  -0.661491  0  2.264567  0
O  O104  1  0.95097797  0.73084153  0.87572120  1  0  -0.256734  0  2.351052  0  0  -0.188474  0  2.584388  0  0  -0.205287  0  2.586247  0  0  -0.165494  -0.176081  0  2.581709  0
O  O105  1  0.45097829  0.26915931  0.62427717  1  0  -0.256781  0  2.35109  0  0  -0.188537  0  2.584428  0  0  -0.205362  0  2.586281  0  0  -0.165532  -0.176145  0  2.581747  0
O  O106  1  0.04902171  0.26915756  0.12427813  1  0  -0.256778  0  2.351069  0  0  -0.188525  0  2.584415  0  0  -0.205347  0  2.586269  0  0  -0.165523  -0.176134  0  2.581734  0
O  O107  1  0.54902266  0.73084140  0.37572216  1  0  -0.256773  0  2.351041  0  0  -0.188525  0  2.584377  0  0  -0.205348  0  2.586231  0  0  -0.165516  -0.176133  0  2.581695  0
O  O108  1  0.13911325  0.90714900  0.81895880  1  0  -0.783023  0  2.077241  0  0  -0.739856  0  2.345701  0  0  -0.762281  0  2.331168  0  0  -0.404595  -0.713214  0  2.355191  0
O  O109  1  0.63911434  0.09285140  0.68104178  1  0  -0.783062  0  2.077134  0  0  -0.739882  0  2.34568  0  0  -0.762307  0  2.33114  0  0  -0.404603  -0.713237  0  2.355167  0
O  O110  1  0.86088515  0.09285091  0.18104206  1  0  -0.783053  0  2.07719  0  0  -0.739884  0  2.345714  0  0  -0.762305  0  2.331179  0  0  -0.4046  -0.713232  0  2.355202  0
O  O111  1  0.36088534  0.90715013  0.31895986  1  0  -0.783104  0  2.077237  0  0  -0.739913  0  2.3457  0  0  -0.762338  0  2.33116  0  0  -0.404639  -0.713264  0  2.355189  0
O  O112  1  0.36614187  0.83777570  0.89690031  1  0  -0.679499  0  2.01576  0  0  -0.626109  0  2.24565  0  0  -0.65113  0  2.237725  0  0  -0.338177  -0.604663  0  2.25139  0
O  O113  1  0.86614186  0.16222501  0.60309804  1  0  -0.679495  0  2.015706  0  0  -0.626067  0  2.245624  0  0  -0.65109  0  2.237699  0  0  -0.338146  -0.60462  0  2.251365  0
O  O114  1  0.63385781  0.16222339  0.10309902  1  0  -0.679479  0  2.015773  0  0  -0.626096  0  2.24571  0  0  -0.651116  0  2.237789  0  0  -0.338171  -0.604648  0  2.251452  0
O  O115  1  0.13385654  0.83777570  0.39690052  1  0  -0.679472  0  2.015768  0  0  -0.626083  0  2.245687  0  0  -0.651106  0  2.237761  0  0  -0.338138  -0.604632  0  2.251428  0
O  O116  1  0.83132074  0.95370468  0.51024734  1  0  -0.697946  0  2.142259  0  0  -0.647416  0  2.408606  0  0  -0.670909  0  2.397253  0  0  -0.381234  -0.623327  0  2.415563  0
O  O117  1  0.33132058  0.04629275  0.98975253  1  0  -0.698033  0  2.142175  0  0  -0.647506  0  2.408557  0  0  -0.671  0  2.397197  0  0  -0.38127  -0.623419  0  2.415517  0
O  O118  1  0.16868149  0.04629604  0.48975276  1  0  -0.698018  0  2.142177  0  0  -0.647464  0  2.408546  0  0  -0.670957  0  2.397187  0  0  -0.381275  -0.623373  0  2.415509  0
O  O119  1  0.66867783  0.95370472  0.01024756  1  0  -0.697963  0  2.142143  0  0  -0.647409  0  2.408535  0  0  -0.670905  0  2.397182  0  0  -0.381249  -0.62332  0  2.415495  0
O  O120  1  0.10355184  0.82714415  0.61021555  1  0  -0.888895  0  1.853136  0  0  -0.846892  0  2.044957  0  0  -0.863864  0  2.013319  0  0  -0.634295  -0.829345  0  2.070422  0
O  O121  1  0.60355210  0.17285539  0.88978502  1  0  -0.888912  0  1.8531  0  0  -0.84692  0  2.044888  0  0  -0.863892  0  2.01325  0  0  -0.634302  -0.829375  0  2.070349  0
O  O122  1  0.89644912  0.17285656  0.38978455  1  0  -0.888896  0  1.853143  0  0  -0.846909  0  2.044947  0  0  -0.863881  0  2.013309  0  0  -0.634318  -0.82936  0  2.070418  0
O  O123  1  0.39644758  0.82714452  0.11021508  1  0  -0.888902  0  1.85309  0  0  -0.846904  0  2.044896  0  0  -0.863877  0  2.013257  0  0  -0.634295  -0.829354  0  2.070358  0
O  O124  1  0.76367621  0.95495989  0.34418416  1  0  -0.790113  0  2.176978  0  0  -0.739171  0  2.455787  0  0  -0.763569  0  2.44194  0  0  -0.426781  -0.710934  0  2.46396  0
O  O125  1  0.26367705  0.04504262  0.15581543  1  0  -0.790252  0  2.176961  0  0  -0.739318  0  2.455793  0  0  -0.763704  0  2.441905  0  0  -0.426837  -0.711082  0  2.46397  0
O  O126  1  0.23632347  0.04504083  0.65581671  1  0  -0.790154  0  2.176991  0  0  -0.739218  0  2.455793  0  0  -0.763607  0  2.441917  0  0  -0.426792  -0.710988  0  2.463964  0
O  O127  1  0.73632391  0.95495809  0.84418390  1  0  -0.790168  0  2.176975  0  0  -0.739199  0  2.455748  0  0  -0.763582  0  2.44186  0  0  -0.426828  -0.710971  0  2.463922  0
