# generated using pymatgen
data_CdH8C10S(NCl)2
_symmetry_space_group_name_H-M   'P 1'
_cell_length_a   6.93238017
_cell_length_b   10.48517794
_cell_length_c   17.71265578
_cell_angle_alpha   90.00000341
_cell_angle_beta   90.00013245
_cell_angle_gamma   103.08937153
_symmetry_Int_Tables_number   1
_chemical_formula_structural   CdH8C10S(NCl)2
_chemical_formula_sum   'Cd4 H32 C40 S4 N8 Cl8'
_cell_volume   1254.03263871
_cell_formula_units_Z   4
loop_
 _symmetry_equiv_pos_site_id
 _symmetry_equiv_pos_as_xyz
  1  'x, y, z'
loop_
 _atom_site_type_symbol
 _atom_site_label
 _atom_site_symmetry_multiplicity
 _atom_site_fract_x
 _atom_site_fract_y
 _atom_site_fract_z
 _atom_site_occupancy
 _atom_site_hle17_bader_spin_density
 _atom_site_hle17_ddec_charge
 _atom_site_hle17_ddec_spin_density
 _atom_site_hle17_ddec_sum_bond_order
 _atom_site_hle17_magmom
 _atom_site_hse06_10hf_bader_spin_density
 _atom_site_hse06_10hf_ddec_charge
 _atom_site_hse06_10hf_ddec_spin_density
 _atom_site_hse06_10hf_ddec_sum_bond_order
 _atom_site_hse06_10hf_magmom
 _atom_site_hse06_bader_spin_density
 _atom_site_hse06_ddec_charge
 _atom_site_hse06_ddec_spin_density
 _atom_site_hse06_ddec_sum_bond_order
 _atom_site_hse06_magmom
 _atom_site_pbe_bader_spin_density
 _atom_site_pbe_cm5_charge
 _atom_site_pbe_ddec_charge
 _atom_site_pbe_ddec_spin_density
 _atom_site_pbe_ddec_sum_bond_order
 _atom_site_pbe_magmom
Cd  Cd0  1  0.26919955  0.07731686  0.97572563  1  0  0.957509  0  1.970429  0  0  0.791153  0  2.433905  0  0  0.837444  0  2.393728  0  0  0.594164  0.758481  0  2.460615  0
Cd  Cd1  1  0.23080292  0.42268313  0.47572550  1  0  0.957491  0  1.970445  0  0  0.791128  0  2.433932  0  0  0.83742  0  2.393757  0  0  0.594163  0.758456  0  2.46064  0
Cd  Cd2  1  0.73080123  0.92268314  0.02427452  1  0  0.957499  0  1.97042  0  0  0.791146  0  2.433901  0  0  0.837438  0  2.393723  0  0  0.594162  0.758475  0  2.460611  0
Cd  Cd3  1  0.76919899  0.57731590  0.52427465  1  0  0.957494  0  1.970426  0  0  0.791141  0  2.433907  0  0  0.837433  0  2.393731  0  0  0.594156  0.758468  0  2.460615  0
H  H4  1  0.23062640  0.59474995  0.93798255  1  0  0.116975  0  0.957724  0  0  0.12498  0  1.020369  0  0  0.128281  0  1.019317  0  0  0.099098  0.123001  0  1.020809  0
H  H5  1  0.26937100  0.90524982  0.43798246  1  0  0.117003  0  0.9577  0  0  0.124978  0  1.020373  0  0  0.128286  0  1.019321  0  0  0.099083  0.123  0  1.020813  0
H  H6  1  0.76937117  0.40524906  0.06201703  1  0  0.117019  0  0.957675  0  0  0.125007  0  1.020326  0  0  0.128313  0  1.019276  0  0  0.099104  0.12303  0  1.020768  0
H  H7  1  0.73062979  0.09475018  0.56201769  1  0  0.117014  0  0.957698  0  0  0.124992  0  1.020365  0  0  0.128302  0  1.019314  0  0  0.099094  0.123014  0  1.020807  0
H  H8  1  0.26330966  0.65155892  0.07374514  1  0  0.102591  0  0.938682  0  0  0.11127  0  1.002082  0  0  0.11366  0  1.000777  0  0  0.10408  0.109508  0  1.003108  0
H  H9  1  0.23668370  0.84843948  0.57374413  1  0  0.102614  0  0.938655  0  0  0.111271  0  1.00208  0  0  0.113663  0  1.000772  0  0  0.104078  0.109503  0  1.003122  0
H  H10  1  0.73668647  0.34844007  0.92625500  1  0  0.102577  0  0.938708  0  0  0.111269  0  1.002097  0  0  0.11366  0  1.000789  0  0  0.104071  0.109502  0  1.003132  0
H  H11  1  0.76331676  0.15155954  0.42625546  1  0  0.102593  0  0.93871  0  0  0.111283  0  1.002097  0  0  0.113675  0  1.000787  0  0  0.104073  0.109515  0  1.003137  0
H  H12  1  0.28879138  0.47336268  0.16794446  1  0  0.104898  0  0.951122  0  0  0.116674  0  1.006591  0  0  0.118925  0  1.00762  0  0  0.105018  0.115145  0  1.005942  0
H  H13  1  0.21120307  0.02663598  0.66794397  1  0  0.104903  0  0.951136  0  0  0.116676  0  1.006607  0  0  0.118925  0  1.007638  0  0  0.10502  0.115148  0  1.005957  0
H  H14  1  0.71120507  0.52663729  0.83205568  1  0  0.104908  0  0.951122  0  0  0.116679  0  1.006594  0  0  0.118928  0  1.007625  0  0  0.105031  0.11515  0  1.005944  0
H  H15  1  0.78879739  0.97336304  0.33205617  1  0  0.10492  0  0.951094  0  0  0.116688  0  1.006572  0  0  0.118938  0  1.007601  0  0  0.105033  0.115161  0  1.005921  0
H  H16  1  0.28893381  0.24964700  0.11798470  1  0  0.074733  0  0.958449  0  0  0.082133  0  1.024643  0  0  0.084261  0  1.022961  0  0  0.10428  0.080572  0  1.025988  0
H  H17  1  0.21106643  0.25035262  0.61798422  1  0  0.074754  0  0.958428  0  0  0.082148  0  1.024626  0  0  0.084278  0  1.022941  0  0  0.104282  0.080588  0  1.025971  0
H  H18  1  0.71106553  0.75035299  0.88201488  1  0  0.074725  0  0.958451  0  0  0.082128  0  1.02464  0  0  0.084257  0  1.022958  0  0  0.104278  0.080568  0  1.025985  0
H  H19  1  0.78893435  0.74964737  0.38201593  1  0  0.074756  0  0.958443  0  0  0.082163  0  1.024618  0  0  0.084294  0  1.022934  0  0  0.104283  0.080602  0  1.025964  0
H  H20  1  0.40326471  0.41063062  0.72997825  1  0  0.113942  0  0.98007  0  0  0.121765  0  1.044229  0  0  0.125752  0  1.041913  0  0  0.09301  0.118863  0  1.046104  0
H  H21  1  0.09673655  0.08937010  0.22997855  1  0  0.113909  0  0.980054  0  0  0.121734  0  1.044215  0  0  0.125723  0  1.041898  0  0  0.092996  0.118833  0  1.04609  0
H  H22  1  0.59673784  0.58937037  0.27002077  1  0  0.113934  0  0.980087  0  0  0.121757  0  1.044245  0  0  0.125745  0  1.041929  0  0  0.09301  0.118856  0  1.04612  0
H  H23  1  0.90326134  0.91062988  0.77002104  1  0  0.113937  0  0.980086  0  0  0.121756  0  1.044246  0  0  0.125743  0  1.041931  0  0  0.093007  0.118854  0  1.046122  0
H  H24  1  0.64733949  0.30375748  0.66823832  1  0  0.103773  0  0.967  0  0  0.110505  0  1.033642  0  0  0.113543  0  1.031201  0  0  0.093939  0.108155  0  1.035638  0
H  H25  1  0.85266245  0.19624284  0.16823829  1  0  0.103792  0  0.967011  0  0  0.110533  0  1.033643  0  0  0.113564  0  1.03121  0  0  0.09394  0.108183  0  1.035639  0
H  H26  1  0.35266129  0.69624252  0.33176126  1  0  0.103787  0  0.966973  0  0  0.110516  0  1.033603  0  0  0.113547  0  1.031171  0  0  0.093932  0.108167  0  1.0356  0
H  H27  1  0.14733544  0.80375714  0.83176355  1  0  0.103765  0  0.966972  0  0  0.11051  0  1.033609  0  0  0.113539  0  1.031179  0  0  0.093947  0.108161  0  1.035605  0
H  H28  1  0.73923750  0.11130110  0.73436622  1  0  0.098945  0  0.960032  0  0  0.105501  0  1.025791  0  0  0.109266  0  1.024035  0  0  0.099894  0.102735  0  1.02726  0
H  H29  1  0.76076308  0.38869830  0.23436668  1  0  0.098944  0  0.960046  0  0  0.105503  0  1.0258  0  0  0.109267  0  1.024045  0  0  0.099889  0.102737  0  1.027269  0
H  H30  1  0.26076119  0.88869693  0.26563337  1  0  0.098944  0  0.960049  0  0  0.1055  0  1.025805  0  0  0.109264  0  1.02405  0  0  0.09989  0.102734  0  1.027274  0
H  H31  1  0.23923481  0.61130168  0.76563404  1  0  0.09894  0  0.960067  0  0  0.105507  0  1.025815  0  0  0.10926  0  1.024071  0  0  0.099888  0.102741  0  1.027284  0
H  H32  1  0.57791749  0.03720450  0.85780161  1  0  0.075333  0  0.99763  0  0  0.079466  0  1.069566  0  0  0.081956  0  1.067155  0  0  0.092933  0.07745  0  1.071628  0
H  H33  1  0.92208707  0.46279603  0.35780222  1  0  0.075338  0  0.997623  0  0  0.079463  0  1.069572  0  0  0.081952  0  1.067161  0  0  0.09294  0.077446  0  1.071635  0
H  H34  1  0.42208345  0.96279160  0.14219854  1  0  0.075345  0  0.997682  0  0  0.079476  0  1.069622  0  0  0.081965  0  1.06721  0  0  0.092943  0.07746  0  1.071683  0
H  H35  1  0.07791355  0.53720788  0.64220018  1  0  0.075357  0  0.997597  0  0  0.079482  0  1.069555  0  0  0.081971  0  1.067144  0  0  0.092927  0.077464  0  1.071617  0
C  C36  1  0.23066831  0.39061217  0.95740087  1  0  0.206073  0  3.76179  0  0  0.20832  0  4.025125  0  0  0.217074  0  4.0449  0  0  0.120284  0.2021  0  4.012124  0
C  C37  1  0.26933084  0.10938680  0.45740076  1  0  0.205993  0  3.761845  0  0  0.208228  0  4.025188  0  0  0.21698  0  4.044961  0  0  0.120244  0.202008  0  4.012191  0
C  C38  1  0.76933071  0.60938684  0.04259872  1  0  0.20606  0  3.761829  0  0  0.208296  0  4.025172  0  0  0.217048  0  4.044947  0  0  0.120285  0.202075  0  4.012172  0
C  C39  1  0.73067139  0.89061320  0.54259939  1  0  0.206032  0  3.761798  0  0  0.208282  0  4.025126  0  0  0.217034  0  4.0449  0  0  0.120285  0.202063  0  4.012128  0
C  C40  1  0.23852293  0.51981622  0.97964373  1  0  -0.149257  0  3.715902  0  0  -0.166296  0  3.96339  0  0  -0.173806  0  3.98513  0  0  -0.087221  -0.161485  0  3.94884  0
C  C41  1  0.26147440  0.98018261  0.47964363  1  0  -0.149229  0  3.715877  0  0  -0.166218  0  3.963305  0  0  -0.17374  0  3.985054  0  0  -0.087171  -0.161407  0  3.948758  0
C  C42  1  0.76147463  0.48018278  0.02035586  1  0  -0.149217  0  3.71591  0  0  -0.166216  0  3.963357  0  0  -0.173738  0  3.985108  0  0  -0.08717  -0.16141  0  3.948812  0
C  C43  1  0.73852783  0.01981740  0.52035652  1  0  -0.149232  0  3.715825  0  0  -0.166237  0  3.963278  0  0  -0.173763  0  3.985032  0  0  -0.087194  -0.161428  0  3.948735  0
C  C44  1  0.25839854  0.55126170  0.05601262  1  0  0.010513  0  3.700935  0  0  -0.010144  0  3.956492  0  0  -0.006193  0  3.974287  0  0  -0.069238  -0.01234  0  3.944151  0
C  C45  1  0.24159615  0.94873670  0.55601274  1  0  0.010459  0  3.700865  0  0  -0.010191  0  3.956424  0  0  -0.006237  0  3.974217  0  0  -0.069245  -0.012387  0  3.944084  0
C  C46  1  0.74159902  0.44873730  0.94398753  1  0  0.010478  0  3.700911  0  0  -0.010197  0  3.956465  0  0  -0.006246  0  3.974263  0  0  -0.069232  -0.012393  0  3.944124  0
C  C47  1  0.75840431  0.05126232  0.44398684  1  0  0.010414  0  3.700965  0  0  -0.010255  0  3.956521  0  0  -0.006303  0  3.974315  0  0  -0.06926  -0.012452  0  3.944182  0
C  C48  1  0.27432454  0.45363897  0.10761697  1  0  -0.125535  0  3.726422  0  0  -0.13868  0  3.978947  0  0  -0.145206  0  4.000234  0  0  -0.08708  -0.134346  0  3.964301  0
C  C49  1  0.22567274  0.04636063  0.60761706  1  0  -0.125539  0  3.726414  0  0  -0.138689  0  3.978946  0  0  -0.145213  0  4.00023  0  0  -0.087104  -0.134353  0  3.964302  0
C  C50  1  0.72567190  0.54636100  0.89238318  1  0  -0.125553  0  3.726385  0  0  -0.138698  0  3.978923  0  0  -0.145223  0  4.00021  0  0  -0.087141  -0.134363  0  3.964276  0
C  C51  1  0.77433061  0.95363841  0.39238365  1  0  -0.125549  0  3.726526  0  0  -0.138709  0  3.979064  0  0  -0.145233  0  4.000348  0  0  -0.087137  -0.134374  0  3.96442  0
C  C52  1  0.27283555  0.32888900  0.08038333  1  0  0.141774  0  3.704318  0  0  0.113048  0  3.954798  0  0  0.119644  0  3.973343  0  0  0.044662  0.108797  0  3.941848  0
C  C53  1  0.22716269  0.17110960  0.58038286  1  0  0.141809  0  3.704236  0  0  0.113091  0  3.954717  0  0  0.119686  0  3.973256  0  0  0.044702  0.108841  0  3.941769  0
C  C54  1  0.72716378  0.67111099  0.91961625  1  0  0.141798  0  3.704255  0  0  0.113072  0  3.954737  0  0  0.119666  0  3.97328  0  0  0.04468  0.10882  0  3.941788  0
C  C55  1  0.77283889  0.82888845  0.41961728  1  0  0.141827  0  3.704313  0  0  0.113119  0  3.954762  0  0  0.119711  0  3.973305  0  0  0.044735  0.108867  0  3.941816  0
C  C56  1  0.35882942  0.27767257  0.82543257  1  0  0.205887  0  3.770117  0  0  0.207702  0  4.033057  0  0  0.217101  0  4.052397  0  0  0.118034  0.201214  0  4.020174  0
C  C57  1  0.14117212  0.22232726  0.32543292  1  0  0.20595  0  3.770028  0  0  0.207726  0  4.033034  0  0  0.217133  0  4.052362  0  0  0.118042  0.201237  0  4.020155  0
C  C58  1  0.64117281  0.72232743  0.17456532  1  0  0.205922  0  3.770051  0  0  0.207739  0  4.033004  0  0  0.217156  0  4.052314  0  0  0.118022  0.201249  0  4.020126  0
C  C59  1  0.85882610  0.77767370  0.67456723  1  0  0.205923  0  3.770111  0  0  0.207749  0  4.033058  0  0  0.217156  0  4.052386  0  0  0.118007  0.201259  0  4.02018  0
C  C60  1  0.44325844  0.32650544  0.75650844  1  0  -0.168366  0  3.730114  0  0  -0.182527  0  3.971922  0  0  -0.1904  0  3.991902  0  0  -0.093844  -0.177493  0  3.958754  0
C  C61  1  0.05674122  0.17349432  0.25650871  1  0  -0.16834  0  3.730099  0  0  -0.18249  0  3.97192  0  0  -0.190366  0  3.991897  0  0  -0.093827  -0.177456  0  3.958753  0
C  C62  1  0.55674235  0.67349456  0.24349170  1  0  -0.168325  0  3.730094  0  0  -0.182495  0  3.971891  0  0  -0.190374  0  3.991865  0  0  -0.093814  -0.17746  0  3.958724  0
C  C63  1  0.94325956  0.82650568  0.74349256  1  0  -0.168411  0  3.730148  0  0  -0.182558  0  3.971954  0  0  -0.190433  0  3.991931  0  0  -0.093848  -0.177523  0  3.958787  0
C  C64  1  0.58075966  0.26680351  0.72214155  1  0  0.007476  0  3.710511  0  0  -0.007595  0  3.953134  0  0  -0.003813  0  3.971246  0  0  -0.067026  -0.009885  0  3.940864  0
C  C65  1  0.91923973  0.23319685  0.22214215  1  0  0.007387  0  3.7105  0  0  -0.007691  0  3.953127  0  0  -0.003906  0  3.971248  0  0  -0.067066  -0.00998  0  3.940857  0
C  C66  1  0.41924113  0.73319649  0.27785746  1  0  0.007386  0  3.710664  0  0  -0.007655  0  3.953247  0  0  -0.003871  0  3.971372  0  0  -0.067057  -0.009944  0  3.940977  0
C  C67  1  0.08075993  0.76680412  0.77785912  1  0  0.007514  0  3.710426  0  0  -0.007586  0  3.953074  0  0  -0.003798  0  3.971192  0  0  -0.06703  -0.009876  0  3.940805  0
C  C68  1  0.63231490  0.16140910  0.75854549  1  0  -0.121383  0  3.735206  0  0  -0.135379  0  3.986099  0  0  -0.141855  0  4.006013  0  0  -0.088066  -0.131329  0  3.972938  0
C  C69  1  0.86768438  0.33859032  0.25854717  1  0  -0.121415  0  3.73525  0  0  -0.135417  0  3.986133  0  0  -0.14189  0  4.006041  0  0  -0.088078  -0.131366  0  3.972971  0
C  C70  1  0.36768202  0.83858794  0.24145466  1  0  -0.121347  0  3.735175  0  0  -0.135355  0  3.986059  0  0  -0.141827  0  4.005961  0  0  -0.088038  -0.131305  0  3.9729  0
C  C71  1  0.13231527  0.66141065  0.74145354  1  0  -0.121359  0  3.735163  0  0  -0.135366  0  3.986064  0  0  -0.141829  0  4.005976  0  0  -0.088052  -0.131316  0  3.972901  0
C  C72  1  0.54247792  0.11907339  0.82718733  1  0  0.138752  0  3.692061  0  0  0.110554  0  3.940348  0  0  0.117666  0  3.958052  0  0  0.041128  0.105944  0  3.928678  0
C  C73  1  0.95752291  0.38092512  0.32718853  1  0  0.13877  0  3.692134  0  0  0.110591  0  3.940406  0  0  0.117704  0  3.958111  0  0  0.041137  0.105981  0  3.928735  0
C  C74  1  0.45752109  0.88092562  0.17281169  1  0  0.138713  0  3.691931  0  0  0.110519  0  3.940231  0  0  0.117633  0  3.957937  0  0  0.041106  0.105909  0  3.928563  0
C  C75  1  0.04247771  0.61907878  0.67281105  1  0  0.138607  0  3.691986  0  0  0.110424  0  3.940295  0  0  0.117536  0  3.957996  0  0  0.041062  0.105816  0  3.928623  0
S  S76  1  0.17402588  0.35457556  0.86090430  1  0  -0.045349  0  2.377265  0  0  -0.054453  0  2.695073  0  0  -0.059611  0  2.697285  0  0  0.035082  -0.050315  0  2.693791  0
S  S77  1  0.32597588  0.14542431  0.36090368  1  0  -0.045344  0  2.377226  0  0  -0.054432  0  2.695046  0  0  -0.059593  0  2.697257  0  0  0.035097  -0.050293  0  2.693766  0
S  S78  1  0.82597522  0.64542541  0.13909528  1  0  -0.045344  0  2.377293  0  0  -0.054445  0  2.695108  0  0  -0.059608  0  2.697313  0  0  0.035105  -0.050306  0  2.693827  0
S  S79  1  0.67402378  0.85457666  0.63909647  1  0  -0.045321  0  2.377232  0  0  -0.054426  0  2.695031  0  0  -0.059584  0  2.697241  0  0  0.035108  -0.050287  0  2.69375  0
N  N80  1  0.24808608  0.29678266  0.00691777  1  0  -0.348855  0  3.240505  0  0  -0.280487  0  3.49751  0  0  -0.299464  0  3.516988  0  0  -0.323873  -0.266925  0  3.483317  0
N  N81  1  0.25191347  0.20321685  0.50691676  1  0  -0.348867  0  3.240439  0  0  -0.280485  0  3.497419  0  0  -0.299472  0  3.516921  0  0  -0.323889  -0.266923  0  3.483228  0
N  N82  1  0.75191470  0.70321734  0.99308181  1  0  -0.348886  0  3.240394  0  0  -0.28051  0  3.497392  0  0  -0.299492  0  3.516881  0  0  -0.3239  -0.266951  0  3.483209  0
N  N83  1  0.74808732  0.79678315  0.49308339  1  0  -0.348889  0  3.240471  0  0  -0.280525  0  3.497454  0  0  -0.299513  0  3.516961  0  0  -0.323901  -0.266963  0  3.483264  0
N  N84  1  0.40634650  0.17469992  0.85993334  1  0  -0.355773  0  3.245541  0  0  -0.285965  0  3.501902  0  0  -0.305466  0  3.521222  0  0  -0.328211  -0.272987  0  3.488787  0
N  N85  1  0.09365525  0.32529995  0.35993422  1  0  -0.35571  0  3.245462  0  0  -0.285898  0  3.501817  0  0  -0.305399  0  3.521135  0  0  -0.32818  -0.27292  0  3.488705  0
N  N86  1  0.59365219  0.82529811  0.14006567  1  0  -0.355744  0  3.245479  0  0  -0.285953  0  3.501856  0  0  -0.305459  0  3.52117  0  0  -0.328208  -0.272975  0  3.488744  0
N  N87  1  0.90634248  0.67470394  0.64006537  1  0  -0.355677  0  3.245473  0  0  -0.28589  0  3.501822  0  0  -0.30539  0  3.521139  0  0  -0.328144  -0.272912  0  3.488707  0
Cl  Cl88  1  0.06963955  0.99073266  0.09777816  1  0  -0.572255  0  1.053803  0  0  -0.512759  0  1.345609  0  0  -0.532069  0  1.325686  0  0  -0.298925  -0.499137  0  1.359668  0
Cl  Cl89  1  0.43036151  0.50926679  0.59777843  1  0  -0.572268  0  1.05384  0  0  -0.51277  0  1.345636  0  0  -0.532077  0  1.325714  0  0  -0.298927  -0.499148  0  1.359696  0
Cl  Cl90  1  0.93036091  0.00926636  0.90222255  1  0  -0.57227  0  1.053813  0  0  -0.512773  0  1.345615  0  0  -0.532083  0  1.325694  0  0  -0.298927  -0.499154  0  1.35968  0
Cl  Cl91  1  0.56964071  0.49073322  0.40222228  1  0  -0.572252  0  1.053823  0  0  -0.512765  0  1.345645  0  0  -0.532073  0  1.325723  0  0  -0.298917  -0.499143  0  1.359705  0
Cl  Cl92  1  0.37810771  0.85745272  0.95035287  1  0  -0.572403  0  0.976672  0  0  -0.508798  0  1.250127  0  0  -0.526694  0  1.229833  0  0  -0.302127  -0.495731  0  1.263618  0
Cl  Cl93  1  0.12189266  0.64254708  0.45035320  1  0  -0.572406  0  0.976687  0  0  -0.508784  0  1.250124  0  0  -0.526681  0  1.229835  0  0  -0.302122  -0.495717  0  1.263615  0
Cl  Cl94  1  0.62189163  0.14254727  0.04964727  1  0  -0.5724  0  0.976664  0  0  -0.508788  0  1.250115  0  0  -0.526688  0  1.229826  0  0  -0.302124  -0.495723  0  1.263608  0
Cl  Cl95  1  0.87810925  0.35745195  0.54964695  1  0  -0.572406  0  0.976667  0  0  -0.508794  0  1.250119  0  0  -0.526693  0  1.229832  0  0  -0.302134  -0.495728  0  1.263611  0
