# generated using pymatgen
data_SnH14C12(NCl)2
_symmetry_space_group_name_H-M   'P 1'
_cell_length_a   6.37869858
_cell_length_b   10.11625523
_cell_length_c   10.53219877
_cell_angle_alpha   90.00040432
_cell_angle_beta   98.85760035
_cell_angle_gamma   89.99935446
_symmetry_Int_Tables_number   1
_chemical_formula_structural   SnH14C12(NCl)2
_chemical_formula_sum   'Sn2 H28 C24 N4 Cl4'
_cell_volume   671.52225949
_cell_formula_units_Z   2
loop_
 _symmetry_equiv_pos_site_id
 _symmetry_equiv_pos_as_xyz
  1  'x, y, z'
loop_
 _atom_site_type_symbol
 _atom_site_label
 _atom_site_symmetry_multiplicity
 _atom_site_fract_x
 _atom_site_fract_y
 _atom_site_fract_z
 _atom_site_occupancy
 _atom_site_hle17_bader_spin_density
 _atom_site_hle17_ddec_charge
 _atom_site_hle17_ddec_spin_density
 _atom_site_hle17_ddec_sum_bond_order
 _atom_site_hle17_magmom
 _atom_site_hse06_10hf_bader_spin_density
 _atom_site_hse06_10hf_ddec_charge
 _atom_site_hse06_10hf_ddec_spin_density
 _atom_site_hse06_10hf_ddec_sum_bond_order
 _atom_site_hse06_10hf_magmom
 _atom_site_hse06_bader_spin_density
 _atom_site_hse06_ddec_charge
 _atom_site_hse06_ddec_spin_density
 _atom_site_hse06_ddec_sum_bond_order
 _atom_site_hse06_magmom
 _atom_site_pbe_bader_spin_density
 _atom_site_pbe_cm5_charge
 _atom_site_pbe_ddec_charge
 _atom_site_pbe_ddec_spin_density
 _atom_site_pbe_ddec_sum_bond_order
 _atom_site_pbe_magmom
Sn  Sn0  1  0.99994666  0.99999787  0.00001620  1  0  1.277395  0  2.963432  0  0  1.126773  0  3.45548  0  0  1.171065  0  3.44194  0  0  0.508729  1.096723  0  3.463928  0
Sn  Sn1  1  0.00005271  0.50000101  0.49996914  1  0  1.277402  0  2.963347  0  0  1.126757  0  3.455495  0  0  1.171055  0  3.441953  0  0  0.508744  1.096706  0  3.463949  0
H  H2  1  0.77856090  0.15931301  0.82236750  1  0  0.156114  0  0.99829  0  0  0.169187  0  1.063959  0  0  0.1724  0  1.064332  0  0  0.079775  0.166909  0  1.063859  0
H  H3  1  0.22142994  0.65931276  0.67762537  1  0  0.156069  0  0.998317  0  0  0.16915  0  1.063991  0  0  0.172366  0  1.064368  0  0  0.079769  0.166894  0  1.063864  0
H  H4  1  0.22139506  0.84069630  0.17761809  1  0  0.156057  0  0.998442  0  0  0.169159  0  1.064078  0  0  0.172376  0  1.064454  0  0  0.079744  0.166907  0  1.063944  0
H  H5  1  0.77860214  0.34070050  0.32236601  1  0  0.156103  0  0.998421  0  0  0.169204  0  1.06405  0  0  0.172419  0  1.064428  0  0  0.079781  0.166934  0  1.063941  0
H  H6  1  0.63793185  0.00566183  0.83129860  1  0  0.157997  0  1.004537  0  0  0.169292  0  1.073471  0  0  0.17247  0  1.074187  0  0  0.078741  0.167086  0  1.072988  0
H  H7  1  0.36205719  0.50566545  0.66870260  1  0  0.158043  0  1.004505  0  0  0.169339  0  1.073452  0  0  0.172519  0  1.074165  0  0  0.078756  0.167129  0  1.072974  0
H  H8  1  0.36200262  0.99435044  0.16866731  1  0  0.158122  0  1.004231  0  0  0.169416  0  1.073218  0  0  0.172601  0  1.073919  0  0  0.078768  0.167205  0  1.072745  0
H  H9  1  0.63799590  0.49435374  0.33133122  1  0  0.158012  0  1.004302  0  0  0.169318  0  1.073283  0  0  0.172497  0  1.073995  0  0  0.078754  0.167108  0  1.072809  0
H  H10  1  0.86113262  0.01368840  0.74565781  1  0  0.153245  0  0.993664  0  0  0.168989  0  1.053322  0  0  0.171735  0  1.054778  0  0  0.079751  0.166923  0  1.052498  0
H  H11  1  0.13884128  0.51368928  0.75432709  1  0  0.153121  0  0.993731  0  0  0.168887  0  1.053382  0  0  0.171634  0  1.054842  0  0  0.079681  0.166819  0  1.052561  0
H  H12  1  0.13885149  0.98630410  0.25435462  1  0  0.153102  0  0.993746  0  0  0.168848  0  1.053424  0  0  0.171593  0  1.054888  0  0  0.079693  0.166781  0  1.052602  0
H  H13  1  0.86113057  0.48630519  0.24562742  1  0  0.153132  0  0.993465  0  0  0.168902  0  1.053141  0  0  0.171646  0  1.054603  0  0  0.079715  0.166839  0  1.052315  0
H  H14  1  0.03707728  0.29342808  0.13236554  1  0  0.078263  0  0.972275  0  0  0.084507  0  1.040576  0  0  0.087225  0  1.038502  0  0  0.106867  0.082399  0  1.042372  0
H  H15  1  0.96291979  0.79343274  0.36763248  1  0  0.078302  0  0.97234  0  0  0.084579  0  1.040588  0  0  0.087296  0  1.038514  0  0  0.10691  0.082471  0  1.042381  0
H  H16  1  0.96287964  0.70657628  0.86764007  1  0  0.078198  0  0.971737  0  0  0.084418  0  1.040093  0  0  0.087141  0  1.038008  0  0  0.106763  0.082312  0  1.041883  0
H  H17  1  0.03711864  0.20658744  0.63235938  1  0  0.078382  0  0.971921  0  0  0.084529  0  1.040328  0  0  0.087251  0  1.038241  0  0  0.106861  0.082423  0  1.042123  0
H  H18  1  0.24755698  0.49964400  0.14614381  1  0  0.103573  0  1.000736  0  0  0.108915  0  1.069734  0  0  0.112783  0  1.067763  0  0  0.095362  0.10617  0  1.071163  0
H  H19  1  0.75243874  0.99964908  0.35386405  1  0  0.103607  0  1.000744  0  0  0.108997  0  1.069679  0  0  0.112867  0  1.067703  0  0  0.09539  0.10625  0  1.071108  0
H  H20  1  0.75242088  0.50035344  0.85387004  1  0  0.1037  0  1.000792  0  0  0.109062  0  1.069757  0  0  0.112932  0  1.067779  0  0  0.09543  0.106312  0  1.071185  0
H  H21  1  0.24757342  0.00036121  0.64614006  1  0  0.103732  0  1.000708  0  0  0.10906  0  1.069724  0  0  0.112932  0  1.067742  0  0  0.095424  0.106313  0  1.071157  0
H  H22  1  0.56860193  0.34059239  0.84480472  1  0  0.107909  0  0.983996  0  0  0.117786  0  1.045265  0  0  0.121036  0  1.044007  0  0  0.100951  0.115307  0  1.04647  0
H  H23  1  0.43140677  0.84059047  0.65519454  1  0  0.107929  0  0.98406  0  0  0.117799  0  1.045319  0  0  0.121053  0  1.044051  0  0  0.100956  0.115328  0  1.04653  0
H  H24  1  0.43136968  0.65939418  0.15521056  1  0  0.107799  0  0.984182  0  0  0.117683  0  1.045444  0  0  0.120928  0  1.044199  0  0  0.100884  0.115206  0  1.04665  0
H  H25  1  0.56863338  0.15939412  0.34480030  1  0  0.107924  0  0.984189  0  0  0.117659  0  1.045563  0  0  0.120902  0  1.044321  0  0  0.100912  0.115183  0  1.046769  0
H  H26  1  0.35199582  0.13955239  0.85080806  1  0  0.072256  0  0.980439  0  0  0.078456  0  1.051066  0  0  0.080497  0  1.049834  0  0  0.108474  0.076823  0  1.052275  0
H  H27  1  0.64801959  0.63954986  0.64919604  1  0  0.072212  0  0.980361  0  0  0.078496  0  1.050929  0  0  0.080536  0  1.049698  0  0  0.108465  0.076862  0  1.052138  0
H  H28  1  0.64796468  0.86044505  0.14920637  1  0  0.072104  0  0.980439  0  0  0.07839  0  1.050996  0  0  0.080428  0  1.049766  0  0  0.108489  0.076756  0  1.052204  0
H  H29  1  0.35204907  0.36044066  0.35080001  1  0  0.072095  0  0.98037  0  0  0.078425  0  1.050885  0  0  0.080464  0  1.049653  0  0  0.108496  0.07679  0  1.052097  0
C  C30  1  0.79232349  0.05154187  0.82737231  1  0  -0.667545  0  3.500574  0  0  -0.716668  0  3.74221  0  0  -0.732442  0  3.751727  0  0  -0.331148  -0.705604  0  3.735652  0
C  C31  1  0.20766426  0.55154465  0.67261770  1  0  -0.667422  0  3.500717  0  0  -0.716537  0  3.742228  0  0  -0.732318  0  3.751735  0  0  -0.331103  -0.705491  0  3.735645  0
C  C32  1  0.20761847  0.94846150  0.17261792  1  0  -0.667492  0  3.500858  0  0  -0.7166  0  3.742394  0  0  -0.732374  0  3.75189  0  0  -0.331074  -0.705557  0  3.735803  0
C  C33  1  0.79238192  0.44846564  0.32737095  1  0  -0.66748  0  3.500673  0  0  -0.716635  0  3.742281  0  0  -0.732396  0  3.75177  0  0  -0.331122  -0.705579  0  3.735714  0
C  C34  1  0.15895527  0.30849130  0.07157944  1  0  0.126091  0  3.702332  0  0  0.095717  0  3.950053  0  0  0.102368  0  3.968312  0  0  0.048894  0.091112  0  3.93831  0
C  C35  1  0.84105261  0.80849925  0.42841855  1  0  0.126018  0  3.702057  0  0  0.095616  0  3.949807  0  0  0.102269  0  3.968062  0  0  0.04879  0.091012  0  3.938062  0
C  C36  1  0.84100179  0.69150713  0.92842903  1  0  0.126398  0  3.701607  0  0  0.096003  0  3.949291  0  0  0.102653  0  3.967546  0  0  0.049102  0.091397  0  3.937549  0
C  C37  1  0.15899407  0.19151302  0.57158059  1  0  0.126357  0  3.701603  0  0  0.096036  0  3.949286  0  0  0.102688  0  3.967544  0  0  0.049062  0.09143  0  3.937548  0
C  C38  1  0.27735289  0.42410878  0.07728838  1  0  -0.153527  0  3.686089  0  0  -0.17013  0  3.93171  0  0  -0.177977  0  3.952576  0  0  -0.081219  -0.164658  0  3.917745  0
C  C39  1  0.72264088  0.92411259  0.42271882  1  0  -0.15375  0  3.686544  0  0  -0.170376  0  3.932148  0  0  -0.178225  0  3.953011  0  0  -0.081282  -0.164902  0  3.91818  0
C  C40  1  0.72262488  0.57587977  0.92272357  1  0  -0.153913  0  3.68625  0  0  -0.170474  0  3.931897  0  0  -0.178321  0  3.952755  0  0  -0.081229  -0.164996  0  3.917933  0
C  C41  1  0.27738265  0.07588881  0.57729185  1  0  -0.153877  0  3.686129  0  0  -0.170457  0  3.931769  0  0  -0.178307  0  3.952623  0  0  -0.081254  -0.164986  0  3.91781  0
C  C42  1  0.43305362  0.43989399  0.99735657  1  0  0.103823  0  3.71695  0  0  0.116656  0  3.942371  0  0  0.120869  0  3.963159  0  0  0.01922  0.113711  0  3.928374  0
C  C43  1  0.56695057  0.93989397  0.50264871  1  0  0.104185  0  3.716927  0  0  0.116991  0  3.942297  0  0  0.121207  0  3.963072  0  0  0.019353  0.114047  0  3.928301  0
C  C44  1  0.56691822  0.56009554  0.00266347  1  0  0.104381  0  3.716911  0  0  0.116967  0  3.942532  0  0  0.121187  0  3.963308  0  0  0.019243  0.114024  0  3.928532  0
C  C45  1  0.43308342  0.06010347  0.49734947  1  0  0.104039  0  3.716982  0  0  0.116704  0  3.942434  0  0  0.120932  0  3.963193  0  0  0.019146  0.113762  0  3.928434  0
C  C46  1  0.45554561  0.33602810  0.91227215  1  0  -0.13653  0  3.677468  0  0  -0.155113  0  3.923217  0  0  -0.162129  0  3.942911  0  0  -0.073817  -0.15014  0  3.910048  0
C  C47  1  0.54446521  0.83602687  0.58773673  1  0  -0.136633  0  3.677491  0  0  -0.155195  0  3.923233  0  0  -0.162212  0  3.942925  0  0  -0.073824  -0.150234  0  3.910072  0
C  C48  1  0.54443383  0.66395748  0.08774182  1  0  -0.136714  0  3.677912  0  0  -0.155239  0  3.92369  0  0  -0.162256  0  3.943386  0  0  -0.073811  -0.150268  0  3.910522  0
C  C49  1  0.45558311  0.16395970  0.41226348  1  0  -0.136677  0  3.677944  0  0  -0.155046  0  3.92363  0  0  -0.162066  0  3.943325  0  0  -0.073818  -0.150076  0  3.910464  0
C  C50  1  0.33215775  0.22310929  0.91305901  1  0  0.137934  0  3.699552  0  0  0.104709  0  3.952501  0  0  0.112203  0  3.969618  0  0  0.053502  0.099602  0  3.941202  0
C  C51  1  0.66784796  0.72310618  0.58693637  1  0  0.137859  0  3.699899  0  0  0.104553  0  3.952882  0  0  0.112045  0  3.970005  0  0  0.053391  0.099446  0  3.941581  0
C  C52  1  0.66779110  0.77688914  0.08694314  1  0  0.138409  0  3.699717  0  0  0.105061  0  3.952654  0  0  0.112559  0  3.969772  0  0  0.053713  0.099952  0  3.941352  0
C  C53  1  0.33221122  0.27688731  0.41305991  1  0  0.13836  0  3.700077  0  0  0.104961  0  3.952958  0  0  0.112455  0  3.970085  0  0  0.053717  0.099858  0  3.941646  0
N  N54  1  0.18645999  0.20833585  0.99158552  1  0  -0.317634  0  3.252853  0  0  -0.234648  0  3.491584  0  0  -0.252662  0  3.513354  0  0  -0.290112  -0.222836  0  3.477172  0
N  N55  1  0.81353830  0.70833114  0.50841490  1  0  -0.317427  0  3.252735  0  0  -0.234467  0  3.491539  0  0  -0.252483  0  3.51331  0  0  -0.289983  -0.222655  0  3.477123  0
N  N56  1  0.81349240  0.79166456  0.00842449  1  0  -0.317904  0  3.2531  0  0  -0.234827  0  3.491831  0  0  -0.252846  0  3.513612  0  0  -0.290317  -0.22301  0  3.477408  0
N  N57  1  0.18651911  0.29166235  0.49157746  1  0  -0.317955  0  3.253376  0  0  -0.234892  0  3.492125  0  0  -0.252912  0  3.513907  0  0  -0.290333  -0.223076  0  3.477703  0
Cl  Cl58  1  0.74534844  0.11617221  0.13629921  1  0  -0.560737  0  0.868184  0  0  -0.501096  0  1.097156  0  0  -0.513958  0  1.084267  0  0  -0.249606  -0.49122  0  1.105838  0
Cl  Cl59  1  0.25466248  0.61617699  0.36369581  1  0  -0.560731  0  0.868097  0  0  -0.5011  0  1.097068  0  0  -0.513976  0  1.084208  0  0  -0.249602  -0.491226  0  1.105757  0
Cl  Cl60  1  0.25458496  0.88383314  0.86371031  1  0  -0.560916  0  0.867854  0  0  -0.501224  0  1.09675  0  0  -0.514112  0  1.083902  0  0  -0.249758  -0.49135  0  1.10544  0
Cl  Cl61  1  0.74541618  0.38383725  0.63627821  1  0  -0.560893  0  0.86779  0  0  -0.501234  0  1.096745  0  0  -0.51411  0  1.083876  0  0  -0.249758  -0.491354  0  1.105425  0
