# generated using pymatgen
data_Ca3H12C16(NO8)2
_symmetry_space_group_name_H-M   'P 1'
_cell_length_a   6.71418012
_cell_length_b   8.71613482
_cell_length_c   10.06717167
_cell_angle_alpha   108.82224997
_cell_angle_beta   99.25327494
_cell_angle_gamma   98.54849356
_symmetry_Int_Tables_number   1
_chemical_formula_structural   Ca3H12C16(NO8)2
_chemical_formula_sum   'Ca3 H12 C16 N2 O16'
_cell_volume   537.55755928
_cell_formula_units_Z   1
loop_
 _symmetry_equiv_pos_site_id
 _symmetry_equiv_pos_as_xyz
  1  'x, y, z'
loop_
 _atom_site_type_symbol
 _atom_site_label
 _atom_site_symmetry_multiplicity
 _atom_site_fract_x
 _atom_site_fract_y
 _atom_site_fract_z
 _atom_site_occupancy
 _atom_site_hle17_bader_spin_density
 _atom_site_hle17_ddec_charge
 _atom_site_hle17_ddec_spin_density
 _atom_site_hle17_ddec_sum_bond_order
 _atom_site_hle17_magmom
 _atom_site_hse06_10hf_bader_spin_density
 _atom_site_hse06_10hf_ddec_charge
 _atom_site_hse06_10hf_ddec_spin_density
 _atom_site_hse06_10hf_ddec_sum_bond_order
 _atom_site_hse06_10hf_magmom
 _atom_site_hse06_bader_spin_density
 _atom_site_hse06_ddec_charge
 _atom_site_hse06_ddec_spin_density
 _atom_site_hse06_ddec_sum_bond_order
 _atom_site_hse06_magmom
 _atom_site_pbe_bader_spin_density
 _atom_site_pbe_cm5_charge
 _atom_site_pbe_ddec_charge
 _atom_site_pbe_ddec_spin_density
 _atom_site_pbe_ddec_sum_bond_order
 _atom_site_pbe_magmom
Ca  Ca0  1  0.55588144  0.05550237  0.32554894  1  0  1.511672  0  1.123122  0  0  1.361286  0  1.484572  0  0  1.406453  0  1.439889  0  0  0.887343  1.327212  0  1.516377  0
Ca  Ca1  1  0.44411835  0.94449828  0.67445202  1  0  1.511658  0  1.123152  0  0  1.361269  0  1.484593  0  0  1.406441  0  1.439905  0  0  0.887329  1.3272  0  1.516397  0
Ca  Ca2  1  0.00000013  0.50000004  0.00000042  1  0  1.584015  0  1.110971  0  0  1.454295  0  1.473213  0  0  1.495015  0  1.427171  0  0  0.904633  1.422448  0  1.508863  0
H  H3  1  0.87595300  0.69636668  0.37008372  1  0  0.134305  0  0.918666  0  0  0.142016  0  0.981368  0  0  0.147162  0  0.97699  0  0  0.130084  0.138006  0  0.985038  0
H  H4  1  0.12404491  0.30363275  0.62991571  1  0  0.134333  0  0.918638  0  0  0.142019  0  0.981365  0  0  0.147185  0  0.976963  0  0  0.13009  0.138011  0  0.985035  0
H  H5  1  0.79118906  0.66828596  0.77936473  1  0  0.130015  0  0.940043  0  0  0.134825  0  1.009916  0  0  0.13972  0  1.006068  0  0  0.128825  0.131255  0  1.01274  0
H  H6  1  0.20881223  0.33171468  0.22063637  1  0  0.130023  0  0.940042  0  0  0.134833  0  1.009914  0  0  0.139729  0  1.006062  0  0  0.128824  0.131263  0  1.012736  0
H  H7  1  0.45166787  0.73852216  0.11959265  1  0  0.41688  0  0.889203  0  0  0.383686  0  0.956885  0  0  0.395378  0  0.939769  0  0  0.305374  0.374718  0  0.970241  0
H  H8  1  0.54833303  0.26147724  0.88040608  1  0  0.41699  0  0.889051  0  0  0.383779  0  0.956755  0  0  0.395471  0  0.939641  0  0  0.305407  0.374811  0  0.970111  0
H  H9  1  0.47681270  0.83047607  0.00794380  1  0  0.434617  0  0.863627  0  0  0.402786  0  0.926892  0  0  0.414898  0  0.909296  0  0  0.306687  0.394077  0  0.939558  0
H  H10  1  0.52318704  0.16952459  0.99205517  1  0  0.434628  0  0.863617  0  0  0.402799  0  0.926877  0  0  0.41491  0  0.909282  0  0  0.306695  0.394089  0  0.939544  0
H  H11  1  0.02145385  0.85740242  0.13433427  1  0  0.427432  0  0.872985  0  0  0.395449  0  0.937825  0  0  0.407339  0  0.920337  0  0  0.299422  0.386919  0  0.950386  0
H  H12  1  0.97854894  0.14259820  0.86566698  1  0  0.427432  0  0.872968  0  0  0.395456  0  0.937799  0  0  0.407345  0  0.920312  0  0  0.299436  0.386926  0  0.950359  0
H  H13  1  0.78132181  0.78492021  0.08055029  1  0  0.434008  0  0.86131  0  0  0.40468  0  0.921408  0  0  0.415903  0  0.90487  0  0  0.299408  0.39665  0  0.933234  0
H  H14  1  0.21867944  0.21508043  0.91944882  1  0  0.433989  0  0.861337  0  0  0.404662  0  0.921432  0  0  0.415886  0  0.904894  0  0  0.299402  0.396632  0  0.933258  0
C  C15  1  0.74455770  0.45647593  0.37436082  1  0  0.094314  0  3.766734  0  0  0.09916  0  4.017064  0  0  0.098272  0  4.036641  0  0  0.117729  0.099279  0  4.004307  0
C  C16  1  0.25544056  0.54352474  0.62563900  1  0  0.094322  0  3.766718  0  0  0.099188  0  4.017054  0  0  0.098295  0  4.036635  0  0  0.117746  0.099304  0  4.0043  0
C  C17  1  0.64825666  0.32430491  0.67231268  1  0  0.663949  0  3.880143  0  0  0.609371  0  4.177757  0  0  0.643824  0  4.168639  0  0  0.246704  0.58579  0  4.183142  0
C  C18  1  0.35174463  0.67569572  0.32768842  1  0  0.663911  0  3.880196  0  0  0.609372  0  4.177754  0  0  0.643825  0  4.168636  0  0  0.246706  0.585791  0  4.183137  0
C  C19  1  0.70816491  0.43921785  0.59402210  1  0  0.094785  0  3.763594  0  0  0.102181  0  4.012148  0  0  0.101733  0  4.030764  0  0  0.121493  0.102027  0  3.999896  0
C  C20  1  0.29183415  0.56078032  0.40597709  1  0  0.09469  0  3.763685  0  0  0.102082  0  4.012236  0  0  0.101631  0  4.030856  0  0  0.121446  0.10193  0  3.999977  0
C  C21  1  0.84198069  0.70542472  0.58336041  1  0  -0.010335  0  3.696677  0  0  0.005533  0  3.946526  0  0  0.003368  0  3.962673  0  0  0.018388  0.006585  0  3.935788  0
C  C22  1  0.15801908  0.29457593  0.41663956  1  0  -0.010395  0  3.696739  0  0  0.005499  0  3.946572  0  0  0.003332  0  3.962722  0  0  0.018385  0.006556  0  3.935829  0
C  C23  1  0.82781743  0.62668060  0.43616797  1  0  -0.094483  0  3.635072  0  0  -0.133596  0  3.894262  0  0  -0.134043  0  3.90976  0  0  -0.054663  -0.132676  0  3.883789  0
C  C24  1  0.17217933  0.37332009  0.56383171  1  0  -0.094516  0  3.635115  0  0  -0.133599  0  3.894276  0  0  -0.134066  0  3.909779  0  0  -0.054683  -0.132682  0  3.883804  0
C  C25  1  0.71501133  0.36182746  0.21530850  1  0  0.651891  0  3.911301  0  0  0.599884  0  4.207735  0  0  0.633546  0  4.199694  0  0  0.233731  0.576796  0  4.212643  0
C  C26  1  0.28498914  0.63817567  0.78469223  1  0  0.651921  0  3.911171  0  0  0.599867  0  4.207665  0  0  0.63353  0  4.199622  0  0  0.233725  0.576781  0  4.212574  0
C  C27  1  0.92268637  0.89017989  0.65499370  1  0  0.697082  0  3.883857  0  0  0.646389  0  4.176159  0  0  0.681654  0  4.165616  0  0  0.246486  0.622249  0  4.182508  0
C  C28  1  0.07731304  0.10981953  0.34500588  1  0  0.697216  0  3.883674  0  0  0.64648  0  4.176047  0  0  0.681746  0  4.165501  0  0  0.246541  0.622337  0  4.182397  0
C  C29  1  0.78135856  0.61029108  0.66425622  1  0  -0.106187  0  3.640849  0  0  -0.147523  0  3.902773  0  0  -0.148792  0  3.919149  0  0  -0.053293  -0.146056  0  3.891705  0
C  C30  1  0.21864238  0.38970832  0.33574449  1  0  -0.106111  0  3.640889  0  0  -0.147453  0  3.902805  0  0  -0.148718  0  3.919178  0  0  -0.05325  -0.145987  0  3.891735  0
N  N31  1  0.68523318  0.36539241  0.45173090  1  0  -0.401871  0  3.273743  0  0  -0.359557  0  3.527532  0  0  -0.371395  0  3.548196  0  0  -0.354143  -0.351339  0  3.51403  0
N  N32  1  0.31476624  0.63460701  0.54826868  1  0  -0.401855  0  3.273784  0  0  -0.359542  0  3.527554  0  0  -0.371378  0  3.548215  0  0  -0.354143  -0.351325  0  3.514052  0
O  O33  1  0.09488442  0.95162275  0.63873527  1  0  -0.665045  0  1.94048  0  0  -0.609164  0  2.181916  0  0  -0.637477  0  2.171596  0  0  -0.355849  -0.588618  0  2.188191  0
O  O34  1  0.90511501  0.04837666  0.36126530  1  0  -0.66509  0  1.94045  0  0  -0.609202  0  2.181921  0  0  -0.637515  0  2.171601  0  0  -0.355877  -0.588656  0  2.188197  0
O  O35  1  0.55454432  0.17586786  0.59551152  1  0  -0.698649  0  1.972603  0  0  -0.63336  0  2.218007  0  0  -0.661899  0  2.209333  0  0  -0.348465  -0.612728  0  2.223027  0
O  O36  1  0.44545659  0.82413154  0.40448820  1  0  -0.698606  0  1.972612  0  0  -0.633337  0  2.217999  0  0  -0.661876  0  2.209327  0  0  -0.348467  -0.612706  0  2.223021  0
O  O37  1  0.53978955  0.83275478  0.10634188  1  0  -0.8758  0  1.85745  0  0  -0.808129  0  2.033355  0  0  -0.83085  0  1.998035  0  0  -0.604766  -0.792116  0  2.059065  0
O  O38  1  0.46021170  0.16724586  0.89365723  1  0  -0.875899  0  1.857347  0  0  -0.808227  0  2.033303  0  0  -0.830949  0  1.997981  0  0  -0.604802  -0.792214  0  2.059015  0
O  O39  1  0.69528182  0.38345170  0.80919163  1  0  -0.679715  0  1.990351  0  0  -0.613503  0  2.223337  0  0  -0.640413  0  2.21201  0  0  -0.33384  -0.5941  0  2.231945  0
O  O40  1  0.30471910  0.61654770  0.19080809  1  0  -0.679684  0  1.990356  0  0  -0.613494  0  2.223325  0  0  -0.640406  0  2.211997  0  0  -0.333838  -0.594091  0  2.23193  0
O  O41  1  0.80868263  0.97012379  0.72876944  1  0  -0.690205  0  1.95881  0  0  -0.622835  0  2.186529  0  0  -0.651371  0  2.174028  0  0  -0.343954  -0.602231  0  2.19446  0
O  O42  1  0.19131715  0.02987687  0.27123152  1  0  -0.69027  0  1.958702  0  0  -0.62289  0  2.186449  0  0  -0.651427  0  2.173948  0  0  -0.344005  -0.602285  0  2.194381  0
O  O43  1  0.61453681  0.21137551  0.16787925  1  0  -0.660415  0  1.971225  0  0  -0.596604  0  2.194905  0  0  -0.623626  0  2.18422  0  0  -0.331367  -0.577052  0  2.201581  0
O  O44  1  0.38546262  0.78862391  0.83212133  1  0  -0.6604  0  1.971295  0  0  -0.596569  0  2.194989  0  0  -0.623592  0  2.184303  0  0  -0.331347  -0.577017  0  2.201664  0
O  O45  1  0.79010861  0.43744045  0.14112567  1  0  -0.692796  0  1.989669  0  0  -0.636594  0  2.237502  0  0  -0.663214  0  2.226614  0  0  -0.374369  -0.617316  0  2.245927  0
O  O46  1  0.20988779  0.56255900  0.85887362  1  0  -0.692806  0  1.989504  0  0  -0.636592  0  2.237361  0  0  -0.663213  0  2.226473  0  0  -0.374378  -0.617312  0  2.245786  0
O  O47  1  0.91687548  0.76252010  0.06098048  1  0  -0.907487  0  1.764581  0  0  -0.853546  0  1.941838  0  0  -0.873696  0  1.905856  0  0  -0.639265  -0.838577  0  1.967689  0
O  O48  1  0.08312550  0.23747930  0.93902223  1  0  -0.90746  0  1.764577  0  0  -0.853527  0  1.941826  0  0  -0.873678  0  1.905844  0  0  -0.639274  -0.838557  0  1.967674  0
