# generated using pymatgen
data_CdH8C14S2(N3O)2
_symmetry_space_group_name_H-M   'P 1'
_cell_length_a   10.81084996
_cell_length_b   10.59217005
_cell_length_c   17.49261319
_cell_angle_alpha   89.99976661
_cell_angle_beta   89.99888433
_cell_angle_gamma   92.54717590
_symmetry_Int_Tables_number   1
_chemical_formula_structural   CdH8C14S2(N3O)2
_chemical_formula_sum   'Cd4 H32 C56 S8 N24 O8'
_cell_volume   2001.10634060
_cell_formula_units_Z   4
loop_
 _symmetry_equiv_pos_site_id
 _symmetry_equiv_pos_as_xyz
  1  'x, y, z'
loop_
 _atom_site_type_symbol
 _atom_site_label
 _atom_site_symmetry_multiplicity
 _atom_site_fract_x
 _atom_site_fract_y
 _atom_site_fract_z
 _atom_site_occupancy
 _atom_site_hle17_bader_spin_density
 _atom_site_hle17_ddec_charge
 _atom_site_hle17_ddec_spin_density
 _atom_site_hle17_ddec_sum_bond_order
 _atom_site_hle17_magmom
 _atom_site_hse06_10hf_bader_spin_density
 _atom_site_hse06_10hf_ddec_charge
 _atom_site_hse06_10hf_ddec_spin_density
 _atom_site_hse06_10hf_ddec_sum_bond_order
 _atom_site_hse06_10hf_magmom
 _atom_site_hse06_bader_spin_density
 _atom_site_hse06_ddec_charge
 _atom_site_hse06_ddec_spin_density
 _atom_site_hse06_ddec_sum_bond_order
 _atom_site_hse06_magmom
 _atom_site_pbe_bader_spin_density
 _atom_site_pbe_cm5_charge
 _atom_site_pbe_ddec_charge
 _atom_site_pbe_ddec_spin_density
 _atom_site_pbe_ddec_sum_bond_order
 _atom_site_pbe_magmom
Cd  Cd0  1  0.16084839  0.24753614  0.25189087  1  0  0.904798  0  1.892809  0  0  0.708229  0  2.348782  0  0  0.754472  0  2.31632  0  0  0.69687  0.675063  0  2.372215  0
Cd  Cd1  1  0.33915271  0.75246974  0.75188387  1  0  0.904895  0  1.892674  0  0  0.708295  0  2.348725  0  0  0.754529  0  2.316273  0  0  0.696864  0.675126  0  2.372159  0
Cd  Cd2  1  0.83914812  0.75247460  0.74811066  1  0  0.904832  0  1.892827  0  0  0.708217  0  2.348875  0  0  0.754453  0  2.316421  0  0  0.696857  0.675049  0  2.372307  0
Cd  Cd3  1  0.66085193  0.24753799  0.24811365  1  0  0.904878  0  1.892686  0  0  0.708288  0  2.348743  0  0  0.754526  0  2.316289  0  0  0.696902  0.675118  0  2.372177  0
H  H4  1  0.73131139  0.97399618  0.84516469  1  0  0.076633  0  0.97352  0  0  0.08278  0  1.042542  0  0  0.08534  0  1.04023  0  0  0.104915  0.080766  0  1.044467  0
H  H5  1  0.76869704  0.02603498  0.34516727  1  0  0.076587  0  0.973386  0  0  0.082758  0  1.042434  0  0  0.085316  0  1.040117  0  0  0.104885  0.080749  0  1.044361  0
H  H6  1  0.26868814  0.02600408  0.15484427  1  0  0.0767  0  0.973228  0  0  0.082829  0  1.042285  0  0  0.085386  0  1.039973  0  0  0.104959  0.080821  0  1.044198  0
H  H7  1  0.23130435  0.97396525  0.65481710  1  0  0.076676  0  0.973361  0  0  0.082846  0  1.042393  0  0  0.085417  0  1.040073  0  0  0.104903  0.080834  0  1.04432  0
H  H8  1  0.72162180  0.06689447  0.97602182  1  0  0.117982  0  0.936449  0  0  0.127743  0  0.993629  0  0  0.131206  0  0.992729  0  0  0.113251  0.12538  0  0.99416  0
H  H9  1  0.77838091  0.93312491  0.47601718  1  0  0.118141  0  0.936433  0  0  0.127886  0  0.993612  0  0  0.131355  0  0.992707  0  0  0.113305  0.125492  0  0.994181  0
H  H10  1  0.27837361  0.93309926  0.02398829  1  0  0.117933  0  0.93651  0  0  0.127723  0  0.993664  0  0  0.131188  0  0.992766  0  0  0.113274  0.125367  0  0.994189  0
H  H11  1  0.22160503  0.06685105  0.52395976  1  0  0.117959  0  0.936488  0  0  0.127751  0  0.993658  0  0  0.131215  0  0.99276  0  0  0.113295  0.125399  0  0.99418  0
H  H12  1  0.97599187  0.78777198  0.05000541  1  0  0.120949  0  0.926392  0  0  0.132324  0  0.979925  0  0  0.136274  0  0.978342  0  0  0.114943  0.129461  0  0.981287  0
H  H13  1  0.52396826  0.21220116  0.55000823  1  0  0.121  0  0.926415  0  0  0.132443  0  0.979865  0  0  0.136398  0  0.978274  0  0  0.11495  0.129581  0  0.981233  0
H  H14  1  0.02399099  0.21221351  0.95000183  1  0  0.120985  0  0.92635  0  0  0.132303  0  0.979921  0  0  0.136251  0  0.978342  0  0  0.114975  0.129443  0  0.981278  0
H  H15  1  0.47600772  0.78774948  0.44997443  1  0  0.120829  0  0.926419  0  0  0.132198  0  0.979959  0  0  0.136148  0  0.978378  0  0  0.114881  0.129341  0  0.981319  0
H  H16  1  0.97153558  0.70323105  0.91583840  1  0  0.076126  0  0.95579  0  0  0.083543  0  1.024709  0  0  0.086139  0  1.022416  0  0  0.106575  0.081711  0  1.026259  0
H  H17  1  0.52842556  0.29676060  0.41584923  1  0  0.076044  0  0.955813  0  0  0.083411  0  1.024769  0  0  0.086006  0  1.022478  0  0  0.106531  0.081587  0  1.026316  0
H  H18  1  0.02845909  0.29676554  0.08416198  1  0  0.076111  0  0.955828  0  0  0.083518  0  1.024758  0  0  0.086115  0  1.022467  0  0  0.10658  0.081685  0  1.026307  0
H  H19  1  0.47155755  0.70321448  0.58414201  1  0  0.076013  0  0.955955  0  0  0.083476  0  1.024816  0  0  0.086071  0  1.022525  0  0  0.106564  0.081651  0  1.02636  0
H  H20  1  0.00441693  0.78672636  0.58971001  1  0  0.077933  0  0.957114  0  0  0.085727  0  1.024222  0  0  0.08819  0  1.022623  0  0  0.106085  0.083981  0  1.025255  0
H  H21  1  0.49557128  0.21330342  0.08971697  1  0  0.078  0  0.957202  0  0  0.085738  0  1.024328  0  0  0.088231  0  1.022704  0  0  0.1061  0.083997  0  1.025358  0
H  H22  1  0.99560250  0.21326685  0.41030639  1  0  0.078094  0  0.95715  0  0  0.085793  0  1.024312  0  0  0.08827  0  1.0227  0  0  0.106125  0.084044  0  1.025344  0
H  H23  1  0.50442319  0.78671872  0.91028284  1  0  0.07791  0  0.957147  0  0  0.085687  0  1.024271  0  0  0.088149  0  1.022668  0  0  0.106025  0.083943  0  1.025304  0
H  H24  1  0.01673747  0.69898928  0.45664812  1  0  0.122351  0  0.925606  0  0  0.133888  0  0.978854  0  0  0.137731  0  0.977414  0  0  0.115889  0.131189  0  0.979954  0
H  H25  1  0.48325136  0.30103913  0.95665720  1  0  0.122164  0  0.925734  0  0  0.13372  0  0.978981  0  0  0.13756  0  0.977549  0  0  0.115836  0.131027  0  0.98008  0
H  H26  1  0.98328738  0.30100192  0.54336484  1  0  0.122297  0  0.925599  0  0  0.133882  0  0.978799  0  0  0.137723  0  0.977362  0  0  0.115933  0.13118  0  0.979905  0
H  H27  1  0.51675221  0.69899511  0.04334604  1  0  0.12233  0  0.925496  0  0  0.133848  0  0.978775  0  0  0.137694  0  0.97733  0  0  0.115895  0.131151  0  0.97988  0
H  H28  1  0.69192938  0.46211840  0.50943846  1  0  0.113764  0  0.94496  0  0  0.123882  0  1.003332  0  0  0.127228  0  1.002378  0  0  0.111457  0.121615  0  1.003862  0
H  H29  1  0.80808060  0.53789101  0.00944322  1  0  0.113637  0  0.945094  0  0  0.123781  0  1.00344  0  0  0.12712  0  1.002489  0  0  0.111503  0.121518  0  1.003966  0
H  H30  1  0.30808913  0.53787483  0.49056821  1  0  0.11367  0  0.945118  0  0  0.123869  0  1.003422  0  0  0.127197  0  1.002488  0  0  0.111434  0.12162  0  1.003931  0
H  H31  1  0.19192544  0.46213844  0.99056231  1  0  0.113711  0  0.944963  0  0  0.123801  0  1.003369  0  0  0.127146  0  1.002409  0  0  0.11144  0.121538  0  1.003895  0
H  H32  1  0.69248696  0.55944828  0.63948414  1  0  0.072893  0  0.985308  0  0  0.077468  0  1.058518  0  0  0.08035  0  1.056087  0  0  0.099943  0.075441  0  1.060145  0
H  H33  1  0.80751757  0.44055315  0.13948847  1  0  0.072954  0  0.985244  0  0  0.077525  0  1.058458  0  0  0.080409  0  1.056022  0  0  0.099943  0.075506  0  1.060084  0
H  H34  1  0.30752459  0.44055173  0.36052082  1  0  0.072895  0  0.985295  0  0  0.077436  0  1.05854  0  0  0.08032  0  1.056109  0  0  0.099898  0.075409  0  1.060167  0
H  H35  1  0.19249009  0.55945830  0.86051420  1  0  0.072879  0  0.985372  0  0  0.07748  0  1.058565  0  0  0.080364  0  1.056128  0  0  0.099937  0.075455  0  1.060196  0
C  C36  1  0.78338021  0.93447992  0.89205562  1  0  0.13489  0  3.709413  0  0  0.102256  0  3.96441  0  0  0.110532  0  3.979811  0  0  0.043927  0.096761  0  3.95399  0
C  C37  1  0.71662638  0.06554507  0.39205821  1  0  0.135222  0  3.708934  0  0  0.102521  0  3.96405  0  0  0.110802  0  3.979447  0  0  0.044084  0.097027  0  3.953617  0
C  C38  1  0.21661778  0.06552511  0.10794819  1  0  0.134918  0  3.709089  0  0  0.102334  0  3.964085  0  0  0.110612  0  3.979484  0  0  0.043951  0.09684  0  3.953674  0
C  C39  1  0.28336338  0.93443270  0.60792560  1  0  0.135046  0  3.70875  0  0  0.102301  0  3.963927  0  0  0.110568  0  3.979333  0  0  0.044012  0.09681  0  3.95351  0
C  C40  1  0.77755370  0.98589134  0.96475888  1  0  -0.135715  0  3.686157  0  0  -0.153946  0  3.929678  0  0  -0.160279  0  3.948703  0  0  -0.076952  -0.149917  0  3.916871  0
C  C41  1  0.72244813  0.01412346  0.46476090  1  0  -0.135983  0  3.686364  0  0  -0.154148  0  3.929894  0  0  -0.160494  0  3.948906  0  0  -0.077016  -0.150086  0  3.917096  0
C  C42  1  0.22243672  0.01409683  0.03525065  1  0  -0.13571  0  3.686093  0  0  -0.153966  0  3.929612  0  0  -0.160299  0  3.948641  0  0  -0.076956  -0.149946  0  3.916804  0
C  C43  1  0.27753935  0.98584774  0.53521719  1  0  -0.135584  0  3.68622  0  0  -0.153782  0  3.929807  0  0  -0.160123  0  3.948832  0  0  -0.076891  -0.149762  0  3.916992  0
C  C44  1  0.84785610  0.93399977  0.02348574  1  0  0.041274  0  3.81957  0  0  0.052472  0  4.059935  0  0  0.054768  0  4.081172  0  0  0.010293  0.051032  0  4.045514  0
C  C45  1  0.65214641  0.06601532  0.52349065  1  0  0.041374  0  3.819827  0  0  0.052483  0  4.060287  0  0  0.054809  0  4.081501  0  0  0.010214  0.051047  0  4.045854  0
C  C46  1  0.15214042  0.06599678  0.97651578  1  0  0.041258  0  3.81964  0  0  0.05246  0  4.060002  0  0  0.054748  0  4.081255  0  0  0.010235  0.05102  0  4.045583  0
C  C47  1  0.34783430  0.93395130  0.47648458  1  0  0.040917  0  3.820265  0  0  0.052045  0  4.060775  0  0  0.054362  0  4.081978  0  0  0.009806  0.050609  0  4.046353  0
C  C48  1  0.91965076  0.83053878  0.00620952  1  0  -0.149489  0  3.695925  0  0  -0.17257  0  3.950324  0  0  -0.178857  0  3.969385  0  0  -0.083848  -0.168534  0  3.937424  0
C  C49  1  0.58032774  0.16945433  0.50621515  1  0  -0.14968  0  3.696236  0  0  -0.172802  0  3.950614  0  0  -0.179102  0  3.969669  0  0  -0.083882  -0.168764  0  3.937715  0
C  C50  1  0.08034140  0.16944746  0.99379315  1  0  -0.149559  0  3.696182  0  0  -0.172554  0  3.950563  0  0  -0.178836  0  3.969619  0  0  -0.083841  -0.168523  0  3.937671  0
C  C51  1  0.41964128  0.83050308  0.49376123  1  0  -0.149004  0  3.69567  0  0  -0.17208  0  3.950034  0  0  -0.178367  0  3.969088  0  0  -0.083532  -0.168051  0  3.937139  0
C  C52  1  0.91766330  0.78382237  0.93186944  1  0  0.134989  0  3.71771  0  0  0.1005  0  3.980132  0  0  0.108172  0  3.996575  0  0  0.045032  0.095393  0  3.968837  0
C  C53  1  0.58231760  0.21618191  0.43187572  1  0  0.135266  0  3.717973  0  0  0.100876  0  3.980336  0  0  0.108549  0  3.996786  0  0  0.045179  0.095768  0  3.969037  0
C  C54  1  0.08233045  0.21617424  0.06812923  1  0  0.13507  0  3.717637  0  0  0.100596  0  3.98007  0  0  0.108271  0  3.99651  0  0  0.045025  0.095488  0  3.968776  0
C  C55  1  0.41766607  0.78378748  0.56810351  1  0  0.134928  0  3.717117  0  0  0.100496  0  3.979428  0  0  0.108162  0  3.995873  0  0  0.045013  0.095392  0  3.968138  0
C  C56  1  0.84728677  0.99186074  0.09845506  1  0  0.325647  0  3.745381  0  0  0.293381  0  4.028868  0  0  0.308242  0  4.036784  0  0  0.208016  0.28366  0  4.023269  0
C  C57  1  0.65271220  0.00816398  0.59846177  1  0  0.325431  0  3.745855  0  0  0.293187  0  4.029291  0  0  0.308018  0  4.037247  0  0  0.207889  0.283468  0  4.023689  0
C  C58  1  0.15271024  0.00814337  0.90154818  1  0  0.32576  0  3.745033  0  0  0.293425  0  4.028637  0  0  0.308287  0  4.036547  0  0  0.207994  0.283706  0  4.023036  0
C  C59  1  0.34727607  0.99181950  0.40152147  1  0  0.325554  0  3.746215  0  0  0.293236  0  4.029758  0  0  0.308086  0  4.037688  0  0  0.2081  0.283513  0  4.024155  0
C  C60  1  0.90989285  0.04654812  0.21287684  1  0  0.399715  0  3.776692  0  0  0.360317  0  4.088991  0  0  0.385835  0  4.09351  0  0  0.196218  0.342676  0  4.086155  0
C  C61  1  0.59009939  0.95345557  0.71288344  1  0  0.399889  0  3.776268  0  0  0.3605  0  4.088484  0  0  0.386015  0  4.093011  0  0  0.196307  0.342857  0  4.085654  0
C  C62  1  0.09009603  0.95345900  0.78712411  1  0  0.399903  0  3.776261  0  0  0.360488  0  4.088574  0  0  0.386004  0  4.093094  0  0  0.196235  0.342847  0  4.085742  0
C  C63  1  0.40989688  0.04655139  0.28710494  1  0  0.399713  0  3.776456  0  0  0.360307  0  4.088687  0  0  0.385826  0  4.093202  0  0  0.196328  0.342667  0  4.085844  0
C  C64  1  0.93710775  0.71446315  0.56935692  1  0  0.134571  0  3.705023  0  0  0.100598  0  3.965358  0  0  0.108152  0  3.981569  0  0  0.044306  0.095653  0  3.954103  0
C  C65  1  0.56288647  0.28556012  0.06936792  1  0  0.134314  0  3.704648  0  0  0.100425  0  3.964999  0  0  0.107953  0  3.98119  0  0  0.044318  0.095479  0  3.953744  0
C  C66  1  0.06291261  0.28553004  0.43065318  1  0  0.133913  0  3.705038  0  0  0.100142  0  3.965335  0  0  0.107681  0  3.98154  0  0  0.044081  0.095203  0  3.954078  0
C  C67  1  0.43711785  0.71445707  0.93063361  1  0  0.134514  0  3.704916  0  0  0.100593  0  3.965265  0  0  0.108151  0  3.981477  0  0  0.044367  0.095646  0  3.954013  0
C  C68  1  0.94365839  0.66587529  0.49559436  1  0  -0.146377  0  3.688231  0  0  -0.170256  0  3.942939  0  0  -0.176133  0  3.961494  0  0  -0.082708  -0.166398  0  3.930209  0
C  C69  1  0.55633722  0.33415822  0.99559488  1  0  -0.145994  0  3.687659  0  0  -0.169826  0  3.942412  0  0  -0.175714  0  3.960968  0  0  -0.082618  -0.165975  0  3.929688  0
C  C70  1  0.05635747  0.33411989  0.50441918  1  0  -0.145996  0  3.687632  0  0  -0.169906  0  3.942397  0  0  -0.175797  0  3.960944  0  0  -0.082578  -0.166045  0  3.929657  0
C  C71  1  0.44367074  0.66585795  0.00440436  1  0  -0.146252  0  3.688068  0  0  -0.170109  0  3.94277  0  0  -0.175996  0  3.961327  0  0  -0.082669  -0.166249  0  3.930033  0
C  C72  1  0.85514347  0.57236582  0.47286137  1  0  0.04146  0  3.818077  0  0  0.05243  0  4.058771  0  0  0.054637  0  4.07983  0  0  0.010571  0.051012  0  4.044499  0
C  C73  1  0.64485478  0.42765464  0.97286353  1  0  0.04169  0  3.817978  0  0  0.052502  0  4.058882  0  0  0.054736  0  4.079901  0  0  0.010695  0.051088  0  4.044608  0
C  C74  1  0.14487590  0.42762644  0.52715102  1  0  0.041589  0  3.817876  0  0  0.052285  0  4.058922  0  0  0.054531  0  4.079919  0  0  0.010455  0.050868  0  4.044643  0
C  C75  1  0.35515816  0.57236709  0.02713800  1  0  0.041551  0  3.818479  0  0  0.052491  0  4.059163  0  0  0.054712  0  4.08021  0  0  0.010609  0.051075  0  4.044889  0
C  C76  1  0.76234982  0.53412923  0.52531668  1  0  -0.137642  0  3.69057  0  0  -0.155871  0  3.931717  0  0  -0.162213  0  3.95136  0  0  -0.07843  -0.151754  0  3.918404  0
C  C77  1  0.73764518  0.46588506  0.02532526  1  0  -0.137514  0  3.690505  0  0  -0.155712  0  3.931738  0  0  -0.162055  0  3.951361  0  0  -0.078477  -0.151596  0  3.918419  0
C  C78  1  0.23765976  0.46586893  0.47469285  1  0  -0.137666  0  3.690908  0  0  -0.155892  0  3.932128  0  0  -0.162232  0  3.951772  0  0  -0.078403  -0.151798  0  3.918812  0
C  C79  1  0.26236179  0.53413018  0.97468084  1  0  -0.137432  0  3.690572  0  0  -0.15564  0  3.93176  0  0  -0.161984  0  3.951393  0  0  -0.078322  -0.151524  0  3.918438  0
C  C80  1  0.76368375  0.58731068  0.59770433  1  0  0.133749  0  3.704901  0  0  0.103365  0  3.955637  0  0  0.110912  0  3.971494  0  0  0.043272  0.098411  0  3.94463  0
C  C81  1  0.73631457  0.41270366  0.09771187  1  0  0.133433  0  3.704718  0  0  0.103074  0  3.955479  0  0  0.110613  0  3.971341  0  0  0.043111  0.098123  0  3.944461  0
C  C82  1  0.23633217  0.41268545  0.40230463  1  0  0.1336  0  3.705061  0  0  0.103275  0  3.955793  0  0  0.110816  0  3.971653  0  0  0.043229  0.098321  0  3.944791  0
C  C83  1  0.26369142  0.58731066  0.90229080  1  0  0.133574  0  3.70473  0  0  0.103216  0  3.955465  0  0  0.110758  0  3.971329  0  0  0.0432  0.098264  0  3.944455  0
C  C84  1  0.85789369  0.51111925  0.39894849  1  0  0.322157  0  3.750363  0  0  0.290192  0  4.032494  0  0  0.305174  0  4.040393  0  0  0.208185  0.280424  0  4.026889  0
C  C85  1  0.64211159  0.48888866  0.89895230  1  0  0.322001  0  3.750884  0  0  0.290065  0  4.033061  0  0  0.305023  0  4.040961  0  0  0.208096  0.280295  0  4.027455  0
C  C86  1  0.14211312  0.48887897  0.60106219  1  0  0.322033  0  3.750598  0  0  0.290274  0  4.03259  0  0  0.305236  0  4.040476  0  0  0.208256  0.280554  0  4.026977  0
C  C87  1  0.35790407  0.51113207  0.10105094  1  0  0.322013  0  3.750891  0  0  0.29014  0  4.03292  0  0  0.305116  0  4.040818  0  0  0.208077  0.280367  0  4.027315  0
C  C88  1  0.92525509  0.45123171  0.28759998  1  0  0.402906  0  3.770301  0  0  0.363274  0  4.082642  0  0  0.388728  0  4.087156  0  0  0.197067  0.345721  0  4.079919  0
C  C89  1  0.57474792  0.54875955  0.78760338  1  0  0.402888  0  3.769924  0  0  0.363257  0  4.082285  0  0  0.388689  0  4.086821  0  0  0.197013  0.345702  0  4.079561  0
C  C90  1  0.07474339  0.54878088  0.71240726  1  0  0.402683  0  3.770382  0  0  0.36311  0  4.082661  0  0  0.388544  0  4.087185  0  0  0.196991  0.345603  0  4.079938  0
C  C91  1  0.42525691  0.45125101  0.21240329  1  0  0.403101  0  3.769912  0  0  0.363506  0  4.0822  0  0  0.388953  0  4.086724  0  0  0.19711  0.345947  0  4.079479  0
S  S92  1  0.00073151  0.05037480  0.29099422  1  0  -0.449005  0  2.008122  0  0  -0.441708  0  2.336277  0  0  -0.461106  0  2.327776  0  0  -0.217277  -0.426968  0  2.342737  0
S  S93  1  0.49925031  0.94962349  0.79099125  1  0  -0.449035  0  2.008132  0  0  -0.441784  0  2.336316  0  0  -0.461168  0  2.327803  0  0  -0.217343  -0.427037  0  2.342778  0
S  S94  1  0.99925686  0.94963896  0.70900789  1  0  -0.449071  0  2.00793  0  0  -0.441774  0  2.336116  0  0  -0.461171  0  2.32761  0  0  -0.217324  -0.42704  0  2.342581  0
S  S95  1  0.50074312  0.05038258  0.20899655  1  0  -0.449026  0  2.008279  0  0  -0.441776  0  2.336476  0  0  -0.461166  0  2.327957  0  0  -0.217352  -0.427044  0  2.342937  0
S  S96  1  0.02053461  0.44557186  0.21177979  1  0  -0.451841  0  2.02968  0  0  -0.444779  0  2.361925  0  0  -0.464265  0  2.353195  0  0  -0.219002  -0.430532  0  2.368924  0
S  S97  1  0.47946999  0.55441170  0.71177996  1  0  -0.451754  0  2.029375  0  0  -0.444688  0  2.361584  0  0  -0.46417  0  2.35287  0  0  -0.218971  -0.430436  0  2.368579  0
S  S98  1  0.97946935  0.55443967  0.78822803  1  0  -0.451789  0  2.029814  0  0  -0.44476  0  2.362048  0  0  -0.464235  0  2.353325  0  0  -0.219007  -0.430504  0  2.369026  0
S  S99  1  0.52053527  0.44559128  0.28822500  1  0  -0.451895  0  2.029395  0  0  -0.444837  0  2.361588  0  0  -0.464315  0  2.35286  0  0  -0.219047  -0.43058  0  2.368583  0
N  N100  1  0.85150784  0.83474540  0.87556889  1  0  -0.31043  0  3.251006  0  0  -0.235323  0  3.515296  0  0  -0.252889  0  3.532882  0  0  -0.325645  -0.223061  0  3.503091  0
N  N101  1  0.64848153  0.16527732  0.37557445  1  0  -0.310718  0  3.250964  0  0  -0.235633  0  3.515231  0  0  -0.253199  0  3.532812  0  0  -0.325737  -0.223365  0  3.503026  0
N  N102  1  0.14849305  0.16526146  0.12443321  1  0  -0.310555  0  3.250837  0  0  -0.235503  0  3.51514  0  0  -0.253068  0  3.532719  0  0  -0.325722  -0.223242  0  3.502942  0
N  N103  1  0.35151247  0.83470888  0.62441450  1  0  -0.310666  0  3.250412  0  0  -0.235541  0  3.514611  0  0  -0.253095  0  3.532182  0  0  -0.325679  -0.223287  0  3.50242  0
N  N104  1  0.77246033  0.07703153  0.12213135  1  0  -0.246482  0  2.969645  0  0  -0.231163  0  3.244267  0  0  -0.237924  0  3.259452  0  0  -0.225574  -0.22671  0  3.234173  0
N  N105  1  0.72753710  0.92298066  0.62213975  1  0  -0.246566  0  2.969709  0  0  -0.231289  0  3.244349  0  0  -0.238045  0  3.259548  0  0  -0.225644  -0.226833  0  3.234247  0
N  N106  1  0.22753452  0.92296790  0.87786675  1  0  -0.246482  0  2.969662  0  0  -0.231156  0  3.244293  0  0  -0.237915  0  3.259476  0  0  -0.225558  -0.226706  0  3.234201  0
N  N107  1  0.27245554  0.07701313  0.37785149  1  0  -0.246937  0  2.969868  0  0  -0.231676  0  3.244536  0  0  -0.238438  0  3.259729  0  0  -0.225886  -0.227219  0  3.234439  0
N  N108  1  0.81090246  0.11147537  0.19442790  1  0  -0.323118  0  3.110573  0  0  -0.26259  0  3.399379  0  0  -0.283147  0  3.415936  0  0  -0.247634  -0.248402  0  3.38862  0
N  N109  1  0.68908642  0.88852482  0.69443396  1  0  -0.323005  0  3.110423  0  0  -0.262482  0  3.399207  0  0  -0.283037  0  3.415758  0  0  -0.24752  -0.248296  0  3.38845  0
N  N110  1  0.18908519  0.88852705  0.80557078  1  0  -0.323211  0  3.110484  0  0  -0.262645  0  3.399259  0  0  -0.283202  0  3.415811  0  0  -0.247562  -0.248462  0  3.388506  0
N  N111  1  0.31091557  0.11148485  0.30556185  1  0  -0.322632  0  3.110368  0  0  -0.262049  0  3.399073  0  0  -0.282605  0  3.415622  0  0  -0.24741  -0.247869  0  3.388316  0
N  N112  1  0.84989384  0.67539042  0.61988281  1  0  -0.309774  0  3.258514  0  0  -0.234714  0  3.522503  0  0  -0.252087  0  3.540215  0  0  -0.324152  -0.222545  0  3.510062  0
N  N113  1  0.65009720  0.32462193  0.11988982  1  0  -0.309676  0  3.258502  0  0  -0.234656  0  3.522503  0  0  -0.252029  0  3.540234  0  0  -0.324144  -0.222481  0  3.510053  0
N  N114  1  0.15011949  0.32460860  0.38012443  1  0  -0.309393  0  3.258507  0  0  -0.234402  0  3.522428  0  0  -0.25177  0  3.540142  0  0  -0.324017  -0.222244  0  3.509995  0
N  N115  1  0.34991132  0.67538855  0.88011056  1  0  -0.309769  0  3.258506  0  0  -0.23479  0  3.52256  0  0  -0.252167  0  3.540282  0  0  -0.324167  -0.222619  0  3.510116  0
N  N116  1  0.77681346  0.42624849  0.37342570  1  0  -0.245265  0  2.987937  0  0  -0.226903  0  3.262798  0  0  -0.234214  0  3.278476  0  0  -0.223097  -0.222013  0  3.252389  0
N  N117  1  0.72319249  0.57375780  0.87342954  1  0  -0.245069  0  2.988213  0  0  -0.226687  0  3.263058  0  0  -0.233997  0  3.278744  0  0  -0.22298  -0.221797  0  3.252644  0
N  N118  1  0.22319463  0.57375537  0.62658554  1  0  -0.245252  0  2.988154  0  0  -0.226936  0  3.26297  0  0  -0.234254  0  3.278659  0  0  -0.223023  -0.222038  0  3.252547  0
N  N119  1  0.27681774  0.42626494  0.12657370  1  0  -0.245251  0  2.988169  0  0  -0.226947  0  3.26307  0  0  -0.234258  0  3.27875  0  0  -0.223129  -0.222056  0  3.25266  0
N  N120  1  0.81846659  0.38824514  0.30327873  1  0  -0.322376  0  3.109693  0  0  -0.262734  0  3.397266  0  0  -0.283175  0  3.413931  0  0  -0.246847  -0.248711  0  3.386402  0
N  N121  1  0.68153721  0.61175159  0.80328359  1  0  -0.322516  0  3.109716  0  0  -0.262865  0  3.397289  0  0  -0.283309  0  3.413971  0  0  -0.246862  -0.248833  0  3.386408  0
N  N122  1  0.18153540  0.61176453  0.69672909  1  0  -0.322298  0  3.109799  0  0  -0.262644  0  3.397345  0  0  -0.283093  0  3.414034  0  0  -0.246857  -0.248597  0  3.386424  0
N  N123  1  0.31846280  0.38827043  0.19672080  1  0  -0.322422  0  3.109704  0  0  -0.262776  0  3.397276  0  0  -0.283217  0  3.413949  0  0  -0.246747  -0.248748  0  3.386404  0
O  O124  1  0.93465070  0.96561747  0.15203259  1  0  -0.263987  0  2.264963  0  0  -0.19107  0  2.481709  0  0  -0.208145  0  2.48091  0  0  -0.112663  -0.180001  0  2.48286  0
O  O125  1  0.56535016  0.03440471  0.65203975  1  0  -0.264016  0  2.26509  0  0  -0.191005  0  2.481738  0  0  -0.208073  0  2.480951  0  0  -0.112628  -0.179935  0  2.48289  0
O  O126  1  0.06534471  0.03439046  0.84796951  1  0  -0.264103  0  2.2649  0  0  -0.191166  0  2.481679  0  0  -0.208237  0  2.480871  0  0  -0.112697  -0.180098  0  2.482832  0
O  O127  1  0.43463079  0.96557988  0.34794748  1  0  -0.263879  0  2.265289  0  0  -0.190862  0  2.481978  0  0  -0.207935  0  2.481181  0  0  -0.112614  -0.179794  0  2.483129  0
O  O128  1  0.95322229  0.53335990  0.34863180  1  0  -0.26329  0  2.257221  0  0  -0.190728  0  2.473205  0  0  -0.207638  0  2.472099  0  0  -0.112981  -0.17981  0  2.474564  0
O  O129  1  0.54677909  0.46663542  0.84864195  1  0  -0.263366  0  2.257189  0  0  -0.190827  0  2.473186  0  0  -0.207697  0  2.472063  0  0  -0.112997  -0.179903  0  2.474543  0
O  O130  1  0.04677958  0.46664788  0.65137831  1  0  -0.263127  0  2.257186  0  0  -0.190657  0  2.473151  0  0  -0.207529  0  2.472028  0  0  -0.112959  -0.179867  0  2.474595  0
O  O131  1  0.45322788  0.53337982  0.15136472  1  0  -0.263413  0  2.257236  0  0  -0.190893  0  2.473192  0  0  -0.207807  0  2.472106  0  0  -0.113013  -0.179969  0  2.474549  0
