# generated using pymatgen
data_ZnH26C38(NO2)2
_symmetry_space_group_name_H-M   'P 1'
_cell_length_a   9.08082076
_cell_length_b   9.08103196
_cell_length_c   17.95100622
_cell_angle_alpha   94.09824169
_cell_angle_beta   94.09706950
_cell_angle_gamma   106.22823609
_symmetry_Int_Tables_number   1
_chemical_formula_structural   ZnH26C38(NO2)2
_chemical_formula_sum   'Zn2 H52 C76 N4 O8'
_cell_volume   1411.20891256
_cell_formula_units_Z   2
loop_
 _symmetry_equiv_pos_site_id
 _symmetry_equiv_pos_as_xyz
  1  'x, y, z'
loop_
 _atom_site_type_symbol
 _atom_site_label
 _atom_site_symmetry_multiplicity
 _atom_site_fract_x
 _atom_site_fract_y
 _atom_site_fract_z
 _atom_site_occupancy
 _atom_site_pbe_bader_spin_density
 _atom_site_pbe_cm5_charge
 _atom_site_pbe_ddec_charge
 _atom_site_pbe_ddec_spin_density
 _atom_site_pbe_ddec_sum_bond_order
 _atom_site_pbe_magmom
Zn  Zn0  1  0.62323845  0.47287164  0.92516253  1  0  0.705136  0.764049  0  2.371758  0
Zn  Zn1  1  0.47287896  0.62325130  0.42516681  1  0  0.70513  0.764036  0  2.371978  0
H  H2  1  0.32081606  0.69684080  0.93479014  1  0  0.099858  0.103221  0  1.009689  0
H  H3  1  0.69683562  0.32081315  0.43478601  1  0  0.099841  0.103182  0  1.00961  0
H  H4  1  0.31992835  0.63921953  0.56312789  1  0  0.118836  0.087062  0  1.034955  0
H  H5  1  0.63919326  0.31995572  0.06312942  1  0  0.118785  0.08699  0  1.034969  0
H  H6  1  0.80626259  0.43415083  0.79334980  1  0  0.120037  0.098413  0  1.035237  0
H  H7  1  0.43415100  0.80626502  0.29334467  1  0  0.120028  0.098393  0  1.035231  0
H  H8  1  0.34431247  0.81758242  0.67576855  1  0  0.107822  0.112047  0  1.038457  0
H  H9  1  0.81757376  0.34432754  0.17576997  1  0  0.10781  0.112034  0  1.038466  0
H  H10  1  0.76856473  0.25774043  0.67709646  1  0  0.114634  0.122028  0  1.008695  0
H  H11  1  0.25773619  0.76856517  0.17709188  1  0  0.114634  0.122039  0  1.008698  0
H  H12  1  0.13386184  0.08399639  0.92554619  1  0  0.092004  0.093495  0  1.08197  0
H  H13  1  0.08399393  0.13386587  0.42554423  1  0  0.092034  0.093551  0  1.081907  0
H  H14  1  0.59615292  0.84967888  0.79484527  1  0  0.108326  0.110225  0  0.973902  0
H  H15  1  0.84967820  0.59611494  0.29484240  1  0  0.108289  0.110343  0  0.973823  0
H  H16  1  0.41527808  0.44640090  0.20393817  1  0  0.095353  0.100681  0  1.040818  0
H  H17  1  0.44640692  0.41527122  0.70393970  1  0  0.095308  0.100614  0  1.040818  0
H  H18  1  0.45643309  0.80134311  0.05902462  1  0  0.100291  0.10989  0  1.039422  0
H  H19  1  0.80134950  0.45644359  0.55902002  1  0  0.100307  0.11007  0  1.039367  0
H  H20  1  0.18762298  0.25420849  0.07972697  1  0  0.10798  0.112175  0  0.96946  0
H  H21  1  0.25421639  0.18762891  0.57971992  1  0  0.108021  0.112295  0  0.969348  0
H  H22  1  0.39384854  0.18587727  0.86501105  1  0  0.119064  0.098111  0  1.037687  0
H  H23  1  0.18587022  0.39385812  0.36501001  1  0  0.119083  0.098106  0  1.037609  0
H  H24  1  0.11724669  0.28435071  0.78617356  1  0  0.095385  0.097799  0  1.055936  0
H  H25  1  0.28434123  0.11724751  0.28617615  1  0  0.095393  0.097874  0  1.055892  0
H  H26  1  0.15054616  0.83442696  0.87001328  1  0  0.094469  0.092472  0  1.044128  0
H  H27  1  0.83443217  0.15054311  0.37002228  1  0  0.094487  0.092494  0  1.044177  0
H  H28  1  0.33289166  0.00256012  0.75018808  1  0  0.112705  0.120814  0  1.003092  0
H  H29  1  0.00255521  0.33289714  0.25018821  1  0  0.112732  0.120844  0  1.003042  0
H  H30  1  0.68341892  0.15412090  0.56976554  1  0  0.10981  0.117452  0  1.046387  0
H  H31  1  0.15411763  0.68343117  0.06976597  1  0  0.109826  0.117478  0  1.046359  0
H  H32  1  0.57816328  0.96204424  0.18809544  1  0  0.099587  0.107131  0  1.023476  0
H  H33  1  0.96203786  0.57815208  0.68810053  1  0  0.099587  0.10714  0  1.023479  0
H  H34  1  0.00007859  0.92521421  0.54774389  1  0  0.093197  0.090104  0  1.046953  0
H  H35  1  0.92521013  0.00009587  0.04774580  1  0  0.09329  0.090143  0  1.046817  0
H  H36  1  0.64563141  0.63874921  0.66452158  1  0  0.098496  0.108268  0  1.021552  0
H  H37  1  0.63873876  0.64561523  0.16452728  1  0  0.098495  0.108312  0  1.021582  0
H  H38  1  0.72195479  0.01200378  0.94941061  1  0  0.104257  0.115068  0  0.993903  0
H  H39  1  0.01199816  0.72193728  0.44940923  1  0  0.104216  0.115047  0  0.993957  0
H  H40  1  0.10457573  0.40088100  0.91444212  1  0  0.100146  0.102997  0  1.001388  0
H  H41  1  0.40090078  0.10460632  0.41444721  1  0  0.100096  0.102997  0  1.001338  0
H  H42  1  0.91344072  0.26282536  0.99614309  1  0  0.090547  0.081757  0  1.062479  0
H  H43  1  0.26281807  0.91346452  0.49613667  1  0  0.090538  0.08181  0  1.06256  0
H  H44  1  0.65164918  0.95485667  0.46327816  1  0  0.120023  0.097233  0  1.027113  0
H  H45  1  0.95484855  0.65165409  0.96327586  1  0  0.120035  0.097199  0  1.027038  0
H  H46  1  0.58371486  0.39218135  0.30900515  1  0  0.094657  0.100183  0  1.054296  0
H  H47  1  0.39217717  0.58371530  0.80899613  1  0  0.09467  0.100197  0  1.054253  0
H  H48  1  0.65951533  0.14874679  0.30074474  1  0  0.098026  0.097231  0  1.042315  0
H  H49  1  0.14875172  0.65952656  0.80074379  1  0  0.098042  0.097251  0  1.042274  0
H  H50  1  0.78327054  0.68891674  0.55060951  1  0  0.098327  0.095165  0  1.029802  0
H  H51  1  0.68891901  0.78329263  0.05061586  1  0  0.098277  0.095191  0  1.029765  0
H  H52  1  0.08262606  0.11758666  0.66032571  1  0  0.093845  0.092361  0  1.062401  0
H  H53  1  0.11758644  0.08262510  0.16032318  1  0  0.093877  0.092441  0  1.062306  0
C  C54  1  0.31061086  0.80615455  0.95977486  1  0  -0.094454  -0.084402  0  4.013482  0
C  C55  1  0.80614558  0.31059823  0.45977069  1  0  -0.094459  -0.084248  0  4.013417  0
C  C56  1  0.40130325  0.75359264  0.56760740  1  0  0.050712  0.098466  0  3.938085  0
C  C57  1  0.75357756  0.40131357  0.06761188  1  0  0.050755  0.098528  0  3.937881  0
C  C58  1  0.38216267  0.38611199  0.02904567  1  0  0.21006  0.602458  0  4.186472  0
C  C59  1  0.38610727  0.38217033  0.52904415  1  0  0.209971  0.602346  0  4.186726  0
C  C60  1  0.70385933  0.33614074  0.78128070  1  0  0.052704  0.090512  0  3.927952  0
C  C61  1  0.33614559  0.70385362  0.28127653  1  0  0.052645  0.09056  0  3.928034  0
C  C62  1  0.39872580  0.23290871  0.13868092  1  0  -0.012032  0.043337  0  3.949752  0
C  C63  1  0.23291256  0.39872016  0.63867573  1  0  -0.012053  0.043422  0  3.949978  0
C  C64  1  0.41427614  0.85640356  0.63027919  1  0  -0.076185  -0.166245  0  3.926233  0
C  C65  1  0.85639391  0.41427766  0.13027747  1  0  -0.076149  -0.166258  0  3.926169  0
C  C66  1  0.68001592  0.23771610  0.71599556  1  0  -0.066833  -0.143274  0  3.902814  0
C  C67  1  0.23771562  0.68001629  0.21599295  1  0  -0.066743  -0.143162  0  3.902783  0
C  C68  1  0.92834662  0.08118495  0.79649807  1  0  -0.013091  0.016755  0  4.012783  0
C  C69  1  0.08119525  0.92831671  0.29649368  1  0  -0.013237  0.016554  0  4.012784  0
C  C70  1  0.81575227  0.00575470  0.84223104  1  0  -0.003992  0.065491  0  3.920483  0
C  C71  1  0.00576303  0.81572860  0.34222659  1  0  -0.003936  0.06551  0  3.920574  0
C  C72  1  0.78587692  0.85184322  0.72687449  1  0  -0.008163  0.06183  0  3.932359  0
C  C73  1  0.85184390  0.78586137  0.22687519  1  0  -0.008231  0.061798  0  3.932351  0
C  C74  1  0.54583919  0.11329053  0.70223523  1  0  0.02071  0.1076  0  3.948575  0
C  C75  1  0.11328969  0.54583205  0.20223117  1  0  0.020708  0.107453  0  3.948511  0
C  C76  1  0.52009057  0.00365585  0.63443540  1  0  0.020849  0.106091  0  3.949569  0
C  C77  1  0.00365668  0.52007939  0.13442727  1  0  0.020811  0.106185  0  3.949436  0
C  C78  1  0.44507268  0.09618934  0.13344883  1  0  -0.016543  0.009804  0  4.021277  0
C  C79  1  0.09619484  0.44507210  0.63344935  1  0  -0.016458  0.009928  0  4.021496  0
C  C80  1  0.20557670  0.02466403  0.95496141  1  0  -0.096806  -0.129076  0  3.993056  0
C  C81  1  0.02467137  0.20558150  0.45496279  1  0  -0.096817  -0.129043  0  3.992909  0
C  C82  1  0.71865280  0.85332414  0.80160473  1  0  -0.079442  -0.198529  0  3.913748  0
C  C83  1  0.85332200  0.71861743  0.30160423  1  0  -0.079273  -0.198408  0  3.913277  0
C  C84  1  0.44901720  0.34014099  0.20117619  1  0  -0.098376  -0.141108  0  4.004637  0
C  C85  1  0.34013034  0.44899182  0.70118004  1  0  -0.098366  -0.141033  0  4.004636  0
C  C86  1  0.38992383  0.86650997  0.02992109  1  0  -0.096775  -0.137152  0  3.989561  0
C  C87  1  0.86651516  0.38994897  0.52991011  1  0  -0.096737  -0.137366  0  3.989339  0
C  C88  1  0.37758191  0.00726204  0.06176929  1  0  -0.019782  0.002365  0  4.021072  0
C  C89  1  0.00727318  0.37760672  0.56176214  1  0  -0.019868  0.002163  0  4.021222  0
C  C90  1  0.30043808  0.24022520  0.06746693  1  0  -0.082113  -0.209655  0  3.90572  0
C  C91  1  0.24023266  0.30044508  0.56746117  1  0  -0.082142  -0.209902  0  3.906232  0
C  C92  1  0.90936799  0.98630172  0.72519673  1  0  -0.016094  0.015338  0  4.016403  0
C  C93  1  0.98631109  0.90933811  0.22518937  1  0  -0.016002  0.015656  0  4.016308  0
C  C94  1  0.47221895  0.19735032  0.82117551  1  0  0.051167  0.098903  0  3.911511  0
C  C95  1  0.19735805  0.47223026  0.32117655  1  0  0.051173  0.098982  0  3.911326  0
C  C96  1  0.73150052  0.72006294  0.84744043  1  0  0.210493  0.601782  0  4.148972  0
C  C97  1  0.72006337  0.73149219  0.34744794  1  0  0.210397  0.601603  0  4.149038  0
C  C98  1  0.03154647  0.22463204  0.82155667  1  0  -0.092734  -0.126558  0  3.98114  0
C  C99  1  0.22461810  0.03153946  0.32155533  1  0  -0.092811  -0.126901  0  3.981285  0
C  C100  1  0.28747233  0.08780138  0.02364268  1  0  -0.010823  0.068371  0  3.933568  0
C  C101  1  0.08781004  0.28748488  0.52364296  1  0  -0.010774  0.068534  0  3.933835  0
C  C102  1  0.21761476  0.88375322  0.92321416  1  0  -0.098729  -0.09571  0  4.01878  0
C  C103  1  0.88374455  0.21759743  0.42322225  1  0  -0.098801  -0.095888  0  4.019021  0
C  C104  1  0.44068014  0.09495663  0.75697182  1  0  -0.075229  -0.165692  0  3.920214  0
C  C105  1  0.09496409  0.44068021  0.25696895  1  0  -0.075241  -0.165637  0  3.919976  0
C  C106  1  0.60389538  0.04057167  0.57229186  1  0  -0.066997  -0.1405  0  3.888429  0
C  C107  1  0.04057330  0.60389072  0.07228815  1  0  -0.067078  -0.140688  0  3.888664  0
C  C108  1  0.54047552  0.06615137  0.19157381  1  0  -0.093159  -0.124486  0  3.972497  0
C  C109  1  0.06614341  0.54046041  0.69157570  1  0  -0.093125  -0.124536  0  3.972638  0
C  C110  1  0.94254947  0.90434844  0.59883359  1  0  -0.099207  -0.091168  0  4.025456  0
C  C111  1  0.90435271  0.94256672  0.09883785  1  0  -0.099283  -0.09103  0  4.025047  0
C  C112  1  0.74117112  0.74315175  0.66468257  1  0  -0.094276  -0.135207  0  3.980005  0
C  C113  1  0.74315250  0.74114741  0.16468278  1  0  -0.094198  -0.135235  0  3.979852  0
C  C114  1  0.80818481  0.07072147  0.91381674  1  0  -0.092811  -0.133471  0  3.980963  0
C  C115  1  0.07071397  0.80815099  0.41381152  1  0  -0.092664  -0.13328  0  3.980399  0
C  C116  1  0.02338346  0.29012113  0.89343055  1  0  -0.094774  -0.086488  0  4.01178  0
C  C117  1  0.29013258  0.02342230  0.39343191  1  0  -0.09465  -0.086196  0  4.011293  0
C  C118  1  0.91440382  0.21295288  0.93933958  1  0  -0.102238  -0.101272  0  4.040953  0
C  C119  1  0.21295428  0.91442718  0.43933262  1  0  -0.102338  -0.10159  0  4.040561  0
C  C120  1  0.58644482  0.93078393  0.51191695  1  0  0.056222  0.099936  0  3.916459  0
C  C121  1  0.93078254  0.58643432  0.01191231  1  0  0.05631  0.100119  0  3.916389  0
C  C122  1  0.54410744  0.30947903  0.25952775  1  0  -0.101842  -0.100311  0  4.010769  0
C  C123  1  0.30947537  0.54410304  0.75952104  1  0  -0.101926  -0.100494  0  4.010983  0
C  C124  1  0.58827511  0.17331401  0.25462958  1  0  -0.098022  -0.094694  0  4.025548  0
C  C125  1  0.17331948  0.58828559  0.75462697  1  0  -0.098018  -0.094612  0  4.025521  0
C  C126  1  0.81977730  0.77107984  0.60038202  1  0  -0.096549  -0.089694  0  4.015553  0
C  C127  1  0.77108590  0.81978909  0.10038788  1  0  -0.096619  -0.089993  0  4.015441  0
C  C128  1  0.98864168  0.01270860  0.66135506  1  0  -0.099076  -0.132865  0  3.99736  0
C  C129  1  0.01271748  0.98862759  0.16135581  1  0  -0.09906  -0.133018  0  3.997277  0
N  N130  1  0.60152507  0.31697220  0.83324534  1  0  -0.325222  -0.227351  0  3.553798  0
N  N131  1  0.31698095  0.60153278  0.33324634  1  0  -0.32522  -0.227518  0  3.553916  0
N  N132  1  0.48742411  0.78847368  0.50969041  1  0  -0.332043  -0.239987  0  3.61105  0
N  N133  1  0.78847289  0.48741577  0.00968833  1  0  -0.33211  -0.240084  0  3.610844  0
O  O134  1  0.43708925  0.35583416  0.96698013  1  0  -0.340964  -0.575141  0  2.40283  0
O  O135  1  0.35583237  0.43709019  0.46697993  1  0  -0.340916  -0.575057  0  2.402831  0
O  O136  1  0.84643906  0.67045464  0.84634340  1  0  -0.314755  -0.55037  0  2.151126  0
O  O137  1  0.67044817  0.84642658  0.34635088  1  0  -0.314797  -0.550393  0  2.151046  0
O  O138  1  0.61598284  0.66851082  0.88657474  1  0  -0.333974  -0.553406  0  2.302382  0
O  O139  1  0.66850205  0.61597205  0.38657479  1  0  -0.333899  -0.553306  0  2.302685  0
O  O140  1  0.39280541  0.51528242  0.06049558  1  0  -0.321612  -0.542595  0  2.122923  0
O  O141  1  0.51528401  0.39281456  0.56049312  1  0  -0.321619  -0.542597  0  2.12282  0
