# generated using pymatgen
data_DyH8C12(NO3)3
_symmetry_space_group_name_H-M   'P 1'
_cell_length_a   10.12283264
_cell_length_b   11.34389824
_cell_length_c   17.39830000
_cell_angle_alpha   90.00000000
_cell_angle_beta   90.00000000
_cell_angle_gamma   110.08480701
_symmetry_Int_Tables_number   1
_chemical_formula_structural   DyH8C12(NO3)3
_chemical_formula_sum   'Dy4 H32 C48 N12 O36'
_cell_volume   1876.38737426
_cell_formula_units_Z   4
loop_
 _symmetry_equiv_pos_site_id
 _symmetry_equiv_pos_as_xyz
  1  'x, y, z'
loop_
 _atom_site_type_symbol
 _atom_site_label
 _atom_site_symmetry_multiplicity
 _atom_site_fract_x
 _atom_site_fract_y
 _atom_site_fract_z
 _atom_site_occupancy
 _atom_site_hle17_bader_spin_density
 _atom_site_hle17_ddec_charge
 _atom_site_hle17_ddec_spin_density
 _atom_site_hle17_ddec_sum_bond_order
 _atom_site_hle17_magmom
 _atom_site_hse06_10hf_bader_spin_density
 _atom_site_hse06_10hf_ddec_charge
 _atom_site_hse06_10hf_ddec_spin_density
 _atom_site_hse06_10hf_ddec_sum_bond_order
 _atom_site_hse06_10hf_magmom
 _atom_site_hse06_bader_spin_density
 _atom_site_hse06_ddec_charge
 _atom_site_hse06_ddec_spin_density
 _atom_site_hse06_ddec_sum_bond_order
 _atom_site_hse06_magmom
 _atom_site_pbe_bader_charge
 _atom_site_pbe_bader_spin_density
 _atom_site_pbe_cm5_charge
 _atom_site_pbe_ddec_charge
 _atom_site_pbe_ddec_spin_density
 _atom_site_pbe_ddec_sum_bond_order
 _atom_site_pbe_magmom
Dy  Dy0  1  0.48414187  0.31716094  0.49336717  1  0  2.222207  0  1.685165  0  0  2.076107  0  2.166006  0  0  2.207133  0  1.972641  0  2.168179  0  1.521675  2.034171  0  2.203021  0
Dy  Dy1  1  0.51585760  0.18283891  0.99336717  1  0  2.222201  0  1.685176  0  0  2.0761  0  2.16601  0  0  2.207122  0  1.972655  0  2.168187  0  1.521679  2.034168  0  2.203023  0
Dy  Dy2  1  0.51585733  0.68283877  0.50663226  1  0  2.22223  0  1.685125  0  0  2.076136  0  2.165954  0  0  2.207158  0  1.972599  0  2.168179  0  1.521692  2.034204  0  2.202966  0
Dy  Dy3  1  0.48414259  0.81716080  0.00663283  1  0  2.222245  0  1.685141  0  0  2.076158  0  2.165948  0  0  2.207168  0  1.972615  0  2.168194  0  1.521685  2.034226  0  2.202962  0
H  H4  1  0.80900669  0.47973146  0.63156228  1  0  0.12609  0  0.90519  0  0  0.138992  0  0.955035  0  0  0.142128  0  0.952667  0  0.13194  0  0.142666  0.136733  0  0.956736  0
H  H5  1  0.19099143  0.02026746  0.13156228  1  0  0.12615  0  0.905129  0  0  0.139017  0  0.955013  0  0  0.142152  0  0.952647  0  0.131956  0  0.142703  0.136759  0  0.956713  0
H  H6  1  0.19099313  0.52026732  0.36843715  1  0  0.126121  0  0.905102  0  0  0.138974  0  0.955009  0  0  0.14211  0  0.952641  0  0.131946  0  0.14267  0.136716  0  0.956707  0
H  H7  1  0.80900642  0.97973132  0.86843772  1  0  0.126087  0  0.905175  0  0  0.138989  0  0.955026  0  0  0.142125  0  0.952658  0  0.131948  0  0.142669  0.13673  0  0.956728  0
H  H8  1  0.39888946  0.84556885  0.28510717  1  0  0.132881  0  0.926614  0  0  0.140203  0  0.984285  0  0  0.144326  0  0.982134  0  0.155706  0  0.11991  0.137272  0  0.985794  0
H  H9  1  0.60111082  0.65443166  0.78510774  1  0  0.132854  0  0.926635  0  0  0.140176  0  0.984305  0  0  0.144298  0  0.982153  0  0.155696  0  0.119899  0.137245  0  0.985814  0
H  H10  1  0.60110974  0.15443087  0.71489283  1  0  0.132846  0  0.926621  0  0  0.14016  0  0.984308  0  0  0.144282  0  0.982156  0  0.155692  0  0.11991  0.137229  0  0.985816  0
H  H11  1  0.39888973  0.34556899  0.21489283  1  0  0.13286  0  0.926612  0  0  0.140175  0  0.984298  0  0  0.144296  0  0.982148  0  0.15569  0  0.119917  0.137244  0  0.985807  0
H  H12  1  0.02440948  0.20304443  0.50357621  1  0  0.144418  0  0.918357  0  0  0.15186  0  0.973928  0  0  0.156151  0  0.971042  0  0.172262  0  0.126029  0.148876  0  0.975966  0
H  H13  1  0.97559233  0.29695637  0.00357621  1  0  0.144409  0  0.918331  0  0  0.151844  0  0.973906  0  0  0.156136  0  0.971019  0  0.172268  0  0.126024  0.148861  0  0.975945  0
H  H14  1  0.97559206  0.79695623  0.49642264  1  0  0.144397  0  0.918355  0  0  0.151823  0  0.973942  0  0  0.156115  0  0.971056  0  0.172264  0  0.126036  0.14884  0  0.97598  0
H  H15  1  0.02440651  0.70304241  0.99642436  1  0  0.144392  0  0.918362  0  0  0.151829  0  0.973944  0  0  0.156122  0  0.971056  0  0.172255  0  0.126012  0.148846  0  0.975983  0
H  H16  1  0.60830032  0.20882253  0.18123782  1  0  0.139055  0  0.966268  0  0  0.145909  0  1.028516  0  0  0.150015  0  1.026079  0  0.169995  0  0.122901  0.142754  0  1.031001  0
H  H17  1  0.39170185  0.29117921  0.68123782  1  0  0.139034  0  0.966252  0  0  0.145892  0  1.028498  0  0  0.149998  0  1.02606  0  0.170008  0  0.122885  0.142737  0  1.030984  0
H  H18  1  0.39170346  0.79117625  0.81876218  1  0  0.139017  0  0.966256  0  0  0.145868  0  1.028509  0  0  0.149974  0  1.026073  0  0.169963  0  0.122867  0.142713  0  1.030994  0
H  H19  1  0.60829682  0.70882426  0.31876218  1  0  0.139027  0  0.966316  0  0  0.145881  0  1.028562  0  0  0.149987  0  1.026127  0  0.169957  0  0.122893  0.142727  0  1.031046  0
H  H20  1  0.07469511  0.55714072  0.61295241  1  0  0.126626  0  0.921853  0  0  0.137619  0  0.974744  0  0  0.141484  0  0.972871  0  0.129513  0  0.121051  0.135123  0  0.975807  0
H  H21  1  0.92530418  0.94285980  0.11295356  1  0  0.126571  0  0.921842  0  0  0.137561  0  0.97474  0  0  0.141428  0  0.972865  0  0.129511  0  0.121043  0.135067  0  0.975801  0
H  H22  1  0.92530373  0.44285806  0.38704701  1  0  0.126588  0  0.921817  0  0  0.137569  0  0.974729  0  0  0.141452  0  0.972833  0  0.129511  0  0.121039  0.135073  0  0.975791  0
H  H23  1  0.07469601  0.05713992  0.88704816  1  0  0.126593  0  0.921899  0  0  0.137595  0  0.974775  0  0  0.141469  0  0.972891  0  0.129532  0  0.121046  0.135099  0  0.975838  0
H  H24  1  0.65793009  0.29781332  0.31520608  1  0  0.123617  0  0.915323  0  0  0.13375  0  0.970038  0  0  0.137015  0  0.967103  0  0.180111  0  0.142203  0.13132  0  0.972308  0
H  H25  1  0.34207171  0.20218747  0.81520551  1  0  0.123608  0  0.915323  0  0  0.133741  0  0.970037  0  0  0.137005  0  0.967103  0  0.179895  0  0.142209  0.131311  0  0.972307  0
H  H26  1  0.34207171  0.70218546  0.68479392  1  0  0.123631  0  0.915275  0  0  0.133748  0  0.970006  0  0  0.137011  0  0.967072  0  0.179979  0  0.142209  0.131316  0  0.972277  0
H  H27  1  0.65792920  0.79781412  0.18479334  1  0  0.123596  0  0.915314  0  0  0.133728  0  0.970035  0  0  0.136992  0  0.967101  0  0.18017  0  0.142199  0.131298  0  0.972305  0
H  H28  1  0.76380067  0.14307272  0.52315341  1  0  0.124857  0  0.950278  0  0  0.126721  0  1.021154  0  0  0.131004  0  1.016445  0  0.152265  0  0.132838  0.123893  0  1.024058  0
H  H29  1  0.23619979  0.35692714  0.02315399  1  0  0.124858  0  0.950282  0  0  0.126724  0  1.02116  0  0  0.131005  0  1.016452  0  0.152266  0  0.132844  0.123896  0  1.024064  0
H  H30  1  0.23619952  0.85692700  0.47684601  1  0  0.124862  0  0.950271  0  0  0.126726  0  1.021151  0  0  0.131008  0  1.016441  0  0.152234  0  0.132848  0.123897  0  1.024055  0
H  H31  1  0.76379806  0.64307164  0.97684601  1  0  0.124836  0  0.950292  0  0  0.126695  0  1.021149  0  0  0.130976  0  1.01644  0  0.15224  0  0.132844  0.123866  0  1.024053  0
H  H32  1  0.45229176  0.95104450  0.41394332  1  0  0.124319  0  0.940038  0  0  0.124349  0  1.014316  0  0  0.129507  0  1.008407  0  0.185964  0  0.136559  0.120423  0  1.018712  0
H  H33  1  0.54770815  0.54895508  0.91394389  1  0  0.124284  0  0.940036  0  0  0.124308  0  1.014338  0  0  0.129485  0  1.008409  0  0.186023  0  0.136551  0.120385  0  1.01873  0
H  H34  1  0.54770707  0.04895428  0.58605611  1  0  0.124302  0  0.940024  0  0  0.124315  0  1.014326  0  0  0.129494  0  1.008395  0  0.186034  0  0.136551  0.120393  0  1.018717  0
H  H35  1  0.45229338  0.45104558  0.08605611  1  0  0.124295  0  0.940012  0  0  0.124319  0  1.014316  0  0  0.129496  0  1.008386  0  0.186038  0  0.136554  0.120395  0  1.018709  0
C  C36  1  0.86526126  0.42461707  0.60452343  1  0  0.004432  0  3.586872  0  0  -0.036386  0  3.847881  0  0  -0.031026  0  3.860424  0  0.379842  0  0.045599  -0.039088  0  3.838669  0
C  C37  1  0.13473759  0.07538373  0.10452458  1  0  0.004413  0  3.586799  0  0  -0.036387  0  3.847817  0  0  -0.031028  0  3.860361  0  0.379851  0  0.04555  -0.039089  0  3.838608  0
C  C38  1  0.13473830  0.57538359  0.39547657  1  0  0.004438  0  3.586816  0  0  -0.036353  0  3.847827  0  0  -0.030994  0  3.860378  0  0.379861  0  0.045607  -0.039055  0  3.838618  0
C  C39  1  0.86526063  0.92461599  0.89547714  1  0  0.004489  0  3.586774  0  0  -0.036349  0  3.847803  0  0  -0.030992  0  3.860352  0  0.379884  0  0.045616  -0.039051  0  3.838592  0
C  C40  1  0.46836332  0.96040622  0.14444572  1  0  0.692043  0  3.881964  0  0  0.646065  0  4.174569  0  0  0.681607  0  4.169435  0  1.557472  0  0.218619  0.621456  0  4.183369  0
C  C41  1  0.53163732  0.53959523  0.64444687  1  0  0.691994  0  3.882171  0  0  0.64605  0  4.174726  0  0  0.681592  0  4.16959  0  1.556997  0  0.21857  0.621438  0  4.183529  0
C  C42  1  0.53163723  0.03959443  0.85555370  1  0  0.692037  0  3.881996  0  0  0.646073  0  4.174599  0  0  0.681614  0  4.169465  0  1.557472  0  0.218613  0.621463  0  4.183399  0
C  C43  1  0.46836395  0.46040730  0.35555370  1  0  0.692041  0  3.88207  0  0  0.646058  0  4.174675  0  0  0.6816  0  4.169543  0  1.557455  0  0.218611  0.621445  0  4.183481  0
C  C44  1  0.45322646  0.94646032  0.28859371  1  0  -0.081096  0  3.69543  0  0  -0.102968  0  3.946332  0  0  -0.105796  0  3.963073  0  -0.007445  0  -0.063882  -0.101502  0  3.934913  0
C  C45  1  0.54677481  0.55354020  0.78859314  1  0  -0.081074  0  3.69535  0  0  -0.102914  0  3.946249  0  0  -0.105742  0  3.962994  0  -0.007521  0  -0.063882  -0.101449  0  3.934831  0
C  C46  1  0.54677471  0.05353940  0.71140629  1  0  -0.081018  0  3.69534  0  0  -0.102864  0  3.946247  0  0  -0.10569  0  3.962988  0  -0.007492  0  -0.063872  -0.101398  0  3.934828  0
C  C47  1  0.45322574  0.44646046  0.21140629  1  0  -0.08102  0  3.695337  0  0  -0.102867  0  3.946255  0  0  -0.105694  0  3.962999  0  -0.007425  0  -0.063874  -0.101402  0  3.934837  0
C  C48  1  0.98183873  0.26740040  0.53235029  1  0  -0.079395  0  3.691088  0  0  -0.100034  0  3.938877  0  0  -0.102727  0  3.955261  0  0.004078  0  -0.061108  -0.098345  0  3.927334  0
C  C49  1  0.01815975  0.23259946  0.03235144  1  0  -0.079373  0  3.690991  0  0  -0.099988  0  3.938776  0  0  -0.102685  0  3.955161  0  0.004076  0  -0.061077  -0.098302  0  3.927235  0
C  C50  1  0.01816119  0.73260120  0.46764914  1  0  -0.079288  0  3.691054  0  0  -0.099905  0  3.938836  0  0  -0.102598  0  3.955222  0  0.004042  0  -0.061055  -0.098217  0  3.927294  0
C  C51  1  0.98183945  0.76740026  0.96764971  1  0  -0.079348  0  3.691064  0  0  -0.100001  0  3.938852  0  0  -0.102698  0  3.955239  0  0.004076  0  -0.0611  -0.098314  0  3.927309  0
C  C52  1  0.57065167  0.14797697  0.23080129  1  0  -0.088284  0  3.690676  0  0  -0.110938  0  3.94119  0  0  -0.113844  0  3.958067  0  0.079279  0  -0.06368  -0.10928  0  3.92974  0
C  C53  1  0.42934951  0.35202477  0.73080071  1  0  -0.088276  0  3.690649  0  0  -0.110946  0  3.941187  0  0  -0.113851  0  3.958064  0  0.079291  0  -0.063657  -0.109289  0  3.929737  0
C  C54  1  0.42935148  0.85202275  0.76919814  1  0  -0.088231  0  3.690736  0  0  -0.110878  0  3.941248  0  0  -0.113785  0  3.958129  0  0.079083  0  -0.06361  -0.109221  0  3.929797  0
C  C55  1  0.57064844  0.64797683  0.26919871  1  0  -0.088184  0  3.690798  0  0  -0.11084  0  3.941309  0  0  -0.113747  0  3.958191  0  0.079085  0  -0.063636  -0.109183  0  3.929858  0
C  C56  1  0.00912009  0.46394493  0.59389825  1  0  -0.094191  0  3.746302  0  0  -0.116024  0  4.001115  0  0  -0.119616  0  4.020064  0  -0.014435  0  -0.068791  -0.113475  0  3.986994  0
C  C57  1  0.99087777  0.03605586  0.09389940  1  0  -0.09411  0  3.746164  0  0  -0.11592  0  4.000967  0  0  -0.119511  0  4.019914  0  -0.014893  0  -0.068752  -0.113373  0  3.986847  0
C  C58  1  0.99087947  0.53605572  0.40610232  1  0  -0.09415  0  3.746222  0  0  -0.11595  0  4.001017  0  0  -0.119555  0  4.019961  0  -0.014417  0  -0.068763  -0.1134  0  3.986896  0
C  C59  1  0.00912143  0.96394385  0.90610290  1  0  -0.094135  0  3.746217  0  0  -0.115959  0  4.001016  0  0  -0.119557  0  4.019961  0  -0.014404  0  -0.06875  -0.113411  0  3.986894  0
C  C60  1  0.22374799  0.43112916  0.53622940  1  0  0.704219  0  3.869314  0  0  0.659503  0  4.16511  0  0  0.695064  0  4.157232  0  1.609679  0  0.226992  0.635641  0  4.172341  0
C  C61  1  0.77625319  0.06887258  0.03622940  1  0  0.704195  0  3.869304  0  0  0.659475  0  4.165117  0  0  0.695041  0  4.157229  0  1.609651  0  0.22699  0.635611  0  4.17235  0
C  C62  1  0.77625229  0.56887337  0.46377060  1  0  0.704137  0  3.869435  0  0  0.659443  0  4.165204  0  0  0.695002  0  4.157327  0  1.609673  0  0.226957  0.635581  0  4.172434  0
C  C63  1  0.22374592  0.93112433  0.96377117  1  0  0.7042  0  3.869333  0  0  0.659542  0  4.16503  0  0  0.695094  0  4.157161  0  1.609654  0  0.227026  0.635678  0  4.172264  0
C  C64  1  0.06987807  0.38630196  0.55602042  1  0  -0.033053  0  3.721943  0  0  -0.022411  0  3.963287  0  0  -0.0242  0  3.980804  0  0.036297  0  -0.004387  -0.020162  0  3.949747  0
C  C65  1  0.93012114  0.11369977  0.05602099  1  0  -0.033096  0  3.721946  0  0  -0.022493  0  3.963344  0  0  -0.024284  0  3.980859  0  0.036711  0  -0.004426  -0.020239  0  3.949804  0
C  C66  1  0.93012186  0.61369963  0.44397958  1  0  -0.033037  0  3.721914  0  0  -0.022435  0  3.963296  0  0  -0.024225  0  3.980819  0  0.036277  0  -0.00439  -0.020186  0  3.949756  0
C  C67  1  0.06987806  0.88629995  0.94398073  1  0  -0.033057  0  3.721984  0  0  -0.022443  0  3.963332  0  0  -0.024226  0  3.980852  0  0.03624  0  -0.004407  -0.020189  0  3.949791  0
C  C68  1  0.59989776  0.19967950  0.30334056  1  0  0.02717  0  3.574044  0  0  -0.012741  0  3.83065  0  0  -0.006424  0  3.842351  0  0.304787  0  0.053978  -0.016737  0  3.823008  0
C  C69  1  0.40010405  0.30032130  0.80334056  1  0  0.027226  0  3.574097  0  0  -0.012679  0  3.830699  0  0  -0.006364  0  3.8424  0  0.305044  0  0.053985  -0.016675  0  3.823056  0
C  C70  1  0.40010540  0.80032022  0.69665944  1  0  0.027176  0  3.574099  0  0  -0.012716  0  3.830692  0  0  -0.006401  0  3.842393  0  0.30491  0  0.053962  -0.016712  0  3.823049  0
C  C71  1  0.59989452  0.69967936  0.19665944  1  0  0.027196  0  3.574105  0  0  -0.012715  0  3.830709  0  0  -0.006399  0  3.842409  0  0.304741  0  0.053968  -0.016712  0  3.823066  0
C  C72  1  0.49578932  0.01937109  0.22225620  1  0  -0.028094  0  3.717753  0  0  -0.015705  0  3.957695  0  0  -0.017776  0  3.974987  0  0.019213  0  -0.001201  -0.013666  0  3.945137  0
C  C73  1  0.50421285  0.48063065  0.72225620  1  0  -0.028095  0  3.717777  0  0  -0.015715  0  3.957712  0  0  -0.017785  0  3.975002  0  0.019155  0  -0.001188  -0.013674  0  3.945153  0
C  C74  1  0.50421347  0.98062769  0.77774380  1  0  -0.028105  0  3.717713  0  0  -0.015744  0  3.957673  0  0  -0.017813  0  3.974963  0  0.019454  0  -0.001226  -0.013704  0  3.945114  0
C  C75  1  0.49578645  0.51937188  0.27774438  1  0  -0.028249  0  3.717909  0  0  -0.015847  0  3.957842  0  0  -0.017917  0  3.975136  0  0.019437  0  -0.001241  -0.013806  0  3.945285  0
C  C76  1  0.83824689  0.23159702  0.54290132  1  0  0.025811  0  3.564285  0  0  -0.016633  0  3.82674  0  0  -0.009573  0  3.836643  0  0.366731  0  0.051066  -0.020941  0  3.819456  0
C  C77  1  0.16175357  0.26840284  0.04290132  1  0  0.025845  0  3.564274  0  0  -0.016599  0  3.826708  0  0  -0.009534  0  3.836609  0  0.366773  0  0.051085  -0.020907  0  3.819426  0
C  C78  1  0.16175132  0.76840270  0.45709868  1  0  0.025764  0  3.564349  0  0  -0.016678  0  3.82679  0  0  -0.009617  0  3.836694  0  0.366781  0  0.051015  -0.020985  0  3.819507  0
C  C79  1  0.83824527  0.73159594  0.95709926  1  0  0.025808  0  3.564294  0  0  -0.016586  0  3.826715  0  0  -0.009525  0  3.83662  0  0.366704  0  0.051079  -0.020894  0  3.819431  0
C  C80  1  0.48160058  0.00192322  0.36023175  1  0  0.035556  0  3.555779  0  0  -0.006792  0  3.818667  0  0  0.000602  0  3.827743  0  0.340301  0  0.052131  -0.011147  0  3.812222  0
C  C81  1  0.51839987  0.49807664  0.86023290  1  0  0.035629  0  3.555576  0  0  -0.006771  0  3.818533  0  0  0.000609  0  3.827599  0  0.340301  0  0.052134  -0.011129  0  3.812093  0
C  C82  1  0.51840023  0.99807556  0.63976768  1  0  0.035556  0  3.555726  0  0  -0.0068  0  3.818646  0  0  0.000577  0  3.82771  0  0.340303  0  0.052131  -0.011157  0  3.812202  0
C  C83  1  0.48160068  0.50192401  0.13976768  1  0  0.035625  0  3.555624  0  0  -0.006774  0  3.818588  0  0  0.000606  0  3.82765  0  0.340236  0  0.052141  -0.011129  0  3.812141  0
N  N84  1  0.26619867  0.08859564  0.54118218  1  0  0.726695  0  4.113843  0  0  0.74627  0  4.426494  0  0  0.775334  0  4.435829  0  0.822745  0  0.0814  0.726449  0  4.42382  0
N  N85  1  0.73379981  0.41140422  0.04118218  1  0  0.72673  0  4.113766  0  0  0.746305  0  4.426419  0  0  0.77537  0  4.435753  0  0.822769  0  0.081437  0.726486  0  4.423743  0
N  N86  1  0.73380053  0.91140408  0.45881782  1  0  0.726665  0  4.113814  0  0  0.74624  0  4.426465  0  0  0.775305  0  4.435802  0  0.822767  0  0.081407  0.726419  0  4.423789  0
N  N87  1  0.26619768  0.58859362  0.95881724  1  0  0.726751  0  4.113888  0  0  0.746318  0  4.426548  0  0  0.775383  0  4.435882  0  0.822781  0  0.081463  0.726498  0  4.423872  0
N  N88  1  0.55357634  0.12702244  0.36695999  1  0  0.303409  0  3.697927  0  0  0.360333  0  3.954323  0  0  0.360922  0  3.979379  0  -0.646593  0  -0.101354  0.359283  0  3.939648  0
N  N89  1  0.44642412  0.37297742  0.86695999  1  0  0.30334  0  3.697956  0  0  0.360283  0  3.954358  0  0  0.360871  0  3.979418  0  -0.646606  0  -0.101384  0.359233  0  3.939683  0
N  N90  1  0.44642349  0.87297634  0.63303943  1  0  0.303369  0  3.697977  0  0  0.3603  0  3.954373  0  0  0.360889  0  3.979433  0  -0.646602  0  -0.101369  0.35925  0  3.939699  0
N  N91  1  0.55357643  0.62702324  0.13303943  1  0  0.303359  0  3.697946  0  0  0.360307  0  3.954351  0  0  0.360895  0  3.97941  0  -0.646597  0  -0.101364  0.359257  0  3.939676  0
N  N92  1  0.78113923  0.31075491  0.57725985  1  0  0.297343  0  3.717474  0  0  0.351257  0  3.978955  0  0  0.352647  0  4.00271  0  -0.629753  0  -0.10532  0.349779  0  3.964316  0
N  N93  1  0.21886060  0.18924588  0.07726042  1  0  0.297296  0  3.717556  0  0  0.351208  0  3.979038  0  0  0.352597  0  4.002795  0  -0.629776  0  -0.10534  0.34973  0  3.964399  0
N  N94  1  0.21886132  0.68924574  0.42274015  1  0  0.29729  0  3.717517  0  0  0.35121  0  3.978981  0  0  0.3526  0  4.002737  0  -0.629763  0  -0.105354  0.349732  0  3.964343  0
N  N95  1  0.78113761  0.81075383  0.92273958  1  0  0.297326  0  3.717489  0  0  0.351232  0  3.978973  0  0  0.352623  0  4.002731  0  -0.629706  0  -0.105326  0.349755  0  3.964334  0
O  O96  1  0.27029007  0.34997578  0.50832208  1  0  -0.716315  0  2.088451  0  0  -0.669763  0  2.338722  0  0  -0.705645  0  2.327375  0  -1.17552  0  -0.388317  -0.650135  0  2.343865  0
O  O97  1  0.72971174  0.15002502  0.00832150  1  0  -0.716289  0  2.088475  0  0  -0.669735  0  2.338753  0  0  -0.705618  0  2.327404  0  -1.175551  0  -0.388302  -0.650106  0  2.343898  0
O  O98  1  0.72971111  0.65002394  0.49167792  1  0  -0.71628  0  2.088579  0  0  -0.669741  0  2.33885  0  0  -0.70562  0  2.327503  0  -1.175552  0  -0.388291  -0.650114  0  2.343993  0
O  O99  1  0.27028746  0.84997470  0.99167965  1  0  -0.716294  0  2.08857  0  0  -0.669772  0  2.338819  0  0  -0.705647  0  2.327474  0  -1.175603  0  -0.388302  -0.650145  0  2.343966  0
O  O100  1  0.28738753  0.11288224  0.46944874  1  0  -0.528716  0  1.744703  0  0  -0.521154  0  1.969422  0  0  -0.54462  0  1.960803  0  -0.547301  0  -0.23094  -0.510029  0  1.974631  0
O  O101  1  0.71261194  0.38711762  0.96944816  1  0  -0.528715  0  1.744645  0  0  -0.521153  0  1.969358  0  0  -0.544617  0  1.96074  0  -0.54731  0  -0.230955  -0.510028  0  1.974568  0
O  O102  1  0.71261204  0.88711842  0.53055126  1  0  -0.528711  0  1.744706  0  0  -0.521149  0  1.969425  0  0  -0.544614  0  1.960807  0  -0.547308  0  -0.230936  -0.510024  0  1.974635  0
O  O103  1  0.28738851  0.61288022  0.03055184  1  0  -0.528717  0  1.744673  0  0  -0.52115  0  1.969386  0  0  -0.544614  0  1.96077  0  -0.547313  0  -0.230945  -0.510024  0  1.974595  0
O  O104  1  0.29267820  0.54725431  0.54691723  1  0  -0.732733  0  2.059211  0  0  -0.691213  0  2.31653  0  0  -0.725965  0  2.30446  0  -1.203764  0  -0.390794  -0.674057  0  2.322241  0
O  O105  1  0.70732307  0.95274621  0.04691665  1  0  -0.732725  0  2.059114  0  0  -0.691198  0  2.316431  0  0  -0.725957  0  2.304368  0  -1.203729  0  -0.390801  -0.674043  0  2.322143  0
O  O106  1  0.70732100  0.45274541  0.45308277  1  0  -0.732695  0  2.059138  0  0  -0.691169  0  2.316435  0  0  -0.725928  0  2.304377  0  -1.203731  0  -0.390779  -0.674014  0  2.322145  0
O  O107  1  0.29267837  0.04725163  0.95308277  1  0  -0.732773  0  2.059089  0  0  -0.691259  0  2.31635  0  0  -0.726018  0  2.304297  0  -1.203671  0  -0.390844  -0.674104  0  2.322063  0
O  O108  1  0.64384670  0.27726616  0.58442664  1  0  -0.611103  0  1.837812  0  0  -0.57682  0  2.089744  0  0  -0.610319  0  2.088372  0  -0.650082  0  -0.28968  -0.557586  0  2.087956  0
O  O109  1  0.35615340  0.22273276  0.08442664  1  0  -0.611117  0  1.837829  0  0  -0.576822  0  2.089751  0  0  -0.61031  0  2.088359  0  -0.650084  0  -0.289682  -0.557587  0  2.087963  0
O  O110  1  0.35615349  0.72273356  0.41557279  1  0  -0.611137  0  1.837842  0  0  -0.576853  0  2.089767  0  0  -0.610348  0  2.088388  0  -0.650095  0  -0.289695  -0.557617  0  2.08798  0
O  O111  1  0.64384544  0.77726601  0.91557279  1  0  -0.61114  0  1.837839  0  0  -0.576872  0  2.089779  0  0  -0.61036  0  2.088391  0  -0.650123  0  -0.289719  -0.557637  0  2.087993  0
O  O112  1  0.58117030  0.17738651  0.43596328  1  0  -0.636137  0  1.85151  0  0  -0.608525  0  2.109534  0  0  -0.643482  0  2.106591  0  -0.652756  0  -0.310944  -0.591232  0  2.109342  0
O  O113  1  0.41882917  0.32261335  0.93596271  1  0  -0.636119  0  1.85152  0  0  -0.608506  0  2.109535  0  0  -0.643463  0  2.106589  0  -0.65276  0  -0.310924  -0.591215  0  2.109343  0
O  O114  1  0.41882890  0.82261320  0.56403672  1  0  -0.636138  0  1.851523  0  0  -0.608525  0  2.109544  0  0  -0.64348  0  2.106596  0  -0.652776  0  -0.310934  -0.591232  0  2.109351  0
O  O115  1  0.58117102  0.67738637  0.06403672  1  0  -0.636126  0  1.851503  0  0  -0.608515  0  2.109515  0  0  -0.643471  0  2.106576  0  -0.652785  0  -0.310928  -0.591224  0  2.109323  0
O  O116  1  0.43681461  0.84213165  0.13843421  1  0  -0.681663  0  1.969724  0  0  -0.636946  0  2.203543  0  0  -0.670101  0  2.191697  0  -1.15292  0  -0.374701  -0.62019  0  2.210175  0
O  O117  1  0.56318701  0.65786980  0.63843364  1  0  -0.681622  0  1.969805  0  0  -0.63692  0  2.203612  0  0  -0.670077  0  2.191766  0  -1.152478  0  -0.374678  -0.620163  0  2.210244  0
O  O118  1  0.56318459  0.15786807  0.86156521  1  0  -0.681633  0  1.969722  0  0  -0.636924  0  2.203536  0  0  -0.670081  0  2.191691  0  -1.152929  0  -0.374678  -0.620168  0  2.210168  0
O  O119  1  0.43681452  0.34213086  0.36156521  1  0  -0.681632  0  1.969659  0  0  -0.636913  0  2.203478  0  0  -0.670071  0  2.191634  0  -1.152923  0  -0.374684  -0.620155  0  2.210111  0
O  O120  1  0.48190947  0.03045704  0.08556066  1  0  -0.800864  0  2.218112  0  0  -0.746302  0  2.48362  0  0  -0.789459  0  2.472419  0  -1.207899  0  -0.415811  -0.72823  0  2.491059  0
O  O121  1  0.51809243  0.46954657  0.58556066  1  0  -0.800911  0  2.218281  0  0  -0.746336  0  2.483724  0  0  -0.789496  0  2.472529  0  -1.207858  0  -0.415793  -0.728265  0  2.491168  0
O  O122  1  0.51809144  0.96954456  0.91443992  1  0  -0.800925  0  2.218267  0  0  -0.746319  0  2.483674  0  0  -0.789478  0  2.472478  0  -1.207899  0  -0.415808  -0.728249  0  2.491118  0
O  O123  1  0.48190848  0.53045502  0.41443934  1  0  -0.800872  0  2.218227  0  0  -0.746293  0  2.483705  0  0  -0.789454  0  2.472512  0  -1.207887  0  -0.415807  -0.728219  0  2.491143  0
O  O124  1  0.35396682  0.16656337  0.58750050  1  0  -0.578085  0  1.830118  0  0  -0.562377  0  2.073851  0  0  -0.588672  0  2.064173  0  -0.597761  0  -0.265231  -0.549788  0  2.079653  0
O  O125  1  0.64603328  0.33343555  0.08750108  1  0  -0.57813  0  1.830122  0  0  -0.562419  0  2.073851  0  0  -0.588714  0  2.064173  0  -0.597774  0  -0.265257  -0.549832  0  2.079655  0
O  O126  1  0.64603399  0.83343541  0.41249950  1  0  -0.578074  0  1.830132  0  0  -0.562347  0  2.07384  0  0  -0.588641  0  2.064159  0  -0.597763  0  -0.265231  -0.549763  0  2.079649  0
O  O127  1  0.35396556  0.66656323  0.91249892  1  0  -0.578135  0  1.830181  0  0  -0.562412  0  2.0739  0  0  -0.588706  0  2.064224  0  -0.597755  0  -0.26526  -0.549823  0  2.079701  0
O  O128  1  0.16996147  0.99659255  0.56573688  1  0  -0.391015  0  1.697158  0  0  -0.385216  0  1.886779  0  0  -0.395703  0  1.879919  0  -0.480102  0  -0.159499  -0.377593  0  1.891296  0
O  O129  1  0.83003845  0.50340702  0.06573746  1  0  -0.391004  0  1.69714  0  0  -0.385212  0  1.886761  0  0  -0.395698  0  1.879902  0  -0.480102  0  -0.1595  -0.377588  0  1.891275  0
O  O130  1  0.83003908  0.00340810  0.43426254  1  0  -0.390993  0  1.697097  0  0  -0.385205  0  1.886717  0  0  -0.395692  0  1.87986  0  -0.480111  0  -0.159506  -0.377582  0  1.891236  0
O  O131  1  0.16996075  0.49659270  0.93426254  1  0  -0.391042  0  1.697198  0  0  -0.385251  0  1.886829  0  0  -0.395737  0  1.879969  0  -0.48013  0  -0.159526  -0.377628  0  1.891344  0
