# generated using pymatgen
data_Mn3H34C38(N2O9)2
_symmetry_space_group_name_H-M   'P 1'
_cell_length_a   10.19994140
_cell_length_b   10.57930620
_cell_length_c   11.92764390
_cell_angle_alpha   74.01898129
_cell_angle_beta   76.33612870
_cell_angle_gamma   81.42742459
_symmetry_Int_Tables_number   1
_chemical_formula_structural   Mn3H34C38(N2O9)2
_chemical_formula_sum   'Mn3 H34 C38 N4 O18'
_cell_volume   1197.45667141
_cell_formula_units_Z   1
loop_
 _symmetry_equiv_pos_site_id
 _symmetry_equiv_pos_as_xyz
  1  'x, y, z'
loop_
 _atom_site_type_symbol
 _atom_site_label
 _atom_site_symmetry_multiplicity
 _atom_site_fract_x
 _atom_site_fract_y
 _atom_site_fract_z
 _atom_site_occupancy
 _atom_site_hle17_ddec_charge
 _atom_site_hle17_ddec_spin_density
 _atom_site_hle17_ddec_sum_bond_order
 _atom_site_hle17_magmom
 _atom_site_hse06_10hf_ddec_charge
 _atom_site_hse06_10hf_ddec_spin_density
 _atom_site_hse06_10hf_ddec_sum_bond_order
 _atom_site_hse06_10hf_magmom
 _atom_site_hse06_ddec_charge
 _atom_site_hse06_ddec_spin_density
 _atom_site_hse06_ddec_sum_bond_order
 _atom_site_hse06_magmom
 _atom_site_pbe_cm5_charge
 _atom_site_pbe_ddec_charge
 _atom_site_pbe_ddec_spin_density
 _atom_site_pbe_ddec_sum_bond_order
 _atom_site_pbe_magmom
Mn  Mn0  1  0.88499804  0.73914089  0.71365554  1  1.090597  4.805697  1.825344  4.661  0.921025  4.720703  2.330403  4.507  0.980741  4.774282  2.259285  4.581  0.59762  0.876042  4.663145  2.384407  4.431
Mn  Mn1  1  0.11499334  0.26086865  0.28634567  1  1.090691  -4.788389  1.825257  -4.661  0.921149  -4.702932  2.330276  -4.507  0.980857  -4.756202  2.259173  -4.581  0.597665  0.876179  -4.645465  2.384271  -4.432
Mn  Mn2  1  0.50000082  0.50000379  0.50000443  1  1.276214  -4.821354  1.652214  -4.699  1.13484  -4.750963  2.138086  -4.567  1.188452  -4.786326  2.066058  -4.62  0.577564  1.094362  -4.714414  2.190504  -4.514
H  H3  1  0.88113074  0.71466793  0.48522893  1  0.428424  3.5e-05  0.880978  0.001  0.391884  0.00061  0.954298  0.002  0.403519  0.0004  0.93759  0.001  0.290754  0.383643  0.000792  0.966067  0.002
H  H4  1  0.11889185  0.28536340  0.51477414  1  0.428324  -8.2e-05  0.881091  -0.001  0.391812  -0.00074  0.95439  -0.002  0.403439  -0.000485  0.937695  -0.001  0.290741  0.383569  -0.00098  0.96616  -0.002
H  H5  1  0.01699490  0.77734154  0.48265000  1  0.425087  0.000147  0.814291  0.001  0.411681  0.001089  0.861512  0.002  0.419632  0.000686  0.852961  0.001  0.330385  0.405658  0.001488  0.86824  0.002
H  H6  1  0.98303276  0.22266807  0.51736403  1  0.425001  -0.000133  0.814123  -0.001  0.41157  -0.001154  0.86143  -0.002  0.419529  -0.0007  0.852862  -0.001  0.330318  0.405542  -0.001631  0.868176  -0.002
H  H7  1  0.75798656  0.51995870  0.44407115  1  0.411584  -4.8e-05  0.896188  0.0  0.378805  -0.000827  0.963705  -0.001  0.390286  -0.000567  0.946915  -0.001  0.288151  0.370771  -0.001063  0.975411  -0.001
H  H8  1  0.24202082  0.48006271  0.55593738  1  0.411068  -8.5e-05  0.896869  0.0  0.37832  -0.000865  0.964347  -0.001  0.389797  -0.000607  0.947561  -0.001  0.287886  0.37028  -0.001095  0.976063  -0.001
H  H9  1  0.76225153  0.38899223  0.39863226  1  0.43101  8.6e-05  0.866402  -0.001  0.401912  -0.000553  0.926443  -0.002  0.411966  -0.000256  0.912122  -0.002  0.291614  0.394686  -0.000888  0.936752  -0.002
H  H10  1  0.23773081  0.61102714  0.60138598  1  0.431212  -0.000527  0.866164  -0.001  0.40213  -0.001218  0.926174  -0.002  0.412188  -0.00094  0.911845  -0.002  0.291659  0.394894  -0.001507  0.936499  -0.002
H  H11  1  0.57661500  0.58353781  0.68487434  1  0.43457  -0.000152  0.870068  -0.001  0.400187  -0.000692  0.939314  -0.001  0.41239  -0.00052  0.921641  -0.001  0.289289  0.391539  -0.000842  0.951772  -0.002
H  H12  1  0.42338520  0.41635714  0.31519489  1  0.434424  0.000308  0.870286  -0.001  0.4002  -0.000311  0.939319  -0.002  0.412362  -3e-05  0.921695  -0.001  0.289348  0.391573  -0.0006  0.95175  -0.002
H  H13  1  0.59724088  0.42880272  0.70278096  1  0.419162  0.000184  0.821472  0.0  0.407417  -0.000693  0.867791  -0.001  0.415245  -0.00031  0.859443  -0.001  0.326124  0.401608  -0.001091  0.874262  -0.001
H  H14  1  0.40290668  0.57111552  0.29711469  1  0.419266  0.000218  0.821224  -0.001  0.407401  -0.000654  0.86767  -0.001  0.415262  -0.000268  0.859263  -0.001  0.326132  0.40156  -0.001055  0.874195  -0.001
H  H15  1  0.39277805  0.71689057  0.70939391  1  0.108921  3.2e-05  0.955919  0.0  0.117507  0.000178  1.021997  0.0  0.121429  0.000138  1.01815  0.0  0.111605  0.114774  0.000179  1.024773  0.0
H  H16  1  0.60718619  0.28311789  0.29061468  1  0.10892  0.000394  0.955864  0.0  0.117524  0.000186  1.021928  0.0  0.121446  0.00026  1.018085  0.0  0.111658  0.114789  6.8e-05  1.024712  0.0
H  H17  1  0.14651815  0.08135345  0.62594543  1  0.09102  3.1e-05  0.978603  0.0  0.096565  0.000153  1.05261  0.0  0.101204  0.000111  1.047219  0.0  0.103758  0.093238  0.000176  1.0564  0.0
H  H18  1  0.85346903  0.91867876  0.37406453  1  0.09113  5.2e-05  0.978568  0.0  0.096599  -0.00012  1.052687  0.0  0.101231  -7.8e-05  1.047292  0.0  0.103752  0.093269  -0.000184  1.056476  0.0
H  H19  1  0.56812371  0.08629791  0.62663683  1  0.120018  9.6e-05  0.934785  0.0  0.126482  0.000242  0.998056  0.0  0.131538  0.0002  0.99308  0.0  0.111659  0.122682  0.000259  1.001637  0.0
H  H20  1  0.43189987  0.91369305  0.37327776  1  0.120015  0.000387  0.934739  0.0  0.126412  0.00029  0.998114  0.0  0.131543  0.000353  0.993044  0.0  0.111684  0.122584  0.000202  1.001724  0.0
H  H21  1  0.79508423  0.91819107  0.89473682  1  0.084932  0.00018  0.919115  0.0  0.094057  0.000766  0.977874  0.001  0.097238  0.000524  0.974992  0.0  0.122542  0.091597  0.001095  0.979985  0.001
H  H22  1  0.20497469  0.08181862  0.10527846  1  0.084937  -0.000146  0.919364  0.0  0.094175  -0.000762  0.977976  -0.001  0.097358  -0.000522  0.975085  0.0  0.122604  0.091709  -0.001093  0.980096  -0.001
H  H23  1  0.69698785  0.89084914  0.11461896  1  0.103947  0.000318  0.946934  0.0  0.115064  0.000337  1.001861  0.0  0.11774  0.000257  1.002373  0.0  0.107345  0.112924  0.000441  1.001934  0.0
H  H24  1  0.30304700  0.10914864  0.88539315  1  0.103945  -0.000314  0.946724  0.0  0.115022  -0.00033  1.001706  0.0  0.117715  -0.00025  1.002203  0.0  0.10739  0.11289  -0.000439  1.001772  0.0
H  H25  1  0.67631462  0.65906358  0.24487968  1  0.1004  0.00021  0.980353  0.0  0.109436  0.000344  1.042709  0.0  0.112116  0.000361  1.040733  0.0  0.111361  0.10718  0.000314  1.044507  0.0
H  H26  1  0.32372134  0.34093323  0.75512993  1  0.100433  0.000515  0.980362  0.0  0.109361  0.000316  1.042859  0.0  0.112038  0.000375  1.040886  0.0  0.111329  0.107112  0.000241  1.044645  0.0
H  H27  1  0.75922014  0.47010822  0.15724246  1  0.122053  0.000519  0.972967  0.0  0.128852  0.000574  1.037243  0.0  0.132992  0.000523  1.034617  0.0  0.110483  0.125742  0.000615  1.039268  0.0
H  H28  1  0.24080078  0.52989843  0.84275437  1  0.122106  -0.000428  0.972897  0.0  0.128916  -0.000427  1.037121  0.0  0.133052  -0.000369  1.034503  0.0  0.110497  0.125808  -0.000489  1.039142  0.0
H  H29  1  0.84821660  0.32447918  0.07447973  1  0.115877  0.000426  0.960936  0.0  0.123511  0.000417  1.024143  0.0  0.126535  0.000387  1.023619  0.0  0.1106  0.121148  0.000466  1.024764  0.0
H  H30  1  0.15179091  0.67553039  0.92552495  1  0.115855  -0.000474  0.96102  0.0  0.12347  -0.000445  1.024266  0.0  0.126495  -0.000415  1.023739  0.0  0.110593  0.121113  -0.000509  1.02488  0.0
H  H31  1  0.91676861  0.15303611  0.95879218  1  0.090722  -0.000173  0.929866  0.0  0.106021  8.3e-05  0.980535  0.0  0.108908  2.6e-05  0.978546  0.0  0.109472  0.104077  0.000149  0.98172  0.0
H  H32  1  0.08322616  0.84696947  0.04121854  1  0.090649  0.000175  0.929801  0.0  0.105957  -7.6e-05  0.980475  0.0  0.108843  -2.2e-05  0.978487  0.0  0.109432  0.104017  -0.000138  0.981652  0.0
H  H33  1  0.97462301  0.22599508  0.73467360  1  0.102686  0.000221  0.951585  0.0  0.112547  -2.8e-05  1.011401  0.0  0.116045  2.4e-05  1.009528  0.0  0.108379  0.109483  -4.4e-05  1.013767  0.0
H  H34  1  0.02532311  0.77400248  0.26533626  1  0.102695  -0.000219  0.951565  0.0  0.112584  3.1e-05  1.011352  0.0  0.116077  -1.4e-05  1.00948  0.0  0.108436  0.109521  3.6e-05  1.013712  0.0
H  H35  1  0.95983484  0.46853354  0.63679012  1  0.091454  -3.7e-05  0.928021  0.0  0.100418  0.000234  0.98824  0.0  0.103427  0.000172  0.985027  0.0  0.123719  0.09785  0.000287  0.991204  0.001
H  H36  1  0.04010508  0.53145514  0.36321056  1  0.091564  2.6e-05  0.927921  0.0  0.100506  -0.00044  0.988163  -0.001  0.103514  -0.000267  0.984948  0.0  0.1237  0.097946  -0.000612  0.991124  -0.001
C  C37  1  0.13771250  0.81876627  0.68647110  1  0.628114  0.004726  3.934694  0.003  0.582266  0.00872  4.218724  0.006  0.615915  0.00708  4.214834  0.005  0.20546  0.559033  0.010242  4.220156  0.007
C  C38  1  0.86222958  0.18127374  0.31353008  1  0.628481  -0.005092  3.934519  -0.004  0.582418  -0.009345  4.218825  -0.007  0.616058  -0.00745  4.21493  -0.005  0.205363  0.559202  -0.011461  4.22026  -0.008
C  C39  1  0.38325161  0.82436171  0.68566109  1  -0.0479  0.00148  3.671669  0.002  -0.087119  0.001579  3.918443  0.002  -0.081794  0.00147  3.935741  0.001  -0.067688  -0.090686  0.002579  3.907724  0.002
C  C40  1  0.61671104  0.17564284  0.31432195  1  -0.04814  -0.003421  3.671298  -0.003  -0.087357  -0.004082  3.918028  -0.004  -0.082043  -0.003481  3.935334  -0.003  -0.067809  -0.090922  -0.006012  3.907315  -0.005
C  C41  1  0.63002826  0.82355038  0.68726327  1  0.634435  0.005325  3.914701  0.003  0.585773  0.009823  4.20309  0.007  0.619475  0.007969  4.200023  0.005  0.206023  0.562604  0.011672  4.203573  0.008
C  C42  1  0.36996071  0.17641079  0.31272420  1  0.635121  -0.005356  3.914595  -0.004  0.586447  -0.009899  4.202938  -0.007  0.620149  -0.008005  4.199843  -0.006  0.206309  0.563286  -0.01185  4.203438  -0.008
C  C43  1  0.25785811  0.89253954  0.66982342  1  -0.07577  -0.001867  3.778157  -0.002  -0.048198  -0.001441  4.011979  -0.001  -0.059435  -0.001638  4.035977  -0.001  -0.020334  -0.041388  -0.000996  3.996731  -0.001
C  C44  1  0.74210507  0.10749064  0.33018347  1  -0.075625  0.002812  3.777871  0.002  -0.047931  0.001966  4.011696  0.002  -0.059162  0.00237  4.035683  0.002  -0.020232  -0.04113  0.001547  3.996455  0.002
C  C45  1  0.49491594  0.89402072  0.67127741  1  -0.076743  -0.002076  3.776943  -0.002  -0.049725  -0.001638  4.014163  -0.002  -0.060844  -0.001797  4.038072  -0.002  -0.019424  -0.043147  -0.001264  3.998656  -0.001
C  C46  1  0.50507503  0.10596220  0.32868592  1  -0.076981  0.003186  3.777081  0.003  -0.049844  0.002312  4.01422  0.002  -0.06097  0.002691  4.038151  0.002  -0.019401  -0.043262  0.001969  3.998696  0.002
C  C47  1  0.24483361  0.03056905  0.63821369  1  -0.045235  0.002126  3.698092  0.002  -0.085657  0.002348  3.947817  0.002  -0.080187  0.002038  3.964784  0.002  -0.070596  -0.088458  0.001143  3.935974  0.001
C  C48  1  0.75516278  0.96946223  0.36177284  1  -0.045498  -0.004419  3.697951  -0.004  -0.085939  -0.005264  3.947857  -0.004  -0.080452  -0.004576  3.964801  -0.004  -0.070665  -0.088732  -0.00602  3.936012  -0.005
C  C49  1  0.48091004  0.03199280  0.63938487  1  -0.041598  0.002528  3.670066  0.002  -0.081362  0.002708  3.919132  0.002  -0.075753  0.002385  3.93539  0.002  -0.066002  -0.083484  0.002106  3.907058  0.002
C  C50  1  0.51911214  0.96799122  0.36055181  1  -0.041492  -0.004004  3.670154  -0.004  -0.081293  -0.00506  3.919347  -0.004  -0.075741  -0.004273  3.935587  -0.004  -0.066117  -0.083381  -0.005008  3.907266  -0.004
C  C51  1  0.35619231  0.10094149  0.62182478  1  -0.093983  -0.001768  3.778477  -0.002  -0.067351  -0.001001  4.020799  -0.001  -0.07914  -0.001021  4.045147  -0.001  -0.022958  -0.059877  -0.001038  4.004008  -0.001
C  C52  1  0.64382463  0.89906519  0.37814014  1  -0.09378  0.001352  3.778482  0.001  -0.067138  0.000586  4.02095  0.001  -0.078928  0.001063  4.045311  0.001  -0.022841  -0.059662  0.000312  4.004141  0.001
C  C53  1  0.34502485  0.24875665  0.58669969  1  0.666136  -0.004398  3.888392  -0.005  0.608316  -0.008143  4.189291  -0.008  0.643287  -0.006176  4.182885  -0.006  0.221063  0.58407  -0.01048  4.192804  -0.009
C  C54  1  0.65499233  0.75124704  0.41329106  1  0.665912  -0.004582  3.889233  -0.005  0.607978  -0.008271  4.190332  -0.008  0.642959  -0.006342  4.183913  -0.006  0.220897  0.583728  -0.010506  4.193857  -0.009
C  C55  1  0.78546675  0.82089208  0.95672155  1  0.128682  0.005326  3.728234  0.005  0.097461  0.008262  3.984546  0.007  0.104325  0.006836  4.002628  0.006  0.054121  0.092831  0.009975  3.972477  0.008
C  C56  1  0.21456955  0.17911164  0.04328715  1  0.128519  -0.005425  3.728638  -0.005  0.097284  -0.008224  3.984927  -0.007  0.104141  -0.006799  4.003023  -0.006  0.054024  0.092669  -0.009949  3.972841  -0.008
C  C57  1  0.73101492  0.80510359  0.07786848  1  -0.12901  -0.002248  3.746553  -0.002  -0.140367  -0.001144  3.995546  -0.001  -0.147795  -0.001915  4.017534  -0.001  -0.084293  -0.135948  -0.000317  3.981913  0.0
C  C58  1  0.26901846  0.19489914  0.92213854  1  -0.128923  0.002282  3.746664  0.002  -0.140238  0.001062  3.995661  0.001  -0.147692  0.001866  4.017655  0.001  -0.084207  -0.135807  0.000131  3.982002  0.0
C  C59  1  0.72073056  0.67698538  0.15031036  1  0.010704  0.005202  3.701871  0.004  -0.00938  0.007597  3.950676  0.006  -0.004994  0.006347  3.968512  0.005  -0.063721  -0.012792  0.009718  3.939977  0.007
C  C60  1  0.27929191  0.32301534  0.84969514  1  0.010749  -0.005072  3.702098  -0.004  -0.009279  -0.007392  3.950873  -0.006  -0.004895  -0.006052  3.968723  -0.005  -0.063645  -0.012673  -0.009615  3.940132  -0.007
C  C61  1  0.76548128  0.56996617  0.10036889  1  -0.126985  -0.002287  3.664482  -0.002  -0.146341  -0.00132  3.910531  -0.002  -0.152959  -0.00193  3.929908  -0.002  -0.074177  -0.142236  -0.000943  3.89848  -0.001
C  C62  1  0.23453598  0.43003652  0.89963047  1  -0.12711  0.00257  3.664702  0.002  -0.146431  0.001339  3.910647  0.002  -0.153052  0.002033  3.930034  0.002  -0.074251  -0.142317  0.000854  3.898561  0.001
C  C63  1  0.81830843  0.59363804  0.97784297  1  0.17566  0.004034  3.757076  0.004  0.172114  0.007278  3.999094  0.006  0.178375  0.0058  4.019922  0.005  0.124823  0.167665  0.009404  3.985494  0.008
C  C64  1  0.18170808  0.40637255  0.02215294  1  0.175516  -0.004166  3.757197  -0.004  0.172069  -0.007404  3.999196  -0.006  0.17832  -0.005875  4.020028  -0.005  0.124868  0.167646  -0.009624  3.985577  -0.008
C  C65  1  0.86340555  0.48636565  0.91594396  1  0.182104  0.005197  3.740701  0.005  0.176955  0.008577  3.983208  0.008  0.184199  0.006743  4.002557  0.006  0.126907  0.171364  0.011579  3.970937  0.01
C  C66  1  0.13659218  0.51364094  0.08405418  1  0.182241  -0.005188  3.740471  -0.005  0.177015  -0.008669  3.983058  -0.008  0.18425  -0.006784  4.002416  -0.006  0.126932  0.171436  -0.01176  3.970775  -0.01
C  C67  1  0.87114233  0.35281457  0.97743197  1  -0.13696  -0.003636  3.689733  -0.003  -0.155069  -0.002325  3.938109  -0.002  -0.161948  -0.002968  3.959045  -0.003  -0.077391  -0.150659  -0.002094  3.925273  -0.003
C  C68  1  0.12885218  0.64719399  0.02256969  1  -0.137049  0.003665  3.68988  0.003  -0.155144  0.002196  3.938297  0.002  -0.162021  0.002896  3.959237  0.003  -0.077445  -0.150735  0.001798  3.925436  0.002
C  C69  1  0.91031030  0.25750356  0.91260276  1  -0.012206  0.005972  3.755667  0.005  -0.032435  0.00859  4.007197  0.007  -0.028769  0.00687  4.026083  0.005  -0.070189  -0.03566  0.011605  3.995608  0.009
C  C70  1  0.08966909  0.74249409  0.08740710  1  -0.012192  -0.005962  3.755787  -0.005  -0.032421  -0.008615  4.007336  -0.007  -0.028767  -0.006868  4.026243  -0.005  -0.070164  -0.035633  -0.011765  3.995707  -0.009
C  C71  1  0.94211400  0.29746174  0.78840784  1  -0.115986  -0.003449  3.737507  -0.003  -0.130751  -0.002026  3.992629  -0.002  -0.137127  -0.002939  4.013247  -0.002  -0.081306  -0.127374  -0.001094  3.981104  -0.001
C  C72  1  0.05784321  0.70253586  0.21159894  1  -0.115705  0.003413  3.737339  0.003  -0.130485  0.001855  3.992442  0.002  -0.13686  0.00285  4.013069  0.002  -0.081171  -0.127091  0.000842  3.980889  0.001
C  C73  1  0.93432351  0.43204133  0.73347562  1  0.15033  0.006555  3.675845  0.006  0.118684  0.009126  3.931246  0.008  0.126455  0.007695  3.947172  0.007  0.060029  0.112791  0.011016  3.922065  0.009
C  C74  1  0.06563601  0.56795331  0.26652890  1  0.14999  -0.006514  3.67603  -0.006  0.118373  -0.009407  3.931383  -0.008  0.126143  -0.007812  3.947312  -0.007  0.060007  0.112479  -0.011414  3.922193  -0.009
N  N75  1  0.82764072  0.71796283  0.90794593  1  -0.357518  0.029138  3.249667  0.016  -0.294425  0.034381  3.523806  0.016  -0.313676  0.029727  3.539153  0.012  -0.317938  -0.281111  0.039584  3.513742  0.02
N  N76  1  0.17239009  0.28204582  0.09205177  1  -0.357272  -0.028993  3.249607  -0.016  -0.294345  -0.034258  3.523867  -0.016  -0.313586  -0.029616  3.53921  -0.012  -0.317944  -0.281033  -0.039505  3.51379  -0.02
N  N77  1  0.89553833  0.52445837  0.79540386  1  -0.345858  0.024819  3.230072  0.01  -0.283216  0.029572  3.504759  0.009  -0.301078  0.024905  3.516989  0.006  -0.312059  -0.270926  0.034441  3.497194  0.014
N  N78  1  0.10442914  0.47554815  0.20459282  1  -0.345807  -0.024796  3.230233  -0.01  -0.283122  -0.029577  3.504888  -0.01  -0.300983  -0.024883  3.517129  -0.006  -0.312046  -0.270832  -0.034724  3.497317  -0.014
O  O79  1  0.95310403  0.71423394  0.53138909  1  -0.814667  0.028819  1.87941  0.015  -0.75829  0.038319  2.091326  0.021  -0.78047  0.034711  2.058941  0.018  -0.557706  -0.741834  0.041883  2.114885  0.024
O  O80  1  0.04688889  0.28581212  0.46861718  1  -0.814578  -0.028838  1.879307  -0.016  -0.758184  -0.038848  2.091103  -0.022  -0.780366  -0.03497  2.05874  -0.019  -0.557665  -0.741732  -0.042634  2.114668  -0.025
O  O81  1  0.71857987  0.43386084  0.46295346  1  -0.863038  -0.030294  1.851995  -0.019  -0.805824  -0.039555  2.043484  -0.024  -0.828335  -0.035414  2.006951  -0.021  -0.583587  -0.78898  -0.043101  2.06945  -0.027
O  O82  1  0.28142337  0.56616153  0.53706237  1  -0.862724  -0.03055  1.85225  -0.019  -0.805552  -0.039712  2.043639  -0.024  -0.828059  -0.035705  2.007117  -0.021  -0.583357  -0.788702  -0.043108  2.069622  -0.027
O  O83  1  0.53525770  0.50531924  0.67814587  1  -0.834978  -0.028143  1.84035  -0.016  -0.784098  -0.038074  2.037342  -0.022  -0.805749  -0.034269  2.005665  -0.02  -0.563328  -0.767994  -0.041526  2.059748  -0.025
O  O84  1  0.46477419  0.49456101  0.32190631  1  -0.834958  -0.028134  1.840578  -0.017  -0.784027  -0.038131  2.037344  -0.023  -0.805667  -0.034211  2.0057  -0.02  -0.563328  -0.767922  -0.041666  2.059778  -0.025
O  O85  1  0.65086820  0.69858229  0.70179768  1  -0.648857  0.015539  1.989971  0.01  -0.587782  0.024476  2.21803  0.018  -0.61641  0.02104  2.208  0.015  -0.308543  -0.565977  0.027824  2.223558  0.022
O  O86  1  0.34908685  0.30137378  0.29825234  1  -0.649044  -0.015527  1.989883  -0.011  -0.588142  -0.02501  2.218146  -0.019  -0.61675  -0.021192  2.208092  -0.016  -0.308805  -0.56635  -0.028763  2.223683  -0.023
O  O87  1  0.72436187  0.89164269  0.68551036  1  -0.622012  0.033769  1.968123  0.025  -0.560595  0.035566  2.211484  0.023  -0.592604  0.031791  2.201429  0.02  -0.316814  -0.535698  0.038427  2.218056  0.026
O  O88  1  0.27564180  0.10831261  0.31446804  1  -0.622347  -0.033683  1.968276  -0.025  -0.560909  -0.035606  2.211595  -0.024  -0.592896  -0.031762  2.201525  -0.02  -0.31683  -0.536042  -0.038576  2.218187  -0.026
O  O89  1  0.15174389  0.69309791  0.70822784  1  -0.657683  0.011184  1.98421  0.007  -0.599081  0.019436  2.213602  0.015  -0.625663  0.01641  2.203799  0.012  -0.310825  -0.579062  0.022594  2.219365  0.018
O  O90  1  0.84817581  0.30693314  0.29179343  1  -0.65767  -0.01099  1.983959  -0.007  -0.599124  -0.019397  2.213713  -0.015  -0.625696  -0.016265  2.203897  -0.012  -0.310751  -0.579084  -0.022577  2.21942  -0.018
O  O91  1  0.02301216  0.88536119  0.67953259  1  -0.626236  0.033317  1.969723  0.024  -0.565029  0.036244  2.213255  0.023  -0.595843  0.032133  2.201373  0.019  -0.321918  -0.541505  0.039752  2.221396  0.026
O  O92  1  0.97693912  0.11468771  0.32048387  1  -0.626475  -0.033221  1.969623  -0.024  -0.565136  -0.036335  2.213235  -0.023  -0.595951  -0.032118  2.201349  -0.019  -0.321934  -0.541616  -0.040001  2.22138  -0.027
O  O93  1  0.23014194  0.31271718  0.57571924  1  -0.656699  -0.001649  2.03133  -0.002  -0.589738  -0.003936  2.25601  -0.005  -0.6175  -0.002773  2.246945  -0.004  -0.308228  -0.569654  -0.005137  2.261594  -0.006
O  O94  1  0.76987688  0.68731117  0.42428950  1  -0.65653  -0.001553  2.031672  -0.002  -0.58943  -0.003552  2.256304  -0.004  -0.617208  -0.002638  2.247246  -0.003  -0.307968  -0.569359  -0.004462  2.261882  -0.004
O  O95  1  0.45278498  0.30308154  0.57375562  1  -0.656806  -0.032523  2.037185  -0.019  -0.590517  -0.036971  2.301639  -0.019  -0.621112  -0.033724  2.288355  -0.016  -0.313173  -0.567778  -0.040103  2.310117  -0.021
O  O96  1  0.54723938  0.69691031  0.42623656  1  -0.65698  -0.032208  2.037631  -0.018  -0.590649  -0.036607  2.302113  -0.018  -0.621268  -0.033405  2.28887  -0.016  -0.313299  -0.567912  -0.039715  2.310591  -0.021
