# generated using pymatgen
data_H12PbC14(IN)2
_symmetry_space_group_name_H-M   'P 1'
_cell_length_a   7.89182111
_cell_length_b   10.93059269
_cell_length_c   10.93206581
_cell_angle_alpha   67.65320763
_cell_angle_beta   72.17109258
_cell_angle_gamma   72.17829691
_symmetry_Int_Tables_number   1
_chemical_formula_structural   H12PbC14(IN)2
_chemical_formula_sum   'H24 Pb2 C28 I4 N4'
_cell_volume   810.82721408
_cell_formula_units_Z   2
loop_
 _symmetry_equiv_pos_site_id
 _symmetry_equiv_pos_as_xyz
  1  'x, y, z'
loop_
 _atom_site_type_symbol
 _atom_site_label
 _atom_site_symmetry_multiplicity
 _atom_site_fract_x
 _atom_site_fract_y
 _atom_site_fract_z
 _atom_site_occupancy
 _atom_site_hle17_bader_spin_density
 _atom_site_hle17_ddec_charge
 _atom_site_hle17_ddec_spin_density
 _atom_site_hle17_ddec_sum_bond_order
 _atom_site_hle17_magmom
 _atom_site_hse06_10hf_bader_spin_density
 _atom_site_hse06_10hf_ddec_charge
 _atom_site_hse06_10hf_ddec_spin_density
 _atom_site_hse06_10hf_ddec_sum_bond_order
 _atom_site_hse06_10hf_magmom
 _atom_site_hse06_bader_spin_density
 _atom_site_hse06_ddec_charge
 _atom_site_hse06_ddec_spin_density
 _atom_site_hse06_ddec_sum_bond_order
 _atom_site_hse06_magmom
 _atom_site_pbe_bader_spin_density
 _atom_site_pbe_cm5_charge
 _atom_site_pbe_ddec_charge
 _atom_site_pbe_ddec_spin_density
 _atom_site_pbe_ddec_sum_bond_order
 _atom_site_pbe_magmom
H  H0  1  0.27063461  0.36011905  0.11486392  1  0  0.10824  0  0.985082  0  0  0.115924  0  1.051173  0  0  0.119931  0  1.049424  0  0  0.089039  0.11301  0  1.052561  0
H  H1  1  0.22942390  0.88459976  0.63999435  1  0  0.109  0  0.983815  0  0  0.116858  0  1.049493  0  0  0.120858  0  1.047741  0  0  0.089642  0.113905  0  1.050937  0
H  H2  1  0.72929316  0.64006725  0.88492890  1  0  0.108371  0  0.984653  0  0  0.116003  0  1.050741  0  0  0.120008  0  1.048994  0  0  0.08909  0.113086  0  1.052124  0
H  H3  1  0.77043869  0.11519801  0.36016510  1  0  0.109193  0  0.983741  0  0  0.116879  0  1.049705  0  0  0.120886  0  1.047948  0  0  0.089564  0.11392  0  1.051158  0
H  H4  1  0.39844874  0.11737685  0.23178866  1  0  0.102152  0  0.93168  0  0  0.116368  0  0.987199  0  0  0.119089  0  0.985268  0  0  0.110592  0.114476  0  0.987991  0
H  H5  1  0.10145704  0.76785803  0.88283723  1  0  0.101827  0  0.931566  0  0  0.116312  0  0.986917  0  0  0.11904  0  0.984975  0  0  0.110752  0.114431  0  0.987671  0
H  H6  1  0.60136984  0.88286133  0.76811383  1  0  0.102585  0  0.931112  0  0  0.116733  0  0.98667  0  0  0.119461  0  0.984734  0  0  0.1108  0.114835  0  0.987461  0
H  H7  1  0.89836126  0.23205661  0.11740620  1  0  0.1021  0  0.931439  0  0  0.116651  0  0.986635  0  0  0.119357  0  0.984747  0  0  0.110862  0.114756  0  0.987381  0
H  H8  1  0.61960027  0.90499311  0.22315703  1  0  0.098798  0  0.985249  0  0  0.104477  0  1.058127  0  0  0.10838  0  1.055448  0  0  0.084585  0.101584  0  1.059685  0
H  H9  1  0.88037759  0.77678968  0.09513845  1  0  0.098654  0  0.985417  0  0  0.104444  0  1.058291  0  0  0.108343  0  1.055619  0  0  0.084618  0.101552  0  1.059825  0
H  H10  1  0.38019175  0.09517339  0.77686943  1  0  0.098545  0  0.984953  0  0  0.104479  0  1.057621  0  0  0.108386  0  1.05494  0  0  0.084543  0.101578  0  1.059179  0
H  H11  1  0.11947932  0.22330231  0.90501554  1  0  0.09851  0  0.984852  0  0  0.10415  0  1.057944  0  0  0.108059  0  1.055262  0  0  0.084403  0.101249  0  1.0595  0
H  H12  1  0.45050925  0.54525601  0.75097788  1  0  0.101087  0  1.02755  0  0  0.121278  0  1.093767  0  0  0.12263  0  1.093838  0  0  0.072596  0.120614  0  1.092994  0
H  H13  1  0.04957517  0.24846445  0.45466627  1  0  0.101203  0  1.027744  0  0  0.121617  0  1.093753  0  0  0.122943  0  1.093837  0  0  0.072869  0.120953  0  1.092972  0
H  H14  1  0.54936108  0.45471882  0.24872958  1  0  0.100709  0  1.027631  0  0  0.121078  0  1.093745  0  0  0.122421  0  1.093813  0  0  0.072622  0.12041  0  1.092976  0
H  H15  1  0.95077458  0.75137984  0.54542975  1  0  0.10093  0  1.027877  0  0  0.121288  0  1.093929  0  0  0.122591  0  1.094048  0  0  0.072754  0.12065  0  1.093126  0
H  H16  1  0.39540533  0.56956043  0.91137453  1  0  0.117369  0  0.956515  0  0  0.1391  0  1.017988  0  0  0.140026  0  1.019075  0  0  0.092016  0.1388  0  1.016631  0
H  H17  1  0.10584203  0.08784339  0.43056764  1  0  0.118461  0  0.955819  0  0  0.140246  0  1.017051  0  0  0.141179  0  1.018134  0  0  0.092485  0.139931  0  1.015715  0
H  H18  1  0.60500675  0.43062007  0.08818711  1  0  0.11786  0  0.956115  0  0  0.139477  0  1.017725  0  0  0.140415  0  1.018795  0  0  0.092078  0.139161  0  1.016386  0
H  H19  1  0.89398559  0.91201914  0.56956197  1  0  0.118302  0  0.955649  0  0  0.139999  0  1.017032  0  0  0.14095  0  1.018088  0  0  0.092333  0.13968  0  1.015708  0
H  H20  1  0.23825441  0.52078078  0.86194240  1  0  0.125216  0  0.960859  0  0  0.14402  0  1.026831  0  0  0.146665  0  1.024854  0  0  0.083104  0.141734  0  1.028808  0
H  H21  1  0.26208118  0.13810860  0.47942491  1  0  0.126221  0  0.96044  0  0  0.144955  0  1.026352  0  0  0.1476  0  1.02437  0  0  0.083439  0.142654  0  1.028353  0
H  H22  1  0.76175017  0.47936485  0.13807756  1  0  0.125309  0  0.960411  0  0  0.144143  0  1.026357  0  0  0.146771  0  1.024396  0  0  0.083171  0.141859  0  1.028328  0
H  H23  1  0.73809779  0.86142085  0.52069460  1  0  0.125697  0  0.961076  0  0  0.144552  0  1.026873  0  0  0.14721  0  1.024885  0  0  0.083258  0.142264  0  1.028852  0
Pb  Pb24  1  0.75027944  0.39936530  0.60057884  1  0  0.921296  0  1.764751  0  0  0.742512  0  2.193918  0  0  0.79887  0  2.161787  0  0  0.392848  0.704386  0  2.214937  0
Pb  Pb25  1  0.24998784  0.60059883  0.39930209  1  0  0.921165  0  1.76439  0  0  0.742265  0  2.193555  0  0  0.79861  0  2.161478  0  0  0.392814  0.704146  0  2.214565  0
C  C26  1  0.38435263  0.29974500  0.06138368  1  0  -0.16795  0  3.706962  0  0  -0.182219  0  3.950274  0  0  -0.190523  0  3.970003  0  0  -0.087219  -0.176823  0  3.935597  0
C  C27  1  0.11579973  0.93817677  0.70036356  1  0  -0.169346  0  3.706053  0  0  -0.183579  0  3.949743  0  0  -0.191876  0  3.969464  0  0  -0.087631  -0.178162  0  3.935111  0
C  C28  1  0.61558299  0.70043335  0.93845343  1  0  -0.167969  0  3.707319  0  0  -0.181907  0  3.950768  0  0  -0.190201  0  3.970496  0  0  -0.086861  -0.176507  0  3.93608  0
C  C29  1  0.88415119  0.06166073  0.29978748  1  0  -0.169193  0  3.705769  0  0  -0.183548  0  3.949441  0  0  -0.191847  0  3.969157  0  0  -0.087592  -0.178128  0  3.934812  0
C  C30  1  0.45471668  0.16673476  0.12568573  1  0  -0.03335  0  3.711734  0  0  -0.057845  0  3.959864  0  0  -0.054296  0  3.977083  0  0  -0.061338  -0.05926  0  3.946538  0
C  C31  1  0.04537220  0.87399962  0.83337440  1  0  -0.033021  0  3.71153  0  0  -0.057825  0  3.95977  0  0  -0.054297  0  3.977018  0  0  -0.061933  -0.059225  0  3.946424  0
C  C32  1  0.54518370  0.83341944  0.87423436  1  0  -0.034149  0  3.712311  0  0  -0.05871  0  3.960491  0  0  -0.055165  0  3.977702  0  0  -0.061903  -0.060126  0  3.947166  0
C  C33  1  0.95456447  0.12590993  0.16678876  1  0  -0.033362  0  3.712153  0  0  -0.058151  0  3.960327  0  0  -0.054615  0  3.97754  0  0  -0.062063  -0.059518  0  3.946954  0
C  C34  1  0.46149169  0.36095382  0.92368938  1  0  0.334675  0  3.70762  0  0  0.340334  0  3.95144  0  0  0.351918  0  3.969684  0  0  0.135675  0.333142  0  3.938168  0
C  C35  1  0.03889062  0.07591998  0.63907539  1  0  0.335726  0  3.706174  0  0  0.340967  0  3.950631  0  0  0.352561  0  3.968861  0  0  0.135831  0.333774  0  3.937356  0
C  C36  1  0.53854851  0.63913553  0.07616585  1  0  0.335318  0  3.707101  0  0  0.34028  0  3.951758  0  0  0.351875  0  3.96999  0  0  0.135316  0.333074  0  3.938489  0
C  C37  1  0.96115044  0.92390951  0.36104488  1  0  0.334896  0  3.707024  0  0  0.340524  0  3.951005  0  0  0.352117  0  3.969238  0  0  0.135823  0.333323  0  3.937741  0
C  C38  1  0.67397696  0.15941290  0.91543140  1  0  0.137999  0  3.726151  0  0  0.128757  0  3.97138  0  0  0.134057  0  3.992695  0  0  0.117246  0.125033  0  3.957564  0
C  C39  1  0.82636880  0.08441440  0.84055007  1  0  0.136872  0  3.726206  0  0  0.127312  0  3.971672  0  0  0.132602  0  3.993007  0  0  0.116454  0.123603  0  3.957835  0
C  C40  1  0.32600049  0.84066050  0.08454914  1  0  0.137778  0  3.726087  0  0  0.128393  0  3.971357  0  0  0.13369  0  3.992682  0  0  0.116985  0.124667  0  3.957535  0
C  C41  1  0.17365131  0.91558224  0.15950528  1  0  0.13674  0  3.726775  0  0  0.127287  0  3.972166  0  0  0.132581  0  3.993491  0  0  0.116466  0.123575  0  3.958348  0
C  C42  1  0.67846112  0.95346950  0.11722431  1  0  -0.095671  0  3.742242  0  0  -0.119486  0  4.000619  0  0  -0.122966  0  4.023565  0  0  -0.090475  -0.116793  0  3.984646  0
C  C43  1  0.82165501  0.88271035  0.04657948  1  0  -0.095878  0  3.74286  0  0  -0.119917  0  4.001135  0  0  -0.123406  0  4.024082  0  0  -0.090624  -0.1172  0  3.985144  0
C  C44  1  0.32137375  0.04665562  0.88283956  1  0  -0.095813  0  3.744102  0  0  -0.119857  0  4.002301  0  0  -0.123355  0  4.025281  0  0  -0.090795  -0.11714  0  3.986292  0
C  C45  1  0.17828090  0.11732489  0.95354480  1  0  -0.095262  0  3.743619  0  0  -0.119092  0  4.001881  0  0  -0.122578  0  4.024839  0  0  -0.089813  -0.116383  0  3.985894  0
C  C46  1  0.60265159  0.09194233  0.05374518  1  0  0.018484  0  3.809845  0  0  0.033104  0  4.045822  0  0  0.030303  0  4.070543  0  0  -0.0059  0.034098  0  4.029789  0
C  C47  1  0.89754326  0.94605881  0.90812229  1  0  0.019293  0  3.809165  0  0  0.034108  0  4.045079  0  0  0.031311  0  4.069808  0  0  -0.005603  0.035095  0  4.029037  0
C  C48  1  0.39726712  0.90818163  0.94622176  1  0  0.01856  0  3.809596  0  0  0.033323  0  4.045527  0  0  0.030527  0  4.070249  0  0  -0.005972  0.034322  0  4.029484  0
C  C49  1  0.10241899  0.05393188  0.09201320  1  0  0.019563  0  3.81008  0  0  0.034281  0  4.045947  0  0  0.031488  0  4.070668  0  0  -0.005412  0.035256  0  4.029933  0
C  C50  1  0.38396167  0.50649952  0.85756534  1  0  -0.379233  0  3.706068  0  0  -0.459113  0  3.932479  0  0  -0.463133  0  3.93962  0  0  -0.245787  -0.45639  0  3.927093  0
C  C51  1  0.11657017  0.14200177  0.49357210  1  0  -0.381962  0  3.707014  0  0  -0.461992  0  3.933572  0  0  -0.465998  0  3.940724  0  0  -0.246903  -0.459239  0  3.928207  0
C  C52  1  0.61610329  0.49360891  0.14221392  1  0  -0.379785  0  3.706002  0  0  -0.459547  0  3.932462  0  0  -0.463547  0  3.939607  0  0  -0.245762  -0.456804  0  3.92708  0
C  C53  1  0.88354568  0.85777205  0.50654185  1  0  -0.380756  0  3.707021  0  0  -0.460765  0  3.93332  0  0  -0.46478  0  3.940461  0  0  -0.24643  -0.458036  0  3.927928  0
I  I54  1  0.50195473  0.27554664  0.51797804  1  0  -0.535919  0  0.987258  0  0  -0.47021  0  1.277339  0  0  -0.494026  0  1.260289  0  0  -0.195683  -0.453952  0  1.287764  0
I  I55  1  0.99784516  0.48229724  0.72478264  1  0  -0.536142  0  0.986439  0  0  -0.470313  0  1.276328  0  0  -0.494122  0  1.259267  0  0  -0.195974  -0.454054  0  1.286735  0
I  I56  1  0.49820614  0.72444994  0.48196999  1  0  -0.535873  0  0.987531  0  0  -0.470101  0  1.277542  0  0  -0.493894  0  1.260467  0  0  -0.195537  -0.453843  0  1.287967  0
I  I57  1  0.00224284  0.51759395  0.27525135  1  0  -0.536061  0  0.986478  0  0  -0.470313  0  1.276476  0  0  -0.494129  0  1.259412  0  0  -0.195883  -0.454054  0  1.286878  0
N  N58  1  0.60184621  0.29199961  0.85366005  1  0  -0.391956  0  3.156204  0  0  -0.325143  0  3.400409  0  0  -0.346877  0  3.421832  0  0  -0.294606  -0.310888  0  3.385629  0
N  N59  1  0.89861891  0.14608875  0.70795887  1  0  -0.392223  0  3.155383  0  0  -0.325141  0  3.399646  0  0  -0.34688  0  3.42108  0  0  -0.294377  -0.31088  0  3.38485  0
N  N60  1  0.39820626  0.70804834  0.14624673  1  0  -0.391915  0  3.156  0  0  -0.324702  0  3.400184  0  0  -0.346457  0  3.421639  0  0  -0.294028  -0.310439  0  3.385391  0
N  N61  1  0.10145322  0.85385726  0.29209422  1  0  -0.391913  0  3.155558  0  0  -0.325002  0  3.399758  0  0  -0.346744  0  3.421192  0  0  -0.29457  -0.310742  0  3.384965  0
