# generated using pymatgen
data_CuH9C13BrN2
_symmetry_space_group_name_H-M   'P 1'
_cell_length_a   10.54679473
_cell_length_b   12.00854815
_cell_length_c   12.90439427
_cell_angle_alpha   109.16873634
_cell_angle_beta   104.64048416
_cell_angle_gamma   109.59152496
_symmetry_Int_Tables_number   1
_chemical_formula_structural   CuH9C13BrN2
_chemical_formula_sum   'Cu4 H36 C52 Br4 N8'
_cell_volume   1327.97500973
_cell_formula_units_Z   4
loop_
 _symmetry_equiv_pos_site_id
 _symmetry_equiv_pos_as_xyz
  1  'x, y, z'
loop_
 _atom_site_type_symbol
 _atom_site_label
 _atom_site_symmetry_multiplicity
 _atom_site_fract_x
 _atom_site_fract_y
 _atom_site_fract_z
 _atom_site_occupancy
 _atom_site_hle17_bader_spin_density
 _atom_site_hle17_ddec_charge
 _atom_site_hle17_ddec_spin_density
 _atom_site_hle17_ddec_sum_bond_order
 _atom_site_hle17_magmom
 _atom_site_hse06_10hf_bader_spin_density
 _atom_site_hse06_10hf_ddec_charge
 _atom_site_hse06_10hf_ddec_spin_density
 _atom_site_hse06_10hf_ddec_sum_bond_order
 _atom_site_hse06_10hf_magmom
 _atom_site_hse06_bader_spin_density
 _atom_site_hse06_ddec_charge
 _atom_site_hse06_ddec_spin_density
 _atom_site_hse06_ddec_sum_bond_order
 _atom_site_hse06_magmom
 _atom_site_pbe_bader_spin_density
 _atom_site_pbe_cm5_charge
 _atom_site_pbe_ddec_charge
 _atom_site_pbe_ddec_spin_density
 _atom_site_pbe_ddec_sum_bond_order
 _atom_site_pbe_magmom
Cu  Cu0  1  0.78926666  0.57904225  0.32998930  1  0  0.369737  0  2.027055  0  0  0.258862  0  2.519765  0  0  0.258298  0  2.474512  0  0  0.397645  0.263958  0  2.54576  0
Cu  Cu1  1  0.04102183  0.75107989  0.33009481  1  0  0.3696  0  2.029708  0  0  0.259268  0  2.522483  0  0  0.258588  0  2.47731  0  0  0.398794  0.265217  0  2.547898  0
Cu  Cu2  1  0.21073183  0.42096043  0.67001152  1  0  0.369789  0  2.026991  0  0  0.258917  0  2.519706  0  0  0.258359  0  2.474456  0  0  0.397639  0.263987  0  2.54569  0
Cu  Cu3  1  0.95897603  0.24891781  0.66990279  1  0  0.369629  0  2.02972  0  0  0.259333  0  2.522512  0  0  0.258657  0  2.477332  0  0  0.398817  0.265271  0  2.547903  0
H  H4  1  0.88539181  0.85334827  0.48582273  1  0  0.068571  0  0.9887  0  0  0.07422  0  1.061671  0  0  0.077985  0  1.05723  0  0  0.09675  0.071218  0  1.065039  0
H  H5  1  0.10012339  0.63227045  0.48574284  1  0  0.069268  0  0.988991  0  0  0.074917  0  1.061898  0  0  0.078713  0  1.057415  0  0  0.097308  0.072012  0  1.065163  0
H  H6  1  0.11461309  0.14665733  0.51418184  1  0  0.068561  0  0.988671  0  0  0.074229  0  1.061616  0  0  0.078018  0  1.057151  0  0  0.096756  0.071225  0  1.064987  0
H  H7  1  0.89987648  0.36772923  0.51425733  1  0  0.069257  0  0.988886  0  0  0.074854  0  1.061856  0  0  0.078651  0  1.05737  0  0  0.097283  0.07196  0  1.065111  0
H  H8  1  0.95653310  0.99798233  0.70147649  1  0  0.107678  0  0.980529  0  0  0.111406  0  1.054954  0  0  0.115603  0  1.052881  0  0  0.09499  0.108204  0  1.056898  0
H  H9  1  0.24473269  0.70318602  0.70139220  1  0  0.107697  0  0.9802  0  0  0.11169  0  1.05436  0  0  0.115989  0  1.052143  0  0  0.094628  0.108399  0  1.056429  0
H  H10  1  0.04346792  0.00202331  0.29852885  1  0  0.107656  0  0.980557  0  0  0.111363  0  1.055011  0  0  0.115564  0  1.052932  0  0  0.094941  0.108168  0  1.056948  0
H  H11  1  0.75526621  0.29681367  0.29860777  1  0  0.107728  0  0.980178  0  0  0.111733  0  1.054319  0  0  0.116036  0  1.052097  0  0  0.094656  0.108443  0  1.05639  0
H  H12  1  0.87712213  0.65014683  0.75927809  1  0  0.114579  0  0.948404  0  0  0.124862  0  1.005291  0  0  0.128531  0  1.004239  0  0  0.101876  0.122367  0  1.005913  0
H  H13  1  0.38236026  0.10889400  0.75937362  1  0  0.114202  0  0.948616  0  0  0.124316  0  1.005777  0  0  0.127975  0  1.004723  0  0  0.101959  0.121852  0  1.006435  0
H  H14  1  0.12287912  0.34984984  0.24071988  1  0  0.114564  0  0.948424  0  0  0.124849  0  1.005309  0  0  0.128519  0  1.004256  0  0  0.101881  0.122357  0  1.005929  0
H  H15  1  0.61764018  0.89110866  0.24062681  1  0  0.114203  0  0.948634  0  0  0.124317  0  1.005795  0  0  0.127972  0  1.004742  0  0  0.10197  0.121854  0  1.006451  0
H  H16  1  0.82207028  0.52449050  0.54624596  1  0  0.068585  0  0.954898  0  0  0.078071  0  1.022207  0  0  0.080963  0  1.018673  0  0  0.107257  0.075843  0  1.025117  0
H  H17  1  0.22443983  0.02172558  0.54636038  1  0  0.069579  0  0.954313  0  0  0.078686  0  1.021837  0  0  0.08171  0  1.018153  0  0  0.107354  0.076396  0  1.024744  0
H  H18  1  0.17793107  0.47551017  0.45374939  1  0  0.068593  0  0.954884  0  0  0.078088  0  1.022184  0  0  0.080978  0  1.018654  0  0  0.107262  0.075863  0  1.025092  0
H  H19  1  0.77555855  0.97827311  0.45363841  1  0  0.069597  0  0.9543  0  0  0.078705  0  1.02183  0  0  0.081729  0  1.018141  0  0  0.10736  0.076416  0  1.024738  0
H  H20  1  0.15973201  0.05451145  0.89517662  1  0  0.104856  0  0.954919  0  0  0.11429  0  1.020008  0  0  0.117443  0  1.018685  0  0  0.103222  0.111764  0  1.021449  0
H  H21  1  0.23527277  0.84100094  0.89521950  1  0  0.105118  0  0.952966  0  0  0.113923  0  1.01886  0  0  0.117127  0  1.017538  0  0  0.102754  0.111372  0  1.020427  0
H  H22  1  0.84026970  0.94548421  0.10482423  1  0  0.104885  0  0.954863  0  0  0.114324  0  1.019955  0  0  0.117474  0  1.018641  0  0  0.103226  0.111799  0  1.021394  0
H  H23  1  0.76472325  0.15900077  0.10478050  1  0  0.105114  0  0.952943  0  0  0.113933  0  1.018825  0  0  0.117137  0  1.017501  0  0  0.102741  0.111382  0  1.020393  0
H  H24  1  0.71314448  0.72627959  0.02421011  1  0  0.110289  0  0.995941  0  0  0.116597  0  1.064112  0  0  0.120415  0  1.062714  0  0  0.090323  0.113962  0  1.064759  0
H  H25  1  0.81119591  0.29768931  0.02416012  1  0  0.110003  0  0.996499  0  0  0.116556  0  1.064455  0  0  0.120344  0  1.063094  0  0  0.090096  0.113866  0  1.065279  0
H  H26  1  0.28685717  0.27371407  0.97578934  1  0  0.110335  0  0.995872  0  0  0.116618  0  1.064068  0  0  0.120436  0  1.06267  0  0  0.09035  0.113984  0  1.064713  0
H  H27  1  0.18880441  0.70230937  0.97583750  1  0  0.109971  0  0.996549  0  0  0.11654  0  1.064488  0  0  0.120315  0  1.063143  0  0  0.09008  0.113848  0  1.065315  0
H  H28  1  0.45543812  0.54729302  0.91648433  1  0  0.081194  0  0.932472  0  0  0.088082  0  0.996842  0  0  0.091797  0  0.993069  0  0  0.1117  0.085128  0  0.999848  0
H  H29  1  0.96091340  0.36913835  0.91640571  1  0  0.081842  0  0.931536  0  0  0.087905  0  0.996781  0  0  0.091605  0  0.993004  0  0  0.111791  0.085176  0  0.999527  0
H  H30  1  0.54456227  0.45270764  0.08351702  1  0  0.081179  0  0.932393  0  0  0.088063  0  0.996763  0  0  0.091776  0  0.992991  0  0  0.111682  0.085111  0  0.999768  0
H  H31  1  0.03908790  0.63086032  0.08359289  1  0  0.081876  0  0.931496  0  0  0.08796  0  0.996718  0  0  0.091664  0  0.992937  0  0  0.111802  0.085231  0  0.999462  0
H  H32  1  0.40597500  0.59782080  0.60872741  1  0  0.06656  0  0.948098  0  0  0.077  0  1.011358  0  0  0.079488  0  1.008752  0  0  0.109305  0.075121  0  1.013585  0
H  H33  1  0.70261736  0.01086268  0.60853663  1  0  0.066641  0  0.950072  0  0  0.077181  0  1.012945  0  0  0.0796  0  1.010437  0  0  0.109439  0.07531  0  1.015074  0
H  H34  1  0.59402350  0.40218187  0.39127573  1  0  0.066532  0  0.948123  0  0  0.076954  0  1.0114  0  0  0.079444  0  1.008792  0  0  0.109289  0.075072  0  1.013622  0
H  H35  1  0.29738137  0.98913102  0.39146068  1  0  0.066666  0  0.950082  0  0  0.077187  0  1.012961  0  0  0.079609  0  1.010452  0  0  0.109425  0.075316  0  1.015092  0
H  H36  1  0.65650273  0.78238264  0.70378276  1  0  0.098451  0  0.97822  0  0  0.111638  0  1.033467  0  0  0.113821  0  1.034199  0  0  0.103626  0.110027  0  1.033281  0
H  H37  1  0.54740888  0.92114697  0.70368200  1  0  0.098161  0  0.977214  0  0  0.111155  0  1.032793  0  0  0.113241  0  1.033633  0  0  0.103665  0.109638  0  1.032534  0
H  H38  1  0.34349709  0.21761504  0.29621678  1  0  0.09841  0  0.978238  0  0  0.111595  0  1.033492  0  0  0.113778  0  1.034224  0  0  0.103613  0.109985  0  1.033308  0
H  H39  1  0.45259156  0.07885568  0.29632075  1  0  0.098209  0  0.977231  0  0  0.111214  0  1.032794  0  0  0.1133  0  1.033635  0  0  0.103701  0.109699  0  1.032534  0
C  C40  1  0.88370454  0.81283985  0.55009100  1  0  0.116165  0  3.71174  0  0  0.086795  0  3.959166  0  0  0.094598  0  3.972953  0  0  0.028002  0.081858  0  3.950942  0
C  C41  1  0.16610958  0.73701746  0.55003131  1  0  0.116449  0  3.712096  0  0  0.087554  0  3.958603  0  0  0.095157  0  3.972676  0  0  0.027018  0.082622  0  3.95032  0
C  C42  1  0.11629636  0.18716180  0.44990922  1  0  0.116205  0  3.711627  0  0  0.086821  0  3.959036  0  0  0.094604  0  3.972819  0  0  0.027999  0.08188  0  3.950811  0
C  C43  1  0.83388921  0.26297824  0.44996663  1  0  0.116529  0  3.712029  0  0  0.087686  0  3.958526  0  0  0.095277  0  3.972627  0  0  0.027093  0.082747  0  3.950236  0
C  C44  1  0.92192828  0.89208463  0.66991630  1  0  -0.165658  0  3.713446  0  0  -0.182379  0  3.960911  0  0  -0.190379  0  3.981746  0  0  -0.092519  -0.178019  0  3.94844  0
C  C45  1  0.24778583  0.77753699  0.66986981  1  0  -0.166298  0  3.712628  0  0  -0.183249  0  3.96047  0  0  -0.191267  0  3.98115  0  0  -0.091226  -0.178719  0  3.947948  0
C  C46  1  0.07807462  0.10791900  0.33008416  1  0  -0.165694  0  3.713537  0  0  -0.182402  0  3.961  0  0  -0.190406  0  3.981845  0  0  -0.09249  -0.178047  0  3.948524  0
C  C47  1  0.75221105  0.22246073  0.33012759  1  0  -0.166417  0  3.712701  0  0  -0.183388  0  3.960535  0  0  -0.191405  0  3.98121  0  0  -0.091359  -0.17886  0  3.948023  0
C  C48  1  0.91610765  0.83526402  0.74898760  1  0  0.094444  0  3.778435  0  0  0.105893  0  4.011066  0  0  0.111905  0  4.03114  0  0  0.004399  0.102023  0  3.998002  0
C  C49  1  0.33289129  0.91341135  0.74894799  1  0  0.094931  0  3.77439  0  0  0.105569  0  4.008149  0  0  0.111606  0  4.028079  0  0  0.003809  0.101731  0  3.995048  0
C  C50  1  0.08389274  0.16473664  0.25101375  1  0  0.094589  0  3.778365  0  0  0.10605  0  4.010974  0  0  0.112061  0  4.031045  0  0  0.004448  0.102176  0  3.997914  0
C  C51  1  0.66710766  0.08659033  0.25105338  1  0  0.094965  0  3.77444  0  0  0.105658  0  4.008182  0  0  0.111688  0  4.028099  0  0  0.003869  0.101819  0  3.995081  0
C  C52  1  0.87784725  0.69986034  0.70229573  1  0  -0.155806  0  3.728418  0  0  -0.175983  0  3.976887  0  0  -0.182805  0  3.996384  0  0  -0.089053  -0.17158  0  3.964595  0
C  C53  1  0.32452036  0.00217849  0.70229863  1  0  -0.155186  0  3.727025  0  0  -0.174987  0  3.975787  0  0  -0.18174  0  3.995229  0  0  -0.088989  -0.17092  0  3.96377  0
C  C54  1  0.12215462  0.30014131  0.29770391  1  0  -0.155859  0  3.728457  0  0  -0.176044  0  3.976947  0  0  -0.182866  0  3.996441  0  0  -0.089105  -0.171641  0  3.964658  0
C  C55  1  0.67547808  0.99782220  0.29770078  1  0  -0.155186  0  3.726996  0  0  -0.174993  0  3.975752  0  0  -0.181741  0  3.995191  0  0  -0.089005  -0.170922  0  3.963732  0
C  C56  1  0.84535287  0.62832412  0.58184185  1  0  0.113999  0  3.710906  0  0  0.083961  0  3.965542  0  0  0.091081  0  3.98056  0  0  0.031249  0.078838  0  3.957119  0
C  C57  1  0.23662492  0.95346602  0.58191523  1  0  0.113728  0  3.709837  0  0  0.084275  0  3.963942  0  0  0.091089  0  3.979198  0  0  0.03152  0.079197  0  3.955689  0
C  C58  1  0.15465147  0.37167851  0.41815549  1  0  0.114044  0  3.710717  0  0  0.083981  0  3.965386  0  0  0.091106  0  3.980397  0  0  0.031306  0.078856  0  3.956959  0
C  C59  1  0.76337403  0.04653566  0.41808614  1  0  0.113689  0  3.709782  0  0  0.084231  0  3.963896  0  0  0.09105  0  3.97915  0  0  0.031501  0.079147  0  3.955654  0
C  C60  1  0.95293939  0.91787926  0.87644247  1  0  0.020445  0  3.73088  0  0  0.029751  0  3.967543  0  0  0.029273  0  3.988135  0  0  -0.001296  0.029342  0  3.954286  0
C  C61  1  0.42354359  0.95838525  0.87638784  1  0  0.020603  0  3.729246  0  0  0.030525  0  3.965053  0  0  0.030101  0  3.985534  0  0  -0.000787  0.030474  0  3.951827  0
C  C62  1  0.04705888  0.08211544  0.12355738  1  0  0.020468  0  3.730818  0  0  0.029785  0  3.967515  0  0  0.029308  0  3.988105  0  0  -0.001302  0.029379  0  3.95426  0
C  C63  1  0.57645788  0.04161939  0.12361341  1  0  0.020655  0  3.729156  0  0  0.030471  0  3.965128  0  0  0.03007  0  3.985581  0  0  -0.000737  0.030423  0  3.951905  0
C  C64  1  0.08830595  0.03254146  0.94134919  1  0  -0.125343  0  3.694404  0  0  -0.154584  0  3.946608  0  0  -0.155893  0  3.964811  0  0  -0.079996  -0.153274  0  3.935566  0
C  C65  1  0.35290348  0.90909063  0.94144292  1  0  -0.126424  0  3.690712  0  0  -0.155236  0  3.942782  0  0  -0.156671  0  3.960911  0  0  -0.080307  -0.154523  0  3.932031  0
C  C66  1  0.91169684  0.96745819  0.05864924  1  0  -0.12552  0  3.69458  0  0  -0.154796  0  3.946811  0  0  -0.156106  0  3.965012  0  0  -0.08007  -0.15349  0  3.935763  0
C  C67  1  0.64709158  0.09091109  0.05855689  1  0  -0.126344  0  3.690769  0  0  -0.155155  0  3.942877  0  0  -0.156598  0  3.961  0  0  -0.080284  -0.154446  0  3.932124  0
C  C68  1  0.86066306  0.88442109  0.93584427  1  0  0.020553  0  3.726564  0  0  0.028047  0  3.964348  0  0  0.027959  0  3.984818  0  0  -0.0013  0.027171  0  3.951093  0
C  C69  1  0.57535518  0.05104650  0.93570960  1  0  0.020215  0  3.72586  0  0  0.02799  0  3.963242  0  0  0.027957  0  3.983654  0  0  -0.001286  0.027416  0  3.950159  0
C  C70  1  0.13934014  0.11557556  0.06415486  1  0  0.020461  0  3.726568  0  0  0.027899  0  3.964424  0  0  0.02781  0  3.984898  0  0  -0.001368  0.027012  0  3.951178  0
C  C71  1  0.42464721  0.94895614  0.06429277  1  0  0.02031  0  3.725742  0  0  0.028076  0  3.963164  0  0  0.028036  0  3.983575  0  0  -0.001237  0.027496  0  3.95009  0
C  C72  1  0.71027080  0.77246815  0.87368111  1  0  0.101955  0  3.755932  0  0  0.113348  0  3.987985  0  0  0.118487  0  4.00926  0  0  0.009236  0.110435  0  3.973193  0
C  C73  1  0.66355640  0.10088723  0.87356898  1  0  0.103348  0  3.754608  0  0  0.113942  0  3.987881  0  0  0.119018  0  4.009251  0  0  0.008414  0.110864  0  3.973264  0
C  C74  1  0.28972994  0.22752753  0.12631800  1  0  0.101893  0  3.756067  0  0  0.113319  0  3.988116  0  0  0.118451  0  4.009404  0  0  0.009205  0.110418  0  3.973317  0
C  C75  1  0.33644301  0.89911345  0.12643140  1  0  0.103319  0  3.754531  0  0  0.113957  0  3.987776  0  0  0.119026  0  4.009156  0  0  0.008421  0.110877  0  3.973162  0
C  C76  1  0.64912815  0.70330937  0.93230810  1  0  -0.159372  0  3.689882  0  0  -0.173584  0  3.926316  0  0  -0.180996  0  3.946093  0  0  -0.086323  -0.16892  0  3.913009  0
C  C77  1  0.78322608  0.22875991  0.93222942  1  0  -0.160008  0  3.691238  0  0  -0.174136  0  3.927616  0  0  -0.181518  0  3.947431  0  0  -0.08567  -0.169607  0  3.914712  0
C  C78  1  0.35087596  0.29668527  0.06769293  1  0  -0.1594  0  3.689814  0  0  -0.173606  0  3.926258  0  0  -0.181015  0  3.946034  0  0  -0.086312  -0.168943  0  3.91295  0
C  C79  1  0.21677081  0.77123781  0.06776643  1  0  -0.159946  0  3.691173  0  0  -0.174091  0  3.927535  0  0  -0.181461  0  3.947367  0  0  -0.085637  -0.169558  0  3.914631  0
C  C80  1  0.50511923  0.60214549  0.87266245  1  0  0.130832  0  3.689458  0  0  0.101743  0  3.937207  0  0  0.108874  0  3.951782  0  0  0.041373  0.09703  0  3.928119  0
C  C81  1  0.86741408  0.27046473  0.87255434  1  0  0.130965  0  3.688591  0  0  0.102705  0  3.93625  0  0  0.10989  0  3.950791  0  0  0.041779  0.097898  0  3.927268  0
C  C82  1  0.49488460  0.39785612  0.12734378  1  0  0.13074  0  3.689472  0  0  0.101672  0  3.937219  0  0  0.1088  0  3.951791  0  0  0.041294  0.096964  0  3.928146  0
C  C83  1  0.13258578  0.72953496  0.12744272  1  0  0.130884  0  3.688534  0  0  0.102582  0  3.936182  0  0  0.109765  0  3.950719  0  0  0.041724  0.097781  0  3.927199  0
C  C84  1  0.47685955  0.62996546  0.70139320  1  0  0.109586  0  3.73317  0  0  0.082762  0  3.982743  0  0  0.088877  0  3.999122  0  0  0.031593  0.078304  0  3.972877  0
C  C85  1  0.72437764  0.07133549  0.70118112  1  0  0.107991  0  3.735049  0  0  0.081369  0  3.984323  0  0  0.087595  0  4.000612  0  0  0.030359  0.076786  0  3.974505  0
C  C86  1  0.52313740  0.37003423  0.29860870  1  0  0.109606  0  3.733165  0  0  0.082817  0  3.982731  0  0  0.08892  0  3.999122  0  0  0.031609  0.078378  0  3.972866  0
C  C87  1  0.27562567  0.92866515  0.29882005  1  0  0.107943  0  3.735163  0  0  0.081322  0  3.984425  0  0  0.087553  0  4.000699  0  0  0.030333  0.076743  0  3.974607  0
C  C88  1  0.61850745  0.73289662  0.75487714  1  0  -0.164458  0  3.750044  0  0  -0.182311  0  3.994281  0  0  -0.190039  0  4.016824  0  0  -0.090147  -0.177407  0  3.979374  0
C  C89  1  0.63645554  0.02178471  0.75471706  1  0  -0.163634  0  3.751143  0  0  -0.181247  0  3.99605  0  0  -0.18889  0  4.018646  0  0  -0.089302  -0.176369  0  3.981228  0
C  C90  1  0.38149236  0.26710105  0.24512395  1  0  -0.164364  0  3.75004  0  0  -0.182223  0  3.994263  0  0  -0.189947  0  4.016807  0  0  -0.090097  -0.177321  0  3.979351  0
C  C91  1  0.36354536  0.97821694  0.24528547  1  0  -0.163642  0  3.751233  0  0  -0.181291  0  3.996145  0  0  -0.188933  0  4.018743  0  0  -0.089304  -0.176412  0  3.981322  0
Br  Br92  1  0.94426781  0.49530175  0.24767923  1  0  -0.56277  0  1.186392  0  0  -0.497725  0  1.530338  0  0  -0.516463  0  1.500432  0  0  -0.29017  -0.482677  0  1.548569  0
Br  Br93  1  0.80378262  0.75266881  0.24774508  1  0  -0.56308  0  1.185164  0  0  -0.497998  0  1.528601  0  0  -0.516683  0  1.498642  0  0  -0.290501  -0.483007  0  1.54693  0
Br  Br94  1  0.05573005  0.50469594  0.75232224  1  0  -0.562776  0  1.186402  0  0  -0.497735  0  1.53036  0  0  -0.51647  0  1.500446  0  0  -0.290163  -0.482681  0  1.548584  0
Br  Br95  1  0.19621083  0.24732794  0.75225365  1  0  -0.563076  0  1.185158  0  0  -0.497997  0  1.528601  0  0  -0.516688  0  1.498646  0  0  -0.290487  -0.483001  0  1.546918  0
N  N96  1  0.84476350  0.68161447  0.50429670  1  0  -0.287586  0  3.386718  0  0  -0.213833  0  3.680311  0  0  -0.222834  0  3.686158  0  0  -0.367438  -0.209024  0  3.675546  0
N  N97  1  0.15938788  0.82251772  0.50431415  1  0  -0.289335  0  3.388177  0  0  -0.216362  0  3.682774  0  0  -0.225172  0  3.688396  0  0  -0.368298  -0.211556  0  3.678006  0
N  N98  1  0.15523843  0.31838917  0.49570434  1  0  -0.287658  0  3.386446  0  0  -0.213889  0  3.680061  0  0  -0.222896  0  3.685916  0  0  -0.367488  -0.209072  0  3.675278  0
N  N99  1  0.84061250  0.17748295  0.49568488  1  0  -0.289374  0  3.388299  0  0  -0.216411  0  3.682898  0  0  -0.225221  0  3.688514  0  0  -0.368309  -0.2116  0  3.678121  0
N  N100  1  0.41828747  0.56407089  0.75808258  1  0  -0.277418  0  3.375783  0  0  -0.206916  0  3.671616  0  0  -0.215963  0  3.678162  0  0  -0.364415  -0.201961  0  3.66696  0
N  N101  1  0.83974664  0.19398072  0.75800188  1  0  -0.276493  0  3.373556  0  0  -0.206343  0  3.669443  0  0  -0.215415  0  3.676003  0  0  -0.364214  -0.201264  0  3.664695  0
N  N102  1  0.58171544  0.43593273  0.24192175  1  0  -0.277296  0  3.3758  0  0  -0.206818  0  3.671642  0  0  -0.215852  0  3.678174  0  0  -0.364357  -0.201894  0  3.667015  0
N  N103  1  0.16025374  0.80601995  0.24199715  1  0  -0.276461  0  3.37354  0  0  -0.206245  0  3.669348  0  0  -0.215315  0  3.67591  0  0  -0.364165  -0.201177  0  3.664613  0
