# generated using pymatgen
data_HgH30C30(SN)4
_symmetry_space_group_name_H-M   'P 1'
_cell_length_a   8.16151053
_cell_length_b   12.40723018
_cell_length_c   16.09500000
_cell_angle_alpha   81.95357261
_cell_angle_beta   89.02005982
_cell_angle_gamma   86.56425667
_symmetry_Int_Tables_number   1
_chemical_formula_structural   HgH30C30(SN)4
_chemical_formula_sum   'Hg2 H60 C60 S8 N8'
_cell_volume   1610.79907442
_cell_formula_units_Z   2
loop_
 _symmetry_equiv_pos_site_id
 _symmetry_equiv_pos_as_xyz
  1  'x, y, z'
loop_
 _atom_site_type_symbol
 _atom_site_label
 _atom_site_symmetry_multiplicity
 _atom_site_fract_x
 _atom_site_fract_y
 _atom_site_fract_z
 _atom_site_occupancy
 _atom_site_hle17_bader_spin_density
 _atom_site_hle17_ddec_charge
 _atom_site_hle17_ddec_spin_density
 _atom_site_hle17_ddec_sum_bond_order
 _atom_site_hle17_magmom
 _atom_site_hse06_10hf_bader_spin_density
 _atom_site_hse06_10hf_ddec_charge
 _atom_site_hse06_10hf_ddec_spin_density
 _atom_site_hse06_10hf_ddec_sum_bond_order
 _atom_site_hse06_10hf_magmom
 _atom_site_hse06_bader_spin_density
 _atom_site_hse06_ddec_charge
 _atom_site_hse06_ddec_spin_density
 _atom_site_hse06_ddec_sum_bond_order
 _atom_site_hse06_magmom
 _atom_site_pbe_bader_charge
 _atom_site_pbe_bader_spin_density
 _atom_site_pbe_cm5_charge
 _atom_site_pbe_ddec_charge
 _atom_site_pbe_ddec_spin_density
 _atom_site_pbe_ddec_sum_bond_order
 _atom_site_pbe_magmom
Hg  Hg0  1  0.73330935  0.49021645  0.56657665  1  0  0.489842  0  2.219071  0  0  0.378568  0  2.703572  0  0  0.414988  0  2.684056  0  0.561665  0  0.406325  0.354027  0  2.716526  0
Hg  Hg1  1  0.22907695  0.51033824  0.43269628  1  0  0.497042  0  2.218613  0  0  0.387633  0  2.701054  0  0  0.424061  0  2.680828  0  0.564215  0  0.411765  0.363068  0  2.714485  0
H  H2  1  0.69240984  0.84118015  0.37812789  1  0  0.071183  0  0.97419  0  0  0.085808  0  1.042047  0  0  0.086171  0  1.042943  0  0.094008  0  0.09998  0.085482  0  1.04151  0
H  H3  1  0.80026379  0.88242582  0.28417225  1  0  0.080132  0  0.908265  0  0  0.100741  0  0.959726  0  0  0.101463  0  0.960229  0  0.067464  0  0.112986  0.100188  0  0.959428  0
H  H4  1  0.94882595  0.85530323  0.46024417  1  0  0.07462  0  0.962413  0  0  0.087533  0  1.037061  0  0  0.088787  0  1.036025  0  0.034155  0  0.085271  0.08656  0  1.037906  0
H  H5  1  0.05238061  0.90388890  0.36627882  1  0  0.078475  0  0.958955  0  0  0.095152  0  1.022954  0  0  0.095905  0  1.023882  0  0.049336  0  0.090456  0.094521  0  1.02243  0
H  H6  1  0.67494826  0.96739509  0.49405078  1  0  0.089381  0  0.959271  0  0  0.103627  0  1.018074  0  0  0.105743  0  1.018245  0  0.060516  0  0.097097  0.102119  0  1.018003  0
H  H7  1  0.56751230  0.15570945  0.50516211  1  0  0.084752  0  0.985655  0  0  0.093112  0  1.051915  0  0  0.094673  0  1.053328  0  0.079372  0  0.092159  0.091959  0  1.05103  0
H  H8  1  0.69849415  0.31389355  0.42314148  1  0  0.077312  0  0.976878  0  0  0.085601  0  1.047492  0  0  0.087795  0  1.046884  0  0.067136  0  0.082151  0.083932  0  1.048094  0
H  H9  1  0.93637058  0.28115059  0.32877502  1  0  0.079248  0  0.98397  0  0  0.089113  0  1.050832  0  0  0.091195  0  1.050625  0  0.081792  0  0.087905  0.087575  0  1.051126  0
H  H10  1  0.03951498  0.09177763  0.31556592  1  0  0.084114  0  0.985748  0  0  0.095706  0  1.047604  0  0  0.098035  0  1.047504  0  0.06565  0  0.092825  0.094009  0  1.047791  0
H  H11  1  0.07754519  0.77493023  0.27082812  1  0  0.081699  0  0.936218  0  0  0.09973  0  0.996927  0  0  0.099801  0  0.997981  0  0.074204  0  0.109288  0.099564  0  0.996322  0
H  H12  1  0.04957808  0.63319955  0.28738907  1  0  0.071876  0  1.013868  0  0  0.083621  0  1.089598  0  0  0.084327  0  1.089141  0  0.121242  0  0.088836  0.082953  0  1.09006  0
H  H13  1  0.11080980  0.77490251  0.11834568  1  0  0.065719  0  0.946136  0  0  0.074295  0  1.011191  0  0  0.076879  0  1.009128  0  0.063865  0  0.104429  0.0724  0  1.012688  0
H  H14  1  0.70736393  0.74344295  0.97330364  1  0  0.064125  0  0.948897  0  0  0.072672  0  1.013574  0  0  0.074871  0  1.012262  0  0.082779  0  0.106606  0.071034  0  1.014596  0
H  H15  1  0.53575934  0.68737215  0.10170323  1  0  0.084079  0  0.982761  0  0  0.0933  0  1.047824  0  0  0.09664  0  1.045797  0  0.052153  0  0.095781  0.090908  0  1.049359  0
H  H16  1  0.66211857  0.67252339  0.24231029  1  0  0.094994  0  0.96406  0  0  0.10144  0  1.035942  0  0  0.103912  0  1.034726  0  0.111425  0  0.097211  0.099589  0  1.036948  0
H  H17  1  0.07919766  0.11677454  0.80418467  1  0  0.07537  0  0.91277  0  0  0.095633  0  0.965469  0  0  0.096128  0  0.966147  0  0.072877  0  0.110472  0.095234  0  0.965033  0
H  H18  1  0.00890739  0.14782804  0.69993430  1  0  0.074994  0  0.970401  0  0  0.090202  0  1.036192  0  0  0.090549  0  1.037398  0  0.088434  0  0.101755  0.089872  0  1.035436  0
H  H19  1  0.79550029  0.08103509  0.85630500  1  0  0.078688  0  0.926593  0  0  0.0982  0  0.982181  0  0  0.0994  0  0.981657  0  0.020176  0  0.09474  0.097251  0  0.982668  0
H  H20  1  0.71632609  0.12950660  0.75507980  1  0  0.081476  0  0.945524  0  0  0.097091  0  1.012427  0  0  0.097938  0  1.012728  0  0.018033  0  0.091988  0.096468  0  1.012229  0
H  H21  1  0.83106144  0.03030336  0.63122843  1  0  0.091412  0  0.962995  0  0  0.100867  0  1.029984  0  0  0.103293  0  1.029994  0  0.077661  0  0.095226  0.099065  0  1.030138  0
H  H22  1  0.86798387  0.84483628  0.58937695  1  0  0.073994  0  0.987987  0  0  0.080909  0  1.061077  0  0  0.083676  0  1.059426  0  0.030801  0  0.088027  0.078886  0  1.062374  0
H  H23  1  0.90851076  0.68284846  0.69743031  1  0  0.082829  0  0.988414  0  0  0.094662  0  1.05418  0  0  0.096951  0  1.05341  0  0.070279  0  0.083582  0.092963  0  1.054862  0
H  H24  1  0.91650279  0.70596267  0.84918003  1  0  0.094432  0  0.97567  0  0  0.098631  0  1.047396  0  0  0.102337  0  1.044731  0  0.094326  0  0.096732  0.095904  0  1.04943  0
H  H25  1  0.87629373  0.89000553  0.89137038  1  0  0.091042  0  0.971471  0  0  0.09678  0  1.040554  0  0  0.100626  0  1.037746  0  0.085042  0  0.093649  0.094022  0  1.042583  0
H  H26  1  0.93279466  0.23698914  0.90887783  1  0  0.07765  0  0.917657  0  0  0.093957  0  0.98102  0  0  0.094799  0  0.97953  0  0.050143  0  0.110767  0.093261  0  0.982182  0
H  H27  1  0.94161084  0.37605518  0.86548313  1  0  0.100629  0  0.957898  0  0  0.110036  0  1.032811  0  0  0.112074  0  1.030264  0  0.154705  0  0.107772  0.108482  0  1.034718  0
H  H28  1  0.15847200  0.22400269  0.00500299  1  0  0.069292  0  0.945922  0  0  0.075568  0  1.012933  0  0  0.078621  0  1.0103  0  0.099595  0  0.106064  0.07336  0  1.014894  0
H  H29  1  0.63512741  0.26694760  0.91930651  1  0  0.060161  0  0.953598  0  0  0.071194  0  1.015308  0  0  0.073438  0  1.013313  0  0.060996  0  0.104743  0.069531  0  1.016841  0
H  H30  1  0.53873844  0.34103407  0.77479812  1  0  0.095052  0  0.974005  0  0  0.099328  0  1.047184  0  0  0.102185  0  1.046607  0  0.069352  0  0.093232  0.097216  0  1.047824  0
H  H31  1  0.23791665  0.35190463  0.74549026  1  0  0.097002  0  0.958743  0  0  0.105246  0  1.027568  0  0  0.107734  0  1.026459  0  0.089161  0  0.097698  0.103402  0  1.028455  0
H  H32  1  0.50416448  0.21166283  0.30544590  1  0  0.07323  0  0.974878  0  0  0.088402  0  1.04152  0  0  0.08881  0  1.042607  0  0.078843  0  0.102371  0.088075  0  1.040748  0
H  H33  1  0.58582515  0.21369800  0.20282628  1  0  0.078279  0  0.909805  0  0  0.098979  0  0.961855  0  0  0.099577  0  0.962329  0  0.0763  0  0.112261  0.098482  0  0.961659  0
H  H34  1  0.31008177  0.19916396  0.14488778  1  0  0.083942  0  0.944572  0  0  0.097888  0  1.013514  0  0  0.099247  0  1.012472  0  0.051388  0  0.09501  0.096854  0  1.01431  0
H  H35  1  0.21745319  0.21462508  0.24375002  1  0  0.08173  0  0.945119  0  0  0.098411  0  1.009762  0  0  0.099179  0  1.010172  0  0.027687  0  0.09222  0.097811  0  1.009533  0
H  H36  1  0.34649965  0.01973938  0.11297631  1  0  0.095977  0  0.94664  0  0  0.10781  0  1.002485  0  0  0.111115  0  1.000904  0  0.074236  0  0.100326  0.105409  0  1.003674  0
H  H37  1  0.38047135  0.81963390  0.15737923  1  0  0.077556  0  0.969262  0  0  0.090949  0  1.027574  0  0  0.093313  0  1.026547  0  0.070745  0  0.094055  0.08918  0  1.028471  0
H  H38  1  0.40117659  0.74542594  0.30971831  1  0  0.084384  0  0.985316  0  0  0.094605  0  1.053109  0  0  0.096821  0  1.052533  0  0.041934  0  0.084129  0.092978  0  1.053616  0
H  H39  1  0.38603132  0.87204448  0.41588572  1  0  0.074875  0  0.989697  0  0  0.081286  0  1.063487  0  0  0.08412  0  1.061674  0  0.074198  0  0.089321  0.079249  0  1.064844  0
H  H40  1  0.35271180  0.07195101  0.37200685  1  0  0.095139  0  0.961793  0  0  0.104333  0  1.02833  0  0  0.106863  0  1.02814  0  0.079235  0  0.098589  0.102523  0  1.028544  0
H  H41  1  0.44940470  0.49122752  0.13333662  1  0  0.075986  0  0.985902  0  0  0.089208  0  1.057439  0  0  0.090439  0  1.056199  0  0.1273  0  0.099575  0.088243  0  1.058373  0
H  H42  1  0.45224879  0.36385475  0.09320629  1  0  0.083608  0  0.936092  0  0  0.094497  0  1.009892  0  0  0.095812  0  1.00853  0  0.075558  0  0.109314  0.093433  0  1.011012  0
H  H43  1  0.68629704  0.36845183  0.00422881  1  0  0.065064  0  0.971171  0  0  0.072195  0  1.0396  0  0  0.074502  0  1.038049  0  0.066083  0  0.104161  0.07052  0  1.040765  0
H  H44  1  0.15278270  0.39463836  0.09273332  1  0  0.062682  0  0.949462  0  0  0.070647  0  1.017472  0  0  0.072687  0  1.016311  0  0.045844  0  0.105218  0.069158  0  1.018368  0
H  H45  1  0.04084983  0.44445606  0.22958545  1  0  0.09239  0  0.986519  0  0  0.095399  0  1.062672  0  0  0.098267  0  1.062158  0  0.083623  0  0.08939  0.093325  0  1.063154  0
H  H46  1  0.73787204  0.44686223  0.25450934  1  0  0.095299  0  0.963188  0  0  0.103126  0  1.03272  0  0  0.105682  0  1.031466  0  0.111525  0  0.09553  0.101247  0  1.033698  0
H  H47  1  0.57435277  0.67949401  0.72369050  1  0  0.084308  0  0.922805  0  0  0.102961  0  0.982218  0  0  0.103114  0  0.982858  0  0.062288  0  0.110017  0.102741  0  0.981903  0
H  H48  1  0.53175132  0.54487991  0.71092018  1  0  0.071147  0  1.019267  0  0  0.082975  0  1.094467  0  0  0.083643  0  1.0942  0  0.129262  0  0.089773  0.082356  0  1.094778  0
H  H49  1  0.14939097  0.58323183  0.76476387  1  0  0.068977  0  0.964664  0  0  0.07184  0  1.042133  0  0  0.074251  0  1.040665  0  0.085358  0  0.099033  0.070107  0  1.043237  0
H  H50  1  0.17266375  0.57256837  0.02182202  1  0  0.063452  0  0.953105  0  0  0.069419  0  1.022621  0  0  0.071767  0  1.021081  0  0.087517  0  0.104252  0.067717  0  1.023757  0
H  H51  1  0.47609523  0.59688770  0.01511441  1  0  0.085059  0  0.998676  0  0  0.097623  0  1.058323  0  0  0.099732  0  1.058737  0  0.051342  0  0.09729  0.096117  0  1.058159  0
H  H52  1  0.61562954  0.62499281  0.87439638  1  0  0.096862  0  0.945257  0  0  0.10873  0  1.006393  0  0  0.111352  0  1.004762  0  0.051829  0  0.105287  0.106813  0  1.007597  0
H  H53  1  0.28714415  0.79537409  0.71682868  1  0  0.082225  0  0.912429  0  0  0.102316  0  0.964462  0  0  0.103005  0  0.965201  0  0.070032  0  0.11378  0.10178  0  0.964004  0
H  H54  1  0.18693746  0.79205226  0.62105521  1  0  0.073272  0  0.971025  0  0  0.089019  0  1.036434  0  0  0.089463  0  1.037249  0  0.086068  0  0.101236  0.08858  0  1.036036  0
H  H55  1  0.54703654  0.84639365  0.63906030  1  0  0.080053  0  0.958154  0  0  0.096172  0  1.022124  0  0  0.09698  0  1.022951  0  0.046721  0  0.091911  0.095569  0  1.021611  0
H  H56  1  0.45095486  0.83609466  0.54312973  1  0  0.071905  0  0.966118  0  0  0.085379  0  1.040179  0  0  0.086629  0  1.039098  0  0.008913  0  0.084236  0.08439  0  1.041112  0
H  H57  1  0.53076534  0.01281115  0.69483914  1  0  0.086018  0  0.980258  0  0  0.09838  0  1.039757  0  0  0.100751  0  1.039661  0  0.084262  0  0.094389  0.096682  0  1.039904  0
H  H58  1  0.43371051  0.20793249  0.68336528  1  0  0.079677  0  0.981946  0  0  0.088985  0  1.049204  0  0  0.091198  0  1.048809  0  0.039939  0  0.089835  0.087358  0  1.049619  0
H  H59  1  0.20787264  0.28093207  0.58517726  1  0  0.077836  0  0.980283  0  0  0.085367  0  1.051823  0  0  0.087558  0  1.051229  0  0.081768  0  0.081538  0.083744  0  1.052371  0
H  H60  1  0.08156258  0.15742336  0.49817564  1  0  0.08421  0  0.98344  0  0  0.093638  0  1.048203  0  0  0.095288  0  1.049365  0  0.059556  0  0.091239  0.092424  0  1.047474  0
H  H61  1  0.18365730  0.96425753  0.50720479  1  0  0.090337  0  0.958213  0  0  0.104249  0  1.01734  0  0  0.106259  0  1.017645  0  0.023027  0  0.097371  0.102811  0  1.017174  0
C  C62  1  0.83270707  0.64478193  0.40220764  1  0  0.232664  0  3.764809  0  0  0.203226  0  4.067661  0  0  0.229146  0  4.076105  0  0.304484  0  0.123907  0.18599  0  4.061115  0
C  C63  1  0.81477544  0.84161148  0.34899406  1  0  0.00412  0  3.618111  0  0  -0.055656  0  3.870783  0  0  -0.051678  0  3.881787  0  0.251334  0  -0.060107  -0.058193  0  3.863222  0
C  C64  1  0.93146243  0.90204534  0.39736168  1  0  -0.177985  0  3.707463  0  0  -0.226396  0  3.959922  0  0  -0.227321  0  3.97116  0  -0.030983  0  -0.164801  -0.225557  0  3.952142  0
C  C65  1  0.86537827  0.01665237  0.40400866  1  0  0.092667  0  3.750616  0  0  0.120471  0  3.977353  0  0  0.12031  0  4.002416  0  -0.002026  0  -0.012764  0.12059  0  3.960244  0
C  C66  1  0.73193403  0.03606153  0.45711572  1  0  -0.123283  0  3.727028  0  0  -0.139606  0  3.964866  0  0  -0.14311  0  3.987386  0  -0.087891  0  -0.095532  -0.137174  0  3.949545  0
C  C67  1  0.67151546  0.14216691  0.46374755  1  0  -0.073542  0  3.786471  0  0  -0.085705  0  4.035977  0  0  -0.086492  0  4.056763  0  -0.024315  0  -0.098692  -0.08507  0  4.021823  0
C  C68  1  0.74498802  0.23085672  0.41768767  1  0  -0.07943  0  3.782587  0  0  -0.092997  0  4.028042  0  0  -0.095448  0  4.049426  0  -0.106901  0  -0.103775  -0.091288  0  4.013574  0
C  C69  1  0.87725666  0.21258664  0.36430014  1  0  -0.072804  0  3.791818  0  0  -0.083882  0  4.037183  0  0  -0.085116  0  4.058513  0  -0.059077  0  -0.100107  -0.082946  0  4.022658  0
C  C70  1  0.93568399  0.10612984  0.35696612  1  0  -0.133952  0  3.753988  0  0  -0.150636  0  3.989918  0  0  -0.153605  0  4.010956  0  -0.081094  0  -0.098832  -0.148524  0  3.975596  0
C  C71  1  0.98454953  0.71376009  0.27406789  1  0  -0.043781  0  3.674655  0  0  -0.112702  0  3.918535  0  0  -0.108043  0  3.930041  0  0.267341  0  -0.061164  -0.11558  0  3.910736  0
C  C72  1  0.89748438  0.72307329  0.19147257  1  0  0.022396  0  3.744522  0  0  0.049526  0  3.978308  0  0  0.044994  0  4.003352  0  -0.058543  0  -0.011355  0.052262  0  3.961453  0
C  C73  1  0.98248465  0.75428089  0.11630557  1  0  0.057882  0  3.740769  0  0  0.029208  0  3.993523  0  0  0.033827  0  4.010342  0  0.534892  0  0.036445  0.026343  0  3.981997  0
C  C74  1  0.75903410  0.73678298  0.03614205  1  0  0.104082  0  3.751851  0  0  0.081206  0  4.003874  0  0  0.085775  0  4.022642  0  0.476157  0  0.036085  0.078317  0  3.991062  0
C  C75  1  0.66367728  0.70567729  0.10714494  1  0  -0.128272  0  3.791201  0  0  -0.139328  0  4.041107  0  0  -0.146023  0  4.064559  0  -0.054886  0  -0.092287  -0.134961  0  4.025273  0
C  C76  1  0.73401167  0.69816852  0.18604729  1  0  -0.061752  0  3.727121  0  0  -0.090766  0  3.978659  0  0  -0.089921  0  4.00021  0  -0.054104  0  -0.077979  -0.091016  0  3.96402  0
C  C77  1  0.88229355  0.34210058  0.71697917  1  0  0.227062  0  3.781572  0  0  0.197931  0  4.084913  0  0  0.223413  0  4.094192  0  0.26801  0  0.12272  0.181021  0  4.077804  0
C  C78  1  0.97393934  0.15153066  0.76565903  1  0  0.003001  0  3.622755  0  0  -0.057008  0  3.875763  0  0  -0.053099  0  3.887352  0  0.262224  0  -0.059915  -0.059452  0  3.867727  0
C  C79  1  0.82222214  0.08574305  0.78873208  1  0  -0.172963  0  3.70946  0  0  -0.221262  0  3.963083  0  0  -0.222353  0  3.975026  0  0.015128  0  -0.160561  -0.220362  0  3.954821  0
C  C80  1  0.84703349  0.97289967  0.76433039  1  0  0.091117  0  3.75651  0  0  0.118507  0  3.983352  0  0  0.118469  0  4.008333  0  -0.067957  0  -0.015248  0.118496  0  3.966386  0
C  C81  1  0.84822169  0.95915084  0.67917548  1  0  -0.126581  0  3.74089  0  0  -0.145097  0  3.98269  0  0  -0.148027  0  4.004375  0  -0.04679  0  -0.095348  -0.142989  0  3.96796  0
C  C82  1  0.86905043  0.85522414  0.65555592  1  0  -0.084541  0  3.819357  0  0  -0.096174  0  4.07128  0  0  -0.097676  0  4.092426  0  -0.057698  0  -0.103884  -0.09502  0  4.056814  0
C  C83  1  0.89071107  0.76376532  0.71655647  1  0  -0.09359  0  3.792668  0  0  -0.108626  0  4.040669  0  0  -0.11137  0  4.063125  0  -0.124881  0  -0.105692  -0.106667  0  4.025331  0
C  C84  1  0.89329223  0.77661887  0.80140498  1  0  -0.07681  0  3.782937  0  0  -0.087921  0  4.030223  0  0  -0.090046  0  4.052683  0  -0.062499  0  -0.100251  -0.086316  0  4.014916  0
C  C85  1  0.87185222  0.88087906  0.82492117  1  0  -0.131823  0  3.749851  0  0  -0.147407  0  3.984628  0  0  -0.150869  0  4.006587  0  -0.020446  0  -0.096352  -0.144966  0  3.969673  0
C  C86  1  0.99177612  0.29307462  0.85994171  1  0  -0.045102  0  3.668575  0  0  -0.118137  0  3.927361  0  0  -0.1131  0  3.937944  0  0.275618  0  -0.054697  -0.121277  0  3.92011  0
C  C87  1  0.17468258  0.28641057  0.87316969  1  0  0.033528  0  3.726746  0  0  0.056505  0  3.965972  0  0  0.052331  0  3.990686  0  -0.026843  0  -0.005858  0.059031  0  3.949337  0
C  C88  1  0.24097156  0.24905667  0.95244897  1  0  0.061439  0  3.735104  0  0  0.033494  0  3.99006  0  0  0.037774  0  4.007267  0  0.463487  0  0.036636  0.030707  0  3.978565  0
C  C89  1  0.50417877  0.27433244  0.90512898  1  0  0.100134  0  3.775048  0  0  0.075435  0  4.032655  0  0  0.080071  0  4.050919  0  0.49102  0  0.029802  0.072508  0  4.02014  0
C  C90  1  0.45104079  0.31418464  0.82421847  1  0  -0.120886  0  3.765094  0  0  -0.128504  0  4.011689  0  0  -0.134948  0  4.03522  0  -0.084326  0  -0.091332  -0.124326  0  3.995856  0
C  C91  1  0.28332847  0.32043937  0.80811451  1  0  -0.060095  0  3.70687  0  0  -0.086569  0  3.952574  0  0  -0.085559  0  3.973342  0  2.3e-05  0  -0.07409  -0.086907  0  3.938425  0
C  C92  1  0.38378555  0.41352405  0.28165271  1  0  0.229647  0  3.782068  0  0  0.201693  0  4.084015  0  0  0.227179  0  4.093073  0  0.247764  0  0.124603  0.184769  0  4.077082  0
C  C93  1  0.47679398  0.23675106  0.23880778  1  0  0.003835  0  3.625064  0  0  -0.056823  0  3.87833  0  0  -0.052901  0  3.889685  0  0.31961  0  -0.059838  -0.059325  0  3.87054  0
C  C94  1  0.32678648  0.18072348  0.21312786  1  0  -0.17831  0  3.707164  0  0  -0.226922  0  3.960549  0  0  -0.227886  0  3.972018  0  -0.042382  0  -0.161259  -0.226045  0  3.952567  0
C  C95  1  0.34635509  0.05937713  0.23923173  1  0  0.097009  0  3.753788  0  0  0.123861  0  3.981848  0  0  0.123899  0  4.006547  0  0.008837  0  -0.012011  0.123795  0  3.96506  0
C  C96  1  0.35437430  0.98717931  0.17953239  1  0  -0.131831  0  3.757677  0  0  -0.148048  0  3.990572  0  0  -0.151456  0  4.012737  0  -0.083624  0  -0.095727  -0.145631  0  3.97545  0
C  C97  1  0.37346673  0.87473522  0.20459220  1  0  -0.07406  0  3.811212  0  0  -0.085259  0  4.057987  0  0  -0.087194  0  4.080918  0  -0.078184  0  -0.098469  -0.083813  0  4.042337  0
C  C98  1  0.38544125  0.83309980  0.28961719  1  0  -0.090193  0  3.788343  0  0  -0.105161  0  4.037122  0  0  -0.107768  0  4.059251  0  -0.024295  0  -0.104312  -0.103324  0  4.02207  0
C  C99  1  0.37793340  0.90465372  0.34947737  1  0  -0.076414  0  3.814339  0  0  -0.088655  0  4.066602  0  0  -0.090009  0  4.087369  0  -0.089785  0  -0.098837  -0.087631  0  4.052457  0
C  C100  1  0.35905903  0.01687008  0.32459359  1  0  -0.127456  0  3.731542  0  0  -0.146331  0  3.974243  0  0  -0.149199  0  3.995596  0  -0.083537  0  -0.094397  -0.144325  0  3.959763  0
C  C101  1  0.50391079  0.40730519  0.14095890  1  0  -0.046527  0  3.673293  0  0  -0.116113  0  3.92515  0  0  -0.11125  0  3.936034  0  0.234005  0  -0.057224  -0.119162  0  3.91778  0
C  C102  1  0.68791922  0.40652488  0.13091175  1  0  0.017925  0  3.750907  0  0  0.041853  0  3.988614  0  0  0.037064  0  4.013993  0  -0.002658  0  -0.014384  0.044798  0  3.971508  0
C  C103  1  0.76274589  0.38393332  0.05589656  1  0  0.055579  0  3.739004  0  0  0.029375  0  3.987355  0  0  0.033906  0  4.004818  0  0.485093  0  0.035951  0.026571  0  3.975428  0
C  C104  1  0.02059194  0.39987469  0.10483008  1  0  0.104266  0  3.755878  0  0  0.080931  0  4.011221  0  0  0.085759  0  4.029655  0  0.509518  0  0.035788  0.077861  0  3.998661  0
C  C105  1  0.95872513  0.42615908  0.18129272  1  0  -0.126362  0  3.763323  0  0  -0.134422  0  4.009902  0  0  -0.140994  0  4.032932  0  -0.068091  0  -0.093575  -0.130157  0  3.994459  0
C  C106  1  0.78959112  0.42835406  0.19477988  1  0  -0.058218  0  3.714708  0  0  -0.083848  0  3.960225  0  0  -0.082677  0  3.981025  0  -0.035555  0  -0.075058  -0.084313  0  3.946106  0
C  C107  1  0.32815502  0.60457586  0.59498689  1  0  0.238514  0  3.754585  0  0  0.209015  0  4.057876  0  0  0.234823  0  4.066649  0  0.306597  0  0.126617  0.19185  0  4.05111  0
C  C108  1  0.47475511  0.62334005  0.72372622  1  0  -0.045528  0  3.680107  0  0  -0.113026  0  3.923061  0  0  -0.108371  0  3.934636  0  0.271752  0  -0.062391  -0.115912  0  3.915218  0
C  C109  1  0.39190220  0.60931400  0.80830863  1  0  0.022835  0  3.750843  0  0  0.048895  0  3.985217  0  0  0.044581  0  4.009904  0  -0.04411  0  -0.011777  0.051564  0  3.968489  0
C  C110  1  0.22547441  0.58909355  0.81905465  1  0  0.066502  0  3.715326  0  0  0.035209  0  3.973904  0  0  0.039296  0  3.992324  0  0.494694  0  0.036955  0.032283  0  3.962087  0
C  C111  1  0.23861263  0.58078489  0.96187639  1  0  0.111998  0  3.75207  0  0  0.084912  0  4.013325  0  0  0.090171  0  4.030831  0  0.48563  0  0.036938  0.081601  0  4.0013  0
C  C112  1  0.40681479  0.59628596  0.95811381  1  0  -0.136134  0  3.791455  0  0  -0.144844  0  4.033003  0  0  -0.151738  0  4.057174  0  -0.057364  0  -0.097771  -0.140339  0  4.016601  0
C  C113  1  0.48456621  0.61168429  0.88012655  1  0  -0.07464  0  3.739233  0  0  -0.098359  0  3.979139  0  0  -0.097409  0  3.999765  0  0.003316  0  -0.078176  -0.098567  0  3.96496  0
C  C114  1  0.30677261  0.77998881  0.65170411  1  0  0.001208  0  3.619673  0  0  -0.058681  0  3.870583  0  0  -0.054971  0  3.882108  0  0.271696  0  -0.0601  -0.060957  0  3.862624  0
C  C115  1  0.42873825  0.85799315  0.60646367  1  0  -0.178055  0  3.707908  0  0  -0.225142  0  3.959058  0  0  -0.226192  0  3.970615  0  -0.020851  0  -0.164517  -0.224293  0  3.951129  0
C  C116  1  0.36548887  0.97538819  0.60135571  1  0  0.09389  0  3.747466  0  0  0.120578  0  3.975182  0  0  0.120542  0  4.000139  0  -0.047876  0  -0.014425  0.120622  0  3.958187  0
C  C117  1  0.43229331  0.04483413  0.65167731  1  0  -0.129539  0  3.746592  0  0  -0.14603  0  3.982091  0  0  -0.148985  0  4.003142  0  -0.092262  0  -0.095584  -0.143952  0  3.967739  0
C  C118  1  0.37733473  0.15447579  0.64530611  1  0  -0.074513  0  3.793856  0  0  -0.085331  0  4.039756  0  0  -0.086549  0  4.060793  0  -0.008584  0  -0.100474  -0.084405  0  4.025419  0
C  C119  1  0.25169741  0.19551517  0.58984934  1  0  -0.081923  0  3.784783  0  0  -0.094865  0  4.030466  0  0  -0.097208  0  4.051582  0  -0.107195  0  -0.103285  -0.093259  0  4.016162  0
C  C120  1  0.18120719  0.12638290  0.54079383  1  0  -0.072011  0  3.787852  0  0  -0.084626  0  4.03708  0  0  -0.085502  0  4.057959  0  0.01964  0  -0.098105  -0.083926  0  4.022871  0
C  C121  1  0.23838845  0.01738866  0.54632845  1  0  -0.126951  0  3.728093  0  0  -0.142868  0  3.966425  0  0  -0.146308  0  3.989017  0  -0.054947  0  -0.096963  -0.140464  0  3.951035  0
S  S122  1  0.70958137  0.67515460  0.48586142  1  0  -0.254739  0  2.173619  0  0  -0.226161  0  2.540983  0  0  -0.244602  0  2.538357  0  -0.12767  0  -0.127172  -0.21384  0  2.542524  0
S  S123  1  0.89574336  0.51258052  0.39373150  1  0  -0.368918  0  2.161179  0  0  -0.336435  0  2.52376  0  0  -0.355739  0  2.517211  0  -0.17848  0  -0.174943  -0.322902  0  2.527691  0
S  S124  1  0.85439137  0.47582103  0.73068537  1  0  -0.372979  0  2.048434  0  0  -0.348698  0  2.385486  0  0  -0.366874  0  2.38052  0  -0.170728  0  -0.174117  -0.336049  0  2.388438  0
S  S125  1  0.82532433  0.29930652  0.62354845  1  0  -0.266766  0  2.138902  0  0  -0.229193  0  2.489337  0  0  -0.248634  0  2.488611  0  -0.128085  0  -0.123399  -0.216094  0  2.489479  0
S  S126  1  0.31849143  0.34085958  0.37555769  1  0  -0.254528  0  2.15541  0  0  -0.216012  0  2.506705  0  0  -0.235253  0  2.505596  0  -0.12137  0  -0.116606  -0.203099  0  2.507205  0
S  S127  1  0.35889514  0.55234711  0.26397263  1  0  -0.404026  0  2.021587  0  0  -0.379173  0  2.354572  0  0  -0.397054  0  2.349461  0  -0.188067  0  -0.188065  -0.36665  0  2.357626  0
S  S128  1  0.20811910  0.66722835  0.51180551  1  0  -0.254965  0  2.169804  0  0  -0.226421  0  2.536848  0  0  -0.245186  0  2.534569  0  -0.121681  0  -0.12688  -0.213847  0  2.538124  0
S  S129  1  0.39523511  0.47023328  0.60014258  1  0  -0.368298  0  2.152824  0  0  -0.33616  0  2.512898  0  0  -0.355608  0  2.506562  0  -0.178855  0  -0.175769  -0.322534  0  2.51668  0
N  N130  1  0.87431782  0.72850286  0.34463095  1  0  -0.117768  0  3.422911  0  0  -0.018239  0  3.642342  0  0  -0.036149  0  3.664801  0  -1.151629  0  -0.259578  -0.006432  0  3.626965  0
N  N131  1  0.91670587  0.76108193  0.03994956  1  0  -0.301008  0  3.081328  0  0  -0.266301  0  3.347788  0  0  -0.276102  0  3.362121  0  -1.190655  0  -0.324469  -0.259554  0  3.337828  0
N  N132  1  0.94787561  0.26635319  0.77753134  1  0  -0.131042  0  3.425462  0  0  -0.03191  0  3.647631  0  0  -0.050498  0  3.670713  0  -1.155555  0  -0.262907  -0.019581  0  3.631745  0
N  N133  1  0.40203002  0.24305063  0.96925171  1  0  -0.334628  0  3.104031  0  0  -0.300331  0  3.37735  0  0  -0.310441  0  3.39163  0  -1.20206  0  -0.338369  -0.293338  0  3.367454  0
N  N134  1  0.45339679  0.35571977  0.22398652  1  0  -0.123675  0  3.429928  0  0  -0.026065  0  3.652262  0  0  -0.044607  0  3.675469  0  -1.174151  0  -0.263403  -0.013767  0  3.636327  0
N  N135  1  0.92534140  0.37916991  0.04248851  1  0  -0.302444  0  3.103459  0  0  -0.265073  0  3.372264  0  0  -0.27601  0  3.388444  0  -1.210102  0  -0.320898  -0.257549  0  3.361107  0
N  N136  1  0.36465484  0.66519562  0.65452691  1  0  -0.117395  0  3.42301  0  0  -0.019064  0  3.643528  0  0  -0.036988  0  3.666305  0  -1.161993  0  -0.258297  -0.007213  0  3.627858  0
N  N137  1  0.14876202  0.57589591  0.89379202  1  0  -0.292358  0  3.082015  0  0  -0.257609  0  3.356207  0  0  -0.267639  0  3.370925  0  -1.179167  0  -0.318466  -0.250614  0  3.346001  0
