# generated using pymatgen
data_CaCu6H48C36S6(N2O7)3
_symmetry_space_group_name_H-M   'P 1'
_cell_length_a   12.52188063
_cell_length_b   17.12023577
_cell_length_c   17.10488516
_cell_angle_alpha   120.01423260
_cell_angle_beta   90.00074118
_cell_angle_gamma   89.99964269
_symmetry_Int_Tables_number   1
_chemical_formula_structural   CaCu6H48C36S6(N2O7)3
_chemical_formula_sum   'Ca2 Cu12 H96 C72 S12 N12 O42'
_cell_volume   3175.17591680
_cell_formula_units_Z   2
loop_
 _symmetry_equiv_pos_site_id
 _symmetry_equiv_pos_as_xyz
  1  'x, y, z'
loop_
 _atom_site_type_symbol
 _atom_site_label
 _atom_site_symmetry_multiplicity
 _atom_site_fract_x
 _atom_site_fract_y
 _atom_site_fract_z
 _atom_site_occupancy
 _atom_site_pbe_bader_charge
 _atom_site_pbe_bader_spin_density
 _atom_site_pbe_cm5_charge
 _atom_site_pbe_ddec_charge
 _atom_site_pbe_ddec_spin_density
 _atom_site_pbe_ddec_sum_bond_order
 _atom_site_pbe_magmom
Ca  Ca0  1  0.86912156  0.33338783  0.66645448  1  1.630153  -2e-06  0.759527  1.423034  6e-06  1.526134  0.0
Ca  Ca1  1  0.36912529  0.66660706  0.33355862  1  1.630084  -1e-06  0.759543  1.423219  8e-06  1.525711  0.0
Cu  Cu2  1  0.74903614  0.44236660  0.57778304  1  1.117571  0.002216  0.796271  0.888038  0.003472  2.594854  0.002
Cu  Cu3  1  0.99853063  0.44229800  0.57976127  1  1.119477  0.001801  0.80654  0.920285  0.0029  2.526769  0.002
Cu  Cu4  1  0.74933110  0.13517230  0.55697793  1  1.118838  -0.059387  0.798976  0.890203  -0.085914  2.59754  -0.059
Cu  Cu5  1  0.99874091  0.13737592  0.55729764  1  1.123308  -0.072127  0.809543  0.923558  -0.104877  2.528344  -0.071
Cu  Cu6  1  0.74914177  0.42215178  0.86461225  1  1.122674  0.05769  0.798537  0.889702  0.083027  2.597191  0.057
Cu  Cu7  1  0.99848131  0.41981399  0.86263331  1  1.127704  0.070339  0.809683  0.923712  0.101845  2.527576  0.069
Cu  Cu8  1  0.24905908  0.55763000  0.42224008  1  1.117224  0.002258  0.796304  0.888041  0.003531  2.594933  0.002
Cu  Cu9  1  0.49852399  0.55770422  0.42026444  1  1.119436  0.001749  0.806618  0.920421  0.002825  2.526753  0.002
Cu  Cu10  1  0.24931676  0.86482567  0.44302159  1  1.119306  -0.059514  0.7989  0.89027  -0.086091  2.597366  -0.059
Cu  Cu11  1  0.49873378  0.86264653  0.44276046  1  1.123336  -0.071875  0.809514  0.923806  -0.104517  2.528112  -0.071
Cu  Cu12  1  0.24915071  0.57784719  0.13539096  1  1.122444  0.057688  0.798473  0.889523  0.083025  2.596993  0.057
Cu  Cu13  1  0.49850623  0.58020548  0.13737862  1  1.127952  0.070432  0.809869  0.923992  0.101988  2.527367  0.07
H  H14  1  0.48744189  0.51378169  0.68307610  1  0.087186  -4.7e-05  0.123322  0.099448  -2.6e-05  0.939037  0.0
H  H15  1  0.74478833  0.54438462  0.34809841  1  0.091545  -0.0  0.12672  0.10134  -2e-06  0.9184  0.0
H  H16  1  0.54241162  0.66685841  0.70402689  1  0.075914  2.7e-05  0.101919  0.11598  1.8e-05  0.971991  0.0
H  H17  1  0.52459092  0.66145116  0.80404915  1  0.054271  0.0  0.100387  0.104617  2e-06  0.974828  0.0
H  H18  1  0.71711493  0.65355319  0.82425109  1  0.064024  -3.7e-05  0.10169  0.11747  -1.9e-05  0.977882  0.0
H  H19  1  0.68460418  0.75139168  0.81715180  1  0.037783  -0.000124  0.083595  0.082769  -7.3e-05  1.03905  0.0
H  H20  1  0.97446354  0.63964001  0.71426522  1  0.072786  -7e-06  0.090646  0.131915  -7e-06  1.041115  0.0
H  H21  1  0.90048098  0.60592434  0.78175913  1  0.095654  -0.000144  0.102262  0.15998  -3.9e-05  0.989809  0.0
H  H22  1  0.91267385  0.72338639  0.81579968  1  0.050843  -2.7e-05  0.085903  0.131969  -2e-05  1.019898  0.0
H  H23  1  0.82983802  0.41090571  0.30484994  1  0.058997  2.4e-05  0.099428  0.105814  1.3e-05  0.99561  0.0
H  H24  1  0.78366278  0.40114776  0.20218031  1  0.075903  6.2e-05  0.09648  0.102474  6e-05  0.999274  0.0
H  H25  1  0.64806527  0.31983859  0.29216211  1  0.059566  -9e-06  0.094358  0.1031  -6e-06  0.996758  0.0
H  H26  1  0.77137561  0.26724719  0.24454978  1  0.04385  2.1e-05  0.096406  0.10341  1.1e-05  0.969293  0.0
H  H27  1  0.56846907  0.10744038  0.06616842  1  0.07201  1e-06  0.092782  0.138481  -0.0  1.00314  0.0
H  H28  1  0.54352712  0.17047248  0.18496433  1  0.064578  3.9e-05  0.090379  0.134771  2e-05  1.002896  0.0
H  H29  1  0.67133045  0.11883835  0.14349866  1  0.05768  -1.5e-05  0.088759  0.129711  -1.3e-05  1.012405  0.0
H  H30  1  0.48712451  0.16854181  0.48599970  1  0.07791  -0.00022  0.123748  0.10012  -0.000131  0.939516  0.0
H  H31  1  0.74497669  0.80372908  0.45560369  1  0.092015  6.5e-05  0.126924  0.101481  4.6e-05  0.918138  0.0
H  H32  1  0.54270481  0.03691974  0.33273069  1  0.074992  -6.8e-05  0.101737  0.115462  -3.6e-05  0.971736  0.0
H  H33  1  0.52492275  0.14243963  0.33843876  1  0.037647  -0.000139  0.100775  0.10496  -7e-05  0.974364  0.0
H  H34  1  0.71747686  0.17063727  0.34683917  1  0.035709  -0.000351  0.102145  0.117529  -0.000177  0.97707  0.0
H  H35  1  0.68518255  0.06575282  0.24874026  1  0.040579  -0.001097  0.083846  0.082759  -0.000646  1.038337  -0.001
H  H36  1  0.97482129  0.07391234  0.35961016  1  0.069842  2.5e-05  0.090782  0.131558  4.3e-05  1.041257  0.0
H  H37  1  0.90106389  0.17526738  0.39365618  1  0.106207  -0.00061  0.10252  0.1599  -0.000308  0.990316  -0.001
H  H38  1  0.91240414  0.09165289  0.27605466  1  0.022721  -0.000806  0.086269  0.132126  -0.000456  1.019279  -0.001
H  H39  1  0.83022268  0.89447278  0.58913202  1  0.054908  -1.2e-05  0.099399  0.105846  -1e-06  0.9958  0.0
H  H40  1  0.78455589  0.80159164  0.59905243  1  0.082214  -0.000262  0.097023  0.10328  -0.000153  0.997547  0.0
H  H41  1  0.64921921  0.97315117  0.68049046  1  0.068052  2e-06  0.094481  0.103448  -2e-06  0.996654  0.0
H  H42  1  0.77213090  0.97733710  0.73326301  1  0.047266  1.9e-05  0.096304  0.103596  1.4e-05  0.968714  0.0
H  H43  1  0.56768944  0.95939773  0.89233031  1  0.049927  1e-06  0.092615  0.138453  0.0  1.001939  0.0
H  H44  1  0.54387842  0.01541827  0.82941083  1  0.042979  1e-06  0.09075  0.135147  -1e-06  1.002402  0.0
H  H45  1  0.67132296  0.02489505  0.88130460  1  0.074919  1.7e-05  0.088872  0.12972  1.3e-05  1.012761  0.0
H  H46  1  0.48703750  0.31744424  0.83113615  1  0.069955  0.00026  0.123444  0.099712  0.000154  0.939419  0.0
H  H47  1  0.74446392  0.65202848  0.19652416  1  0.091356  -6.3e-05  0.127029  0.101721  -4.3e-05  0.917957  0.0
H  H48  1  0.54272687  0.29599881  0.96286910  1  0.075949  4.2e-05  0.101807  0.115769  1.9e-05  0.971518  0.0
H  H49  1  0.52545977  0.19613965  0.85714783  1  0.054586  0.000129  0.100707  0.104803  6.3e-05  0.974562  0.0
H  H50  1  0.71826930  0.17739348  0.82920096  1  0.076097  0.0004  0.10207  0.117636  0.000207  0.976963  0.0
H  H51  1  0.68595157  0.18353570  0.93380759  1  0.055732  0.001181  0.084032  0.083094  0.000699  1.038488  0.001
H  H52  1  0.97481666  0.28763934  0.92937599  1  0.069643  -1.7e-05  0.090883  0.132721  -3.5e-05  1.039698  0.0
H  H53  1  0.90286998  0.21906986  0.82721886  1  0.075676  0.00075  0.102087  0.159119  0.000344  0.990885  0.001
H  H54  1  0.91218814  0.18660271  0.91199923  1  0.044016  0.000814  0.086107  0.132115  0.00047  1.019172  0.001
H  H55  1  0.83008907  0.69465864  0.10584412  1  0.063232  -1e-05  0.099492  0.106003  -1.2e-05  0.995005  0.0
H  H56  1  0.78463144  0.79743105  0.19890492  1  0.071574  0.000204  0.096909  0.102998  9.5e-05  0.997998  0.0
H  H57  1  0.65047871  0.70715726  0.02634948  1  0.069921  7e-06  0.094667  0.104309  8e-06  0.996347  0.0
H  H58  1  0.77297447  0.75722502  0.02387005  1  0.039669  -4.1e-05  0.09642  0.103566  -2.5e-05  0.968732  0.0
H  H59  1  0.56688106  0.93272682  0.04124325  1  0.041117  -3e-06  0.092943  0.138595  -0.0  1.002129  0.0
H  H60  1  0.54452420  0.81366338  0.98409178  1  0.041861  -4.2e-05  0.090794  0.13498  -2e-05  1.003878  0.0
H  H61  1  0.67176123  0.85742702  0.97633981  1  0.056233  -2e-06  0.08888  0.129844  -0.0  1.012062  0.0
H  H62  1  0.98746830  0.48623749  0.31696175  1  0.08726  -4.6e-05  0.123411  0.099526  -2.6e-05  0.938973  0.0
H  H63  1  0.24479459  0.45562124  0.65193529  1  0.09158  -1e-06  0.126682  0.101225  -2e-06  0.918415  0.0
H  H64  1  0.04242379  0.33315069  0.29599463  1  0.07573  2.7e-05  0.10193  0.116017  1.8e-05  0.971796  0.0
H  H65  1  0.02459969  0.33856814  0.19597835  1  0.054644  0.0  0.100366  0.104581  3e-06  0.974801  0.0
H  H66  1  0.21713046  0.34646706  0.17577378  1  0.063725  -3.7e-05  0.101696  0.117467  -1.9e-05  0.977835  0.0
H  H67  1  0.18460625  0.24862319  0.18285592  1  0.038148  -0.000124  0.083616  0.082832  -7.3e-05  1.039137  0.0
H  H68  1  0.47446971  0.36034724  0.28575069  1  0.073267  -7e-06  0.090852  0.132197  -7e-06  1.041284  0.0
H  H69  1  0.40048888  0.39406743  0.21825857  1  0.096069  -0.000143  0.102136  0.15978  -3.9e-05  0.989847  0.0
H  H70  1  0.41267892  0.27659960  0.18421573  1  0.050958  -2.7e-05  0.0859  0.131924  -1.9e-05  1.019784  0.0
H  H71  1  0.32985114  0.58909658  0.69517761  1  0.058891  2.3e-05  0.099429  0.105779  1.3e-05  0.995654  0.0
H  H72  1  0.28366965  0.59885608  0.79785578  1  0.075405  6.2e-05  0.096383  0.10237  6.1e-05  0.999469  0.0
H  H73  1  0.14807148  0.68015793  0.70786132  1  0.059904  -9e-06  0.094478  0.103343  -6e-06  0.996854  0.0
H  H74  1  0.27138383  0.73275559  0.75547906  1  0.04408  2.1e-05  0.096299  0.103382  1.1e-05  0.969183  0.0
H  H75  1  0.06846076  0.89256549  0.93382851  1  0.071959  1e-06  0.092773  0.138528  -0.0  1.003331  0.0
H  H76  1  0.04352442  0.82952563  0.81504012  1  0.064715  3.9e-05  0.090395  0.134845  2.1e-05  1.002826  0.0
H  H77  1  0.17131848  0.88116212  0.85650464  1  0.057709  -1.6e-05  0.088772  0.129801  -1.3e-05  1.01234  0.0
H  H78  1  0.98709967  0.83152890  0.51408365  1  0.07784  -0.000221  0.123796  0.100164  -0.000132  0.939952  0.0
H  H79  1  0.24501032  0.19629685  0.54440757  1  0.091481  6.5e-05  0.126876  0.101445  4.6e-05  0.918127  0.0
H  H80  1  0.04281022  0.96310874  0.66730886  1  0.073976  -6.8e-05  0.101798  0.115635  -3.6e-05  0.971797  0.0
H  H81  1  0.02506886  0.85758509  0.66161374  1  0.038629  -0.000138  0.100863  0.105318  -6.9e-05  0.973925  0.0
H  H82  1  0.21766297  0.82937665  0.65301537  1  0.035122  -0.000355  0.102403  0.117852  -0.000179  0.977025  0.0
H  H83  1  0.18541346  0.93420066  0.75118038  1  0.041858  -0.001099  0.084263  0.083363  -0.000647  1.037959  -0.001
H  H84  1  0.47490018  0.92647466  0.64052361  1  0.067682  2.5e-05  0.090657  0.131448  4.3e-05  1.041375  0.0
H  H85  1  0.40133866  0.82502483  0.60651569  1  0.108589  -0.000612  0.102635  0.159566  -0.00031  0.990456  -0.001
H  H86  1  0.41244711  0.90874000  0.72407496  1  0.022946  -0.000809  0.086121  0.132173  -0.000458  1.018986  -0.001
H  H87  1  0.33021157  0.10557550  0.41085179  1  0.056038  -1.2e-05  0.099216  0.105399  -1e-06  0.995481  0.0
H  H88  1  0.28445281  0.19842865  0.40092858  1  0.081563  -0.000262  0.096902  0.103013  -0.000154  0.998342  0.0
H  H89  1  0.14900508  0.02696176  0.31960355  1  0.068449  2e-06  0.094489  0.103459  -2e-06  0.996259  0.0
H  H90  1  0.27196939  0.02256045  0.26679754  1  0.046379  2e-05  0.096268  0.103572  1.4e-05  0.96854  0.0
H  H91  1  0.06777255  0.04048100  0.10759272  1  0.042855  1e-06  0.09279  0.138558  0.0  1.002401  0.0
H  H92  1  0.04377127  0.98462340  0.17064125  1  0.045891  1e-06  0.090741  0.135297  -1e-06  1.002325  0.0
H  H93  1  0.17125250  0.97494683  0.11873238  1  0.067999  1.8e-05  0.089069  0.130037  1.4e-05  1.012067  0.0
H  H94  1  0.98705411  0.68260405  0.16888425  1  0.069589  0.000261  0.123396  0.099747  0.000154  0.939296  0.0
H  H95  1  0.24444099  0.34796298  0.80350524  1  0.091827  -6.3e-05  0.127044  0.101805  -4.3e-05  0.918053  0.0
H  H96  1  0.04268194  0.70395658  0.03708922  1  0.076199  4.2e-05  0.101874  0.115704  1.9e-05  0.971658  0.0
H  H97  1  0.02556922  0.80388010  0.14282074  1  0.055412  0.000129  0.100576  0.10467  6.3e-05  0.974531  0.0
H  H98  1  0.21843259  0.82242207  0.17062182  1  0.077164  0.000402  0.101957  0.11756  0.000208  0.976277  0.0
H  H99  1  0.18603720  0.81634330  0.06606013  1  0.056535  0.001183  0.083889  0.082881  0.0007  1.038766  0.001
H  H100  1  0.47477864  0.71196264  0.07017410  1  0.05521  -1.7e-05  0.090676  0.13237  -3.5e-05  1.039294  0.0
H  H101  1  0.40299292  0.78060546  0.17241270  1  0.081636  0.000749  0.102016  0.158933  0.000345  0.991382  0.001
H  H102  1  0.41223586  0.81306562  0.08762069  1  0.04507  0.000814  0.085981  0.132177  0.00047  1.019292  0.001
H  H103  1  0.33004412  0.30532208  0.89418750  1  0.063444  -1e-05  0.099578  0.10623  -1.2e-05  0.994851  0.0
H  H104  1  0.28453458  0.20253693  0.80112499  1  0.07041  0.000204  0.096845  0.103177  9.4e-05  0.997863  0.0
H  H105  1  0.15026996  0.29281739  0.97361631  1  0.07797  7e-06  0.094743  0.104135  8e-06  0.99602  0.0
H  H106  1  0.27282605  0.24291054  0.97626331  1  0.040325  -4.1e-05  0.096268  0.103495  -2.4e-05  0.96869  0.0
H  H107  1  0.06695978  0.06723523  0.95883265  1  0.048669  -3e-06  0.092837  0.138446  -0.0  1.001853  0.0
H  H108  1  0.04440485  0.18630250  0.01586424  1  0.0411  -4.2e-05  0.090844  0.134924  -2e-05  1.003448  0.0
H  H109  1  0.17169908  0.14272755  0.02381567  1  0.058291  -2e-06  0.088688  0.129713  -0.0  1.011745  0.0
C  C110  1  0.63566856  0.49299598  0.73419085  1  1.561012  -0.000128  0.222348  0.579072  -7.4e-05  4.101206  0.0
C  C111  1  0.57121760  0.53557745  0.68822959  1  0.377085  -2.9e-05  0.014319  0.024705  -2.8e-05  3.88194  0.0
C  C112  1  0.66041646  0.47749205  0.45705059  1  1.393994  -6.2e-05  0.223331  0.365908  -2.6e-05  4.182811  0.0
C  C113  1  0.58132983  0.51115239  0.53337222  1  1.383371  5.1e-05  0.219757  0.358159  6.6e-05  4.180448  0.0
C  C114  1  0.61093484  0.51099631  0.26435318  1  1.558249  -9.5e-05  0.223019  0.569551  -5.8e-05  4.09743  0.0
C  C115  1  0.68886939  0.48638187  0.31841280  1  0.34632  1.6e-05  0.016139  0.036062  1e-05  3.871674  0.0
C  C116  1  0.57643095  0.63957114  0.74470288  1  -0.043928  -4.8e-05  -0.155589  -0.176616  -3.4e-05  3.898982  0.0
C  C117  1  0.68812757  0.67720660  0.77891996  1  -0.101791  -1.7e-05  -0.153303  -0.178873  -1.4e-05  3.905414  0.0
C  C118  1  0.90447837  0.65484150  0.75809821  1  -0.182592  0.000123  -0.236682  -0.42551  7.7e-05  3.9738  0.0
C  C119  1  0.75823104  0.40174916  0.26412419  1  -0.032736  -0.000114  -0.158668  -0.178609  -8e-05  3.88347  0.0
C  C120  1  0.70887362  0.31101129  0.24188493  1  -0.094749  1e-06  -0.149195  -0.158725  -3e-06  3.900199  0.0
C  C121  1  0.60408472  0.15334217  0.13219632  1  -0.209771  2.4e-05  -0.234221  -0.405561  1.5e-05  3.975517  0.0
C  C122  1  0.63501433  0.24099891  0.50728376  1  1.571012  5.2e-05  0.223354  0.578902  -0.000133  4.102225  0.0
C  C123  1  0.57099677  0.15228010  0.46436438  1  0.309366  -0.000219  0.01407  0.023637  -0.000182  3.883644  0.0
C  C124  1  0.66078554  0.97953624  0.52239096  1  1.394869  -0.002058  0.223811  0.366659  -0.001991  4.181723  -0.002
C  C125  1  0.58149515  0.02205937  0.48889479  1  1.386526  -0.000707  0.220552  0.358518  -0.000936  4.178815  0.0
C  C126  1  0.61122812  0.75379735  0.48946398  1  1.553894  0.000529  0.222943  0.568487  0.000155  4.096781  0.001
C  C127  1  0.68926980  0.83226233  0.51379561  1  0.331245  4.6e-05  0.016387  0.037126  7.8e-05  3.87211  0.0
C  C128  1  0.57662060  0.10494219  0.36032302  1  0.022609  -0.000279  -0.154651  -0.175231  -0.000208  3.897354  0.0
C  C129  1  0.68848847  0.10164528  0.32299580  1  -0.073984  -0.000146  -0.153123  -0.178169  -0.00013  3.904474  0.0
C  C130  1  0.90474850  0.10265675  0.34472899  1  -0.162099  -0.000163  -0.236506  -0.424191  -0.00018  3.973626  0.0
C  C131  1  0.75881669  0.86279248  0.59840893  1  -0.011102  -0.00021  -0.158357  -0.17896  -0.000195  3.883043  0.0
C  C132  1  0.70947797  0.93129461  0.68923567  1  -0.11602  -2.4e-05  -0.149449  -0.160291  -2e-05  3.900965  0.0
C  C133  1  0.60387921  0.97943951  0.84656930  1  -0.184503  6e-06  -0.234019  -0.40568  3e-06  3.974  0.0
C  C134  1  0.63503641  0.26647497  0.75863747  1  1.568874  7.6e-05  0.222792  0.578227  0.000206  4.104338  0.0
C  C135  1  0.57095477  0.31229863  0.84743011  1  0.370118  0.000238  0.014533  0.0245  0.000206  3.881086  0.0
C  C136  1  0.66053533  0.54310479  0.02043694  1  1.400103  0.002109  0.223499  0.366224  0.002024  4.183755  0.002
C  C137  1  0.58127004  0.46707723  0.97776457  1  1.39885  0.000659  0.220455  0.358794  0.000889  4.179079  0.0
C  C138  1  0.61077723  0.73586126  0.24638028  1  1.567615  -0.000427  0.223258  0.569343  -9.3e-05  4.097094  0.0
C  C139  1  0.68893994  0.68172384  0.16792651  1  0.32015  -6.3e-05  0.016427  0.036697  -8.8e-05  3.871258  0.0
C  C140  1  0.57683473  0.25570391  0.89483529  1  -0.031492  0.000307  -0.154799  -0.176087  0.000224  3.897466  0.0
C  C141  1  0.68890512  0.22214479  0.89822274  1  -0.123972  0.000166  -0.15315  -0.178088  0.000137  3.904892  0.0
C  C142  1  0.90510261  0.24368632  0.90010153  1  -0.150366  4.8e-05  -0.236407  -0.426216  0.000107  3.977223  0.0
C  C143  1  0.75876603  0.73572573  0.13755740  1  -0.010705  0.00032  -0.158405  -0.178499  0.000273  3.884653  0.0
C  C144  1  0.70983099  0.75821047  0.06909418  1  -0.106497  2.4e-05  -0.149326  -0.161224  2.3e-05  3.903092  0.0
C  C145  1  0.60377417  0.86717923  0.02100257  1  -0.153561  -2.5e-05  -0.234324  -0.405945  -1.6e-05  3.97483  0.0
C  C146  1  0.13569555  0.50702528  0.26584978  1  1.560926  -0.000127  0.222569  0.579241  -7.4e-05  4.101232  0.0
C  C147  1  0.07122977  0.46443622  0.31180284  1  0.376975  -2.9e-05  0.014175  0.024849  -2.8e-05  3.881466  0.0
C  C148  1  0.16042903  0.52250932  0.54297510  1  1.39306  -6.1e-05  0.223306  0.36599  -2.5e-05  4.18243  0.0
C  C149  1  0.08134054  0.48885114  0.46665758  1  1.38345  5.1e-05  0.219825  0.35813  6.6e-05  4.179751  0.0
C  C150  1  0.11093910  0.48899988  0.73567023  1  1.560311  -9.5e-05  0.223218  0.570086  -5.8e-05  4.096788  0.0
C  C151  1  0.18887730  0.51362190  0.68161895  1  0.344639  1.6e-05  0.016064  0.036064  9e-06  3.871378  0.0
C  C152  1  0.07643898  0.36044172  0.25532338  1  -0.04375  -4.8e-05  -0.155479  -0.176647  -3.4e-05  3.898325  0.0
C  C153  1  0.18813851  0.32280630  0.22109796  1  -0.102033  -1.7e-05  -0.153288  -0.178856  -1.4e-05  3.905537  0.0
C  C154  1  0.40449268  0.34514380  0.24192250  1  -0.183519  0.000123  -0.236797  -0.425461  7.7e-05  3.973756  0.0
C  C155  1  0.25824161  0.59825696  0.73591055  1  -0.032558  -0.000114  -0.158589  -0.178475  -8e-05  3.883655  0.0
C  C156  1  0.20887505  0.68898765  0.75814015  1  -0.094942  1e-06  -0.149191  -0.159057  -3e-06  3.900557  0.0
C  C157  1  0.10408201  0.84666037  0.86781247  1  -0.210008  2.5e-05  -0.234298  -0.405864  1.6e-05  3.975528  0.0
C  C158  1  0.13496660  0.75899188  0.49267509  1  1.569137  5.1e-05  0.223406  0.579222  -0.000134  4.101648  0.0
C  C159  1  0.07098741  0.84773419  0.53564167  1  0.310835  -0.00022  0.014035  0.023182  -0.000183  3.883809  0.0
C  C160  1  0.16076991  0.02050201  0.47763992  1  1.395764  -0.002059  0.223784  0.366135  -0.001993  4.182734  -0.002
C  C161  1  0.08149147  0.97795827  0.51113024  1  1.385512  -0.000707  0.220599  0.358733  -0.000939  4.178187  0.0
C  C162  1  0.11120963  0.24623810  0.51059264  1  1.553986  0.000528  0.223208  0.568692  0.000153  4.096634  0.001
C  C163  1  0.18927868  0.16777223  0.48623455  1  0.331694  4.6e-05  0.016478  0.036896  7.8e-05  3.870945  0.0
C  C164  1  0.07670612  0.89508208  0.63968363  1  0.02192  -0.000277  -0.154879  -0.175608  -0.000207  3.897502  0.0
C  C165  1  0.18861455  0.89835775  0.67692788  1  -0.074018  -0.000147  -0.153652  -0.179147  -0.000131  3.905174  0.0
C  C166  1  0.40485584  0.89766607  0.65537364  1  -0.163807  -0.000166  -0.236405  -0.423909  -0.000181  3.973185  0.0
C  C167  1  0.25875964  0.13725392  0.40160067  1  -0.012798  -0.000211  -0.158109  -0.177939  -0.000196  3.882699  0.0
C  C168  1  0.20937277  0.06870533  0.31079310  1  -0.114018  -2.3e-05  -0.149375  -0.16046  -2e-05  3.900626  0.0
C  C169  1  0.10384350  0.02048336  0.15341984  1  -0.170936  6e-06  -0.234449  -0.406331  3e-06  3.974225  0.0
C  C170  1  0.13508108  0.73355445  0.24132830  1  1.569957  7.6e-05  0.222922  0.578204  0.000206  4.103385  0.0
C  C171  1  0.07096232  0.68771838  0.15255099  1  0.370556  0.000238  0.014652  0.024693  0.000207  3.88101  0.0
C  C172  1  0.16050981  0.45689557  0.97958977  1  1.376408  0.002108  0.223552  0.366448  0.002022  4.183827  0.002
C  C173  1  0.08124940  0.53291997  0.02225754  1  1.434925  0.000651  0.220247  0.358086  0.000885  4.179626  0.0
C  C174  1  0.11074292  0.26414133  0.75363671  1  1.565365  -0.000426  0.223328  0.569656  -9.3e-05  4.096746  0.0
C  C175  1  0.18890897  0.31826985  0.83209312  1  0.321951  -6.3e-05  0.01625  0.036382  -8.8e-05  3.87211  0.0
C  C176  1  0.07684817  0.74426247  0.10510533  1  -0.032033  0.000307  -0.154732  -0.175722  0.000224  3.897382  0.0
C  C177  1  0.18896215  0.77770799  0.10162215  1  -0.125482  0.000166  -0.152944  -0.178071  0.000137  3.904577  0.0
C  C178  1  0.40512145  0.75599369  0.09953002  1  -0.142744  4.9e-05  -0.236172  -0.425953  0.000107  3.97704  0.0
C  C179  1  0.25870568  0.26426272  0.86247048  1  -0.010781  0.000319  -0.158329  -0.178911  0.000273  3.884855  0.0
C  C180  1  0.20973689  0.24181156  0.93094522  1  -0.114011  2.4e-05  -0.149224  -0.160762  2.3e-05  3.902659  0.0
C  C181  1  0.10375847  0.13282670  0.97903323  1  -0.162934  -2.5e-05  -0.233965  -0.405483  -1.6e-05  3.974777  0.0
S  S182  1  0.78901433  0.64544658  0.69098459  1  0.019939  -0.003183  -0.01589  0.013105  -0.002255  2.739779  -0.002
S  S183  1  0.64931872  0.25234860  0.12997877  1  -0.007535  0.000625  -0.044806  -0.010831  0.000478  2.66957  0.0
S  S184  1  0.78922624  0.04541210  0.35470478  1  0.020386  -0.024294  -0.015128  0.013034  -0.017074  2.74307  -0.016
S  S185  1  0.64889435  0.87808603  0.74747241  1  -0.002952  0.000174  -0.044041  -0.009129  0.000123  2.667569  0.0
S  S186  1  0.78875369  0.31070394  0.95530167  1  0.009654  0.026944  -0.014041  0.015384  0.018927  2.745547  0.018
S  S187  1  0.64769977  0.86903793  0.12247692  1  -0.005675  -0.000806  -0.043543  -0.007822  -0.000604  2.6669  0.0
S  S188  1  0.28902096  0.35454706  0.30902784  1  0.019947  -0.003169  -0.015973  0.01292  -0.002245  2.739928  -0.002
S  S189  1  0.14932164  0.74765890  0.87004419  1  -0.0076  0.000626  -0.04474  -0.010655  0.000479  2.669688  0.0
S  S190  1  0.28923870  0.95467951  0.64521535  1  0.021322  -0.024372  -0.015038  0.013238  -0.01713  2.743485  -0.016
S  S191  1  0.14897695  0.12185089  0.25243874  1  -0.005657  0.000177  -0.044124  -0.009184  0.000126  2.668381  0.0
S  S192  1  0.28868026  0.68906019  0.04445278  1  0.008012  0.026985  -0.0138  0.015881  0.018953  2.745915  0.018
S  S193  1  0.14777334  0.13091661  0.87759089  1  -0.005471  -0.000804  -0.043726  -0.00817  -0.000602  2.668335  0.0
N  N194  1  0.61694651  0.50226108  0.60001498  1  -1.198929  0.000164  -0.407393  -0.385642  0.000125  3.69293  0.0
N  N195  1  0.62711891  0.49042460  0.39175789  1  -1.19569  0.000131  -0.411602  -0.420151  0.000107  3.641831  0.0
N  N196  1  0.61702073  0.09744070  0.49751766  1  -1.185918  -0.005705  -0.406668  -0.383475  -0.004299  3.691219  -0.005
N  N197  1  0.62748803  0.90148008  0.50980662  1  -1.19715  -0.005077  -0.411528  -0.420359  -0.003708  3.640044  -0.004
N  N198  1  0.61683299  0.40035760  0.90226497  1  -1.200742  0.005537  -0.406924  -0.383843  0.00415  3.691216  0.004
N  N199  1  0.62715658  0.60854541  0.09854702  1  -1.192037  0.005026  -0.411011  -0.419457  0.00364  3.640221  0.004
N  N200  1  0.11695757  0.49773610  0.40001218  1  -1.199428  0.00017  -0.407312  -0.385743  0.000129  3.69249  0.0
N  N201  1  0.12712955  0.50958062  0.60827066  1  -1.195223  0.000136  -0.41128  -0.419877  0.00011  3.641216  0.0
N  N202  1  0.11700634  0.90256952  0.50248004  1  -1.18563  -0.005709  -0.406909  -0.383547  -0.004302  3.69109  -0.005
N  N203  1  0.12750873  0.09854071  0.49024495  1  -1.198564  -0.005103  -0.411423  -0.419645  -0.003726  3.640739  -0.004
N  N204  1  0.11679956  0.59963476  0.09775062  1  -1.200984  0.00555  -0.406684  -0.383359  0.00416  3.690966  0.004
N  N205  1  0.12712463  0.39144846  0.90146950  1  -1.191781  0.005013  -0.410947  -0.419382  0.003631  3.639702  0.004
O  O206  1  0.87336900  0.38248681  0.56153745  1  -0.934469  -0.003916  -0.616936  -0.857086  -0.002726  2.052463  -0.003
O  O207  1  0.72030102  0.44613402  0.69025270  1  -1.074625  0.002886  -0.322857  -0.545302  0.002099  2.389381  0.003
O  O208  1  0.74945758  0.44446028  0.46328868  1  -1.040982  0.0004  -0.276363  -0.408496  0.000293  2.299842  0.0
O  O209  1  0.61025685  0.50546468  0.80932929  1  -1.136553  -0.000111  -0.293021  -0.496854  -8.4e-05  2.12377  0.0
O  O210  1  0.52175834  0.55068898  0.30640103  1  -1.069382  0.00297  -0.318571  -0.545675  0.002137  2.389162  0.003
O  O211  1  0.49406240  0.54864643  0.52967353  1  -1.042534  0.000211  -0.287729  -0.423773  0.000161  2.28745  0.0
O  O212  1  0.63369598  0.49985269  0.18919887  1  -1.137748  -0.001224  -0.284226  -0.494336  -0.000884  2.163083  -0.001
O  O213  1  0.87350289  0.17895822  0.61691112  1  -0.928774  -0.068613  -0.612578  -0.851076  -0.048599  2.04831  -0.056
O  O214  1  0.72020481  0.24381132  0.55362798  1  -1.070027  -0.011143  -0.322042  -0.544181  -0.007987  2.388371  -0.01
O  O215  1  0.74995925  0.01874562  0.55502386  1  -1.044451  8.9e-05  -0.276174  -0.408499  9.4e-05  2.300091  0.001
O  O216  1  0.60896756  0.30391238  0.49556077  1  -1.130468  -0.003039  -0.291968  -0.493954  -0.002162  2.122181  -0.002
O  O217  1  0.52181547  0.75619367  0.44995883  1  -1.065982  -0.020165  -0.316855  -0.543176  -0.014517  2.386138  -0.019
O  O218  1  0.49404718  0.98091916  0.45176453  1  -1.039087  -0.002766  -0.287903  -0.423737  -0.002  2.288038  -0.002
O  O219  1  0.63388881  0.68988782  0.50062631  1  -1.130304  -0.004363  -0.282004  -0.490621  -0.003144  2.162767  -0.004
O  O220  1  0.87353637  0.43833768  0.82100972  1  -0.928488  0.072356  -0.611456  -0.849832  0.051121  2.046831  0.059
O  O221  1  0.72013444  0.31000245  0.75585467  1  -1.074033  0.0084  -0.32237  -0.544351  0.005977  2.388852  0.008
O  O222  1  0.74981635  0.53653395  0.98134138  1  -1.046267  -0.000394  -0.275727  -0.408119  -0.000321  2.30035  -0.001
O  O223  1  0.60902888  0.19179056  0.69568565  1  -1.141537  0.003148  -0.292315  -0.494752  0.002243  2.122821  0.003
O  O224  1  0.52135152  0.69400763  0.24384506  1  -1.071186  0.017187  -0.316841  -0.543264  0.012346  2.386592  0.016
O  O225  1  0.49382024  0.47105588  0.01889771  1  -1.039003  0.002622  -0.287406  -0.423479  0.001876  2.287758  0.002
O  O226  1  0.63342265  0.81092249  0.31046978  1  -1.139802  0.00547  -0.283509  -0.49308  0.003943  2.163551  0.005
O  O227  1  0.37337817  0.61752891  0.43848641  1  -0.933972  -0.003917  -0.616984  -0.857113  -0.002727  2.052497  -0.004
O  O228  1  0.22033479  0.55385863  0.30977294  1  -1.075622  0.002891  -0.323063  -0.545345  0.002102  2.389834  0.003
O  O229  1  0.24946579  0.55555275  0.53673670  1  -1.040981  0.000401  -0.276436  -0.408562  0.000294  2.299801  0.0
O  O230  1  0.11028102  0.49455434  0.19070751  1  -1.135552  -0.000107  -0.293126  -0.497085  -8.1e-05  2.123719  0.0
O  O231  1  0.02176698  0.44931055  0.69362286  1  -1.069413  0.002984  -0.318562  -0.545735  0.002147  2.389261  0.003
O  O232  1  0.99406624  0.45135930  0.47035565  1  -1.041961  0.000216  -0.287875  -0.423756  0.000165  2.286962  0.0
O  O233  1  0.13369588  0.50013897  0.81082226  1  -1.137764  -0.001215  -0.284417  -0.494723  -0.000878  2.162823  -0.001
O  O234  1  0.37350223  0.82103340  0.38312168  1  -0.928903  -0.06866  -0.612562  -0.85107  -0.048633  2.047972  -0.056
O  O235  1  0.22014430  0.75616314  0.44632344  1  -1.069512  -0.011154  -0.322011  -0.544141  -0.007994  2.38802  -0.01
O  O236  1  0.24995838  0.98127330  0.44498043  1  -1.044384  0.000106  -0.276391  -0.408794  0.000106  2.298772  0.001
O  O237  1  0.10887183  0.69607836  0.50438968  1  -1.129822  -0.003047  -0.292129  -0.494235  -0.002168  2.121869  -0.002
O  O238  1  0.02183045  0.24383618  0.55010957  1  -1.066445  -0.020214  -0.317013  -0.543179  -0.014552  2.386872  -0.019
O  O239  1  0.99405512  0.01911351  0.54829498  1  -1.038906  -0.002804  -0.287728  -0.423617  -0.002026  2.287602  -0.002
O  O240  1  0.13386003  0.31014369  0.49942862  1  -1.129983  -0.004382  -0.282231  -0.490865  -0.003158  2.163008  -0.004
O  O241  1  0.37355340  0.56168569  0.17899479  1  -0.928332  0.072384  -0.611487  -0.849951  0.051139  2.04687  0.059
O  O242  1  0.22016834  0.69002840  0.24412685  1  -1.075136  0.0084  -0.322255  -0.544354  0.005978  2.388914  0.008
O  O243  1  0.24978184  0.46345503  0.01867885  1  -1.045948  -0.000403  -0.275756  -0.408095  -0.000326  2.300851  -0.001
O  O244  1  0.10912676  0.80827928  0.30427916  1  -1.141345  0.003158  -0.292562  -0.494932  0.00225  2.121924  0.003
O  O245  1  0.02132569  0.30600795  0.75617328  1  -1.070353  0.017161  -0.316911  -0.5434  0.012327  2.386428  0.016
O  O246  1  0.99379730  0.52896295  0.98112770  1  -1.051204  0.002607  -0.287347  -0.423212  0.001864  2.287555  0.002
O  O247  1  0.13337744  0.18907873  0.68955348  1  -1.140237  0.005465  -0.283346  -0.492892  0.00394  2.163862  0.005
