# generated using pymatgen
data_ZnH34C31(NO)4
_symmetry_space_group_name_H-M   'P 1'
_cell_length_a   8.77078064
_cell_length_b   14.53865095
_cell_length_c   24.66090039
_cell_angle_alpha   90.00001454
_cell_angle_beta   89.99980505
_cell_angle_gamma   89.99981857
_symmetry_Int_Tables_number   1
_chemical_formula_structural   ZnH34C31(NO)4
_chemical_formula_sum   'Zn4 H136 C124 N16 O16'
_cell_volume   3144.64256231
_cell_formula_units_Z   4
loop_
 _symmetry_equiv_pos_site_id
 _symmetry_equiv_pos_as_xyz
  1  'x, y, z'
loop_
 _atom_site_type_symbol
 _atom_site_label
 _atom_site_symmetry_multiplicity
 _atom_site_fract_x
 _atom_site_fract_y
 _atom_site_fract_z
 _atom_site_occupancy
 _atom_site_pbe_bader_charge
 _atom_site_pbe_bader_spin_density
 _atom_site_pbe_cm5_charge
 _atom_site_pbe_ddec_charge
 _atom_site_pbe_ddec_spin_density
 _atom_site_pbe_ddec_sum_bond_order
 _atom_site_pbe_magmom
Zn  Zn0  1  0.46830183  0.75000057  0.96141520  1  1.248981  0  0.694656  0.759838  0  2.451746  0
Zn  Zn1  1  0.53169642  0.25000000  0.03858588  1  1.248993  0  0.694658  0.759849  0  2.451651  0
Zn  Zn2  1  0.46830401  0.25000292  0.53858469  1  1.248997  0  0.694646  0.759832  0  2.451781  0
Zn  Zn3  1  0.53169538  0.75000109  0.46141638  1  1.249006  0  0.694669  0.759839  0  2.451754  0
H  H4  1  0.16449492  0.74999586  0.09321026  1  0.10334  0  0.101863  0.111564  0  1.01017  0
H  H5  1  0.83550219  0.24999852  0.90679122  1  0.103291  0  0.101871  0.111569  0  1.010125  0
H  H6  1  0.16449588  0.24999905  0.40679001  1  0.103339  0  0.101869  0.111532  0  1.010173  0
H  H7  1  0.83550579  0.74999945  0.59321065  1  0.103369  0  0.10185  0.111518  0  1.010189  0
H  H8  1  0.58786503  0.74999341  0.18024738  1  0.07914  0  0.096023  0.091587  0  1.068594  0
H  H9  1  0.41213208  0.25000097  0.81975329  1  0.079128  0  0.095994  0.091618  0  1.068596  0
H  H10  1  0.58786568  0.25000276  0.31975238  1  0.079113  0  0.09601  0.091624  0  1.068579  0
H  H11  1  0.41213257  0.75000262  0.68024829  1  0.079087  0  0.096017  0.091662  0  1.068541  0
H  H12  1  0.44989513  0.74999562  0.26944250  1  0.121129  0  0.099965  0.116214  0  1.03431  0
H  H13  1  0.55010426  0.25000082  0.73055817  1  0.121051  0  0.099952  0.116199  0  1.03433  0
H  H14  1  0.44989663  0.25000012  0.23055743  1  0.121038  0  0.099927  0.116163  0  1.034347  0
H  H15  1  0.55010162  0.75000320  0.76944324  1  0.120993  0  0.099939  0.116192  0  1.034309  0
H  H16  1  0.24600184  0.74999996  0.34935536  1  0.070366  0  0.102083  0.112856  0  1.00971  0
H  H17  1  0.75399071  0.25000198  0.65064693  1  0.070423  0  0.102082  0.112898  0  1.009631  0
H  H18  1  0.24601094  0.24999892  0.15064563  1  0.070363  0  0.102089  0.112847  0  1.009771  0
H  H19  1  0.75399073  0.75000371  0.84935383  1  0.070422  0  0.102077  0.112833  0  1.009673  0
H  H20  1  0.01166097  0.75000295  0.40764778  1  0.054676  0  0.09887  0.102258  0  1.012879  0
H  H21  1  0.98832931  0.25000243  0.59235249  1  0.054709  0  0.098914  0.102304  0  1.012807  0
H  H22  1  0.01167062  0.24999844  0.09235187  1  0.054663  0  0.098928  0.102341  0  1.012739  0
H  H23  1  0.98832536  0.75000075  0.90764799  1  0.05468  0  0.098938  0.102336  0  1.012798  0
H  H24  1  0.72398477  0.75000017  0.26697608  1  0.105628  0  0.104561  0.110257  0  1.02365  0
H  H25  1  0.27601120  0.24999902  0.73302297  1  0.105706  0  0.104547  0.110188  0  1.023739  0
H  H26  1  0.72398966  0.24999779  0.23302392  1  0.105704  0  0.104551  0.110211  0  1.023712  0
H  H27  1  0.27601315  0.75000140  0.76697756  1  0.105725  0  0.104542  0.11019  0  1.023755  0
H  H28  1  0.77791336  0.66448598  0.17546722  1  0.007855  0  0.090204  0.089533  0  1.005776  0
H  H29  1  0.22208648  0.16448565  0.82453384  1  0.007917  0  0.090207  0.089558  0  1.00576  0
H  H30  1  0.77791579  0.33551395  0.32453190  1  0.007901  0  0.090224  0.089554  0  1.005758  0
H  H31  1  0.22208771  0.83551280  0.67546634  1  0.00786  0  0.090205  0.089528  0  1.005738  0
H  H32  1  0.22208489  0.33551184  0.82453223  1  0.007923  0  0.09021  0.089562  0  1.005769  0
H  H33  1  0.77791519  0.83551423  0.17546682  1  0.007879  0  0.09022  0.089561  0  1.005733  0
H  H34  1  0.22208588  0.66448799  0.67546836  1  0.007878  0  0.090211  0.089537  0  1.005775  0
H  H35  1  0.77791624  0.16448708  0.32453230  1  0.007893  0  0.090225  0.089568  0  1.005773  0
H  H36  1  0.90472672  0.66850410  0.12068609  1  0.011008  0  0.086765  0.083709  0  0.998654  0
H  H37  1  0.09527538  0.16850335  0.87931497  1  0.010953  0  0.086816  0.083771  0  0.99864  0
H  H38  1  0.90472409  0.33149627  0.37931328  1  0.011023  0  0.086783  0.083741  0  0.998658  0
H  H39  1  0.09527487  0.83149466  0.62068578  1  0.011051  0  0.086783  0.083719  0  0.998657  0
H  H40  1  0.09527609  0.33149440  0.87931417  1  0.010991  0  0.086783  0.083753  0  0.998683  0
H  H41  1  0.90472972  0.83149446  0.12068610  1  0.011049  0  0.086781  0.083722  0  0.998665  0
H  H42  1  0.09527416  0.66850567  0.62068698  1  0.011035  0  0.086782  0.08375  0  0.998677  0
H  H43  1  0.90472566  0.16850453  0.37931327  1  0.011014  0  0.086773  0.083743  0  0.998676  0
H  H44  1  0.08687481  0.56601052  0.16939770  1  0.024802  0  0.080153  0.065234  0  1.008769  0
H  H45  1  0.91312668  0.06601024  0.83060335  1  0.024821  0  0.080171  0.065254  0  1.008733  0
H  H46  1  0.08687553  0.43399005  0.33060105  1  0.024803  0  0.080151  0.065219  0  1.008764  0
H  H47  1  0.91312974  0.93399239  0.66939803  1  0.024944  0  0.08017  0.065266  0  1.008729  0
H  H48  1  0.91312458  0.43399005  0.83060216  1  0.024888  0  0.080149  0.065232  0  1.008782  0
H  H49  1  0.08687727  0.93398826  0.16939773  1  0.024765  0  0.080148  0.065216  0  1.008832  0
H  H50  1  0.91312614  0.56601052  0.66939881  1  0.02482  0  0.08016  0.06525  0  1.008756  0
H  H51  1  0.08687764  0.06601093  0.33060143  1  0.02477  0  0.080154  0.065241  0  1.00881  0
H  H52  1  0.97551150  0.57147648  0.22851057  1  0.008594  0  0.087257  0.080006  0  1.009647  0
H  H53  1  0.02449225  0.07147582  0.77149048  1  0.008664  0  0.087253  0.079993  0  1.009678  0
H  H54  1  0.97550939  0.42852513  0.27148953  1  0.008245  0  0.087225  0.079943  0  1.009733  0
H  H55  1  0.02449591  0.92852645  0.72850955  1  0.008281  0  0.087275  0.080019  0  1.009706  0
H  H56  1  0.02449246  0.42852339  0.77149010  1  0.008648  0  0.08724  0.079985  0  1.009647  0
H  H57  1  0.97551170  0.92852337  0.22851019  1  0.008606  0  0.087212  0.07995  0  1.009665  0
H  H58  1  0.02449001  0.57147681  0.72851114  1  0.008219  0  0.087258  0.080012  0  1.009672  0
H  H59  1  0.97551260  0.07147687  0.27148909  1  0.00822  0  0.087236  0.079983  0  1.009658  0
H  H60  1  0.92795535  0.42444637  0.17792282  1  0.0474  0  0.080682  0.109148  0  1.06135  0
H  H61  1  0.07204655  0.92444558  0.82207828  1  0.047425  0  0.080682  0.109166  0  1.061373  0
H  H62  1  0.92795313  0.57555464  0.32207774  1  0.047408  0  0.080676  0.109154  0  1.061363  0
H  H63  1  0.07204946  0.07555454  0.67792087  1  0.047446  0  0.08069  0.109222  0  1.061291  0
H  H64  1  0.07204860  0.57555351  0.82207785  1  0.047439  0  0.080696  0.109208  0  1.061325  0
H  H65  1  0.92795626  0.07555293  0.17792198  1  0.047433  0  0.080702  0.109193  0  1.061358  0
H  H66  1  0.07204626  0.42444730  0.67792414  1  0.04741  0  0.080674  0.109171  0  1.061326  0
H  H67  1  0.92795564  0.92444740  0.32207696  1  0.047419  0  0.080697  0.10918  0  1.061324  0
H  H68  1  0.86851035  0.48726105  0.12042293  1  -0.014918  0  0.075608  0.095812  0  1.046287  0
H  H69  1  0.13149122  0.98726016  0.87957818  1  -0.014965  0  0.07566  0.095949  0  1.046327  0
H  H70  1  0.86850905  0.51273802  0.37957770  1  -0.014937  0  0.07565  0.095892  0  1.046323  0
H  H71  1  0.13149386  0.01273984  0.62042171  1  -0.014994  0  0.075656  0.095941  0  1.046365  0
H  H72  1  0.13149246  0.51273883  0.87957774  1  -0.014959  0  0.075665  0.095957  0  1.046327  0
H  H73  1  0.86851273  0.01273834  0.12042249  1  -0.014944  0  0.075628  0.095882  0  1.046312  0
H  H74  1  0.13149148  0.48725980  0.62042418  1  -0.01488  0  0.075625  0.09587  0  1.04629  0
H  H75  1  0.86851009  0.98726141  0.37957693  1  -0.014919  0  0.075614  0.095822  0  1.046286  0
H  H76  1  0.75899073  0.49143280  0.18076386  1  0.050533  0  0.083365  0.112503  0  0.99577  0
H  H77  1  0.24101196  0.99143168  0.81923725  1  0.050514  0  0.083336  0.112484  0  0.995809  0
H  H78  1  0.75898888  0.50856647  0.31923650  1  0.050522  0  0.083326  0.11246  0  0.995855  0
H  H79  1  0.24101519  0.00856880  0.68076170  1  0.050431  0  0.08338  0.112543  0  0.995741  0
H  H80  1  0.24101094  0.50856501  0.81923640  1  0.050514  0  0.083382  0.112526  0  0.995747  0
H  H81  1  0.75899199  0.00856613  0.18076301  1  0.050571  0  0.083358  0.112494  0  0.995794  0
H  H82  1  0.24101165  0.49143203  0.68076457  1  0.050492  0  0.083377  0.112524  0  0.9957  0
H  H83  1  0.75899104  0.99143452  0.31923532  1  0.050533  0  0.083393  0.112539  0  0.995754  0
H  H84  1  0.69396117  0.06303564  0.89502003  1  0.144095  0  0.124619  0.127661  0  1.021665  0
H  H85  1  0.30603236  0.56303615  0.10497778  1  0.144684  0  0.124611  0.127686  0  1.021729  0
H  H86  1  0.69395342  0.93696604  0.60498202  1  0.144018  0  0.124636  0.127697  0  1.021592  0
H  H87  1  0.30603929  0.43696674  0.39501908  1  0.143978  0  0.124663  0.127715  0  1.02168  0
H  H88  1  0.30603480  0.93696355  0.10497943  1  0.144958  0  0.124607  0.12765  0  1.021728  0
H  H89  1  0.69396133  0.43696510  0.89501965  1  0.144092  0  0.124622  0.127696  0  1.021665  0
H  H90  1  0.30603343  0.06303453  0.39501986  1  0.14498  0  0.124613  0.127684  0  1.021701  0
H  H91  1  0.69396466  0.56303657  0.60498078  1  0.145512  0  0.124672  0.127756  0  1.021757  0
H  H92  1  0.53340669  0.90234337  0.86811200  1  0.142194  0  0.123532  0.12654  0  1.007989  0
H  H93  1  0.46659305  0.40234571  0.13188544  1  0.142297  0  0.123579  0.126607  0  1.007906  0
H  H94  1  0.53339396  0.09766137  0.63188659  1  0.142192  0  0.123552  0.126567  0  1.00788  0
H  H95  1  0.46659939  0.59765894  0.36811325  1  0.14225  0  0.123587  0.126578  0  1.008054  0
H  H96  1  0.46659612  0.09765513  0.13188664  1  0.142253  0  0.123593  0.126639  0  1.007921  0
H  H97  1  0.53340178  0.59765691  0.86811320  1  0.142179  0  0.12358  0.126584  0  1.008036  0
H  H98  1  0.46658947  0.90234126  0.36811205  1  0.142211  0  0.12355  0.126556  0  1.007974  0
H  H99  1  0.53340456  0.40234576  0.63188742  1  0.142189  0  0.123574  0.126579  0  1.008054  0
H  H100  1  0.66884677  0.88649290  0.03189914  1  0.172488  0  0.13719  0.113084  0  1.019888  0
H  H101  1  0.33114620  0.38649311  0.96809871  1  0.172509  0  0.137202  0.113162  0  1.019864  0
H  H102  1  0.66885584  0.11350518  0.46810052  1  0.172376  0  0.137215  0.113178  0  1.019846  0
H  H103  1  0.33115339  0.61350514  0.53189973  1  0.17256  0  0.137185  0.113139  0  1.019817  0
H  H104  1  0.33115148  0.11350492  0.96809990  1  0.172559  0  0.137187  0.113146  0  1.019846  0
H  H105  1  0.66884863  0.61350608  0.03189953  1  0.172549  0  0.137177  0.113104  0  1.019855  0
H  H106  1  0.33115153  0.88649539  0.53190015  1  0.172563  0  0.137192  0.113143  0  1.019853  0
H  H107  1  0.66885627  0.38649474  0.46810175  1  0.172369  0  0.137196  0.113109  0  1.019849  0
H  H108  1  0.77243716  0.04979275  0.04627157  1  0.052292  0  0.112105  0.09111  0  0.996026  0
H  H109  1  0.22755643  0.54979446  0.95372623  1  0.052236  0  0.112123  0.09112  0  0.996092  0
H  H110  1  0.77244541  0.95020581  0.45372959  1  0.051862  0  0.112098  0.091118  0  0.995948  0
H  H111  1  0.22756205  0.45020742  0.54627152  1  0.052294  0  0.112114  0.091136  0  0.996024  0
H  H112  1  0.22755539  0.95020644  0.95372748  1  0.051777  0  0.112099  0.091125  0  0.99601  0
H  H113  1  0.77244182  0.45020748  0.04627160  1  0.051795  0  0.112126  0.091141  0  0.996013  0
H  H114  1  0.22756082  0.04979475  0.54627230  1  0.052286  0  0.112118  0.091141  0  0.996113  0
H  H115  1  0.77244304  0.54979177  0.45372834  1  0.051787  0  0.112125  0.091151  0  0.996013  0
H  H116  1  0.76193738  0.12932028  0.99217824  1  0.112551  0  0.113415  0.108046  0  1.016939  0
H  H117  1  0.23805466  0.62932157  0.00781957  1  0.112567  0  0.11338  0.108062  0  1.016986  0
H  H118  1  0.76194345  0.87067782  0.50782250  1  0.112713  0  0.113388  0.108039  0  1.016966  0
H  H119  1  0.23806444  0.37068007  0.49217818  1  0.112553  0  0.113395  0.108046  0  1.016945  0
H  H120  1  0.23805859  0.87067822  0.00782080  1  0.112515  0  0.113393  0.108062  0  1.016986  0
H  H121  1  0.76193675  0.37067899  0.99217867  1  0.112547  0  0.113409  0.108033  0  1.016993  0
H  H122  1  0.23806165  0.12932137  0.49217857  1  0.112524  0  0.113397  0.108039  0  1.016996  0
H  H123  1  0.76194408  0.62932256  0.50782005  1  0.112544  0  0.113383  0.108069  0  1.016965  0
H  H124  1  0.99429906  0.06302642  0.94984509  1  0.034871  0  0.09435  0.089877  0  0.998293  0
H  H125  1  0.00569333  0.56302817  0.05015271  1  0.0349  0  0.094372  0.089854  0  0.998378  0
H  H126  1  0.99430665  0.93697056  0.55015578  1  0.034781  0  0.094378  0.089884  0  0.99834  0
H  H127  1  0.00570430  0.43697117  0.44984411  1  0.034826  0  0.094376  0.089879  0  0.998306  0
H  H128  1  0.00569692  0.93697002  0.05015598  1  0.034808  0  0.094374  0.089885  0  0.998321  0
H  H129  1  0.99429808  0.43696964  0.94984309  1  0.034774  0  0.094383  0.08992  0  0.998199  0
H  H130  1  0.00570186  0.06302863  0.44984570  1  0.034883  0  0.094362  0.089872  0  0.998343  0
H  H131  1  0.99430763  0.56303008  0.55015413  1  0.034847  0  0.094377  0.089881  0  0.998317  0
H  H132  1  0.02851593  0.10073560  0.01681527  1  0.061261  0  0.099521  0.100826  0  0.979648  0
H  H133  1  0.97147626  0.60073590  0.98318172  1  0.061189  0  0.099505  0.100809  0  0.979728  0
H  H134  1  0.02852074  0.89926302  0.48318517  1  0.061266  0  0.099486  0.100752  0  0.97964  0
H  H135  1  0.97148357  0.39926387  0.51681512  1  0.06126  0  0.09951  0.100809  0  0.979647  0
H  H136  1  0.97147890  0.89926153  0.98318540  1  0.061243  0  0.099479  0.100753  0  0.979648  0
H  H137  1  0.02851857  0.39926261  0.01681408  1  0.06129  0  0.099482  0.100787  0  0.979617  0
H  H138  1  0.97147979  0.10073686  0.51681591  1  0.061247  0  0.099498  0.100794  0  0.979628  0
H  H139  1  0.02852267  0.60073738  0.48318271  1  0.061185  0  0.099502  0.100803  0  0.979744  0
C  C140  1  0.22472199  0.74999512  0.13190670  1  -0.031758  0  -0.09411  -0.161553  0  3.989376  0
C  C141  1  0.77527626  0.24999788  0.86809397  1  -0.031672  0  -0.094076  -0.16146  0  3.989185  0
C  C142  1  0.22472217  0.24999968  0.36809309  1  -0.031728  0  -0.094096  -0.161469  0  3.989317  0
C  C143  1  0.77527722  0.75000158  0.63190758  1  -0.031687  0  -0.094084  -0.161516  0  3.989337  0
C  C144  1  0.38511136  0.74999428  0.13204326  1  -0.083797  0  -0.03044  -0.05392  0  4.02081  0
C  C145  1  0.61488461  0.24999872  0.86795741  1  -0.083456  0  -0.030412  -0.053993  0  4.020832  0
C  C146  1  0.38511269  0.24999883  0.36795634  1  -0.083449  0  -0.030409  -0.053942  0  4.020771  0
C  C147  1  0.61488556  0.75000173  0.63204433  1  -0.083795  0  -0.030374  -0.053825  0  4.02072  0
C  C148  1  0.46382932  0.74999353  0.18168454  1  -0.062223  0  -0.093428  -0.109847  0  4.004092  0
C  C149  1  0.53616779  0.24999947  0.81831572  1  -0.062648  0  -0.093396  -0.109802  0  4.004192  0
C  C150  1  0.46382998  0.25000081  0.31831496  1  -0.062601  0  -0.093407  -0.109791  0  4.0041  0
C  C151  1  0.53616828  0.75000388  0.68168530  1  -0.062257  0  -0.093418  -0.109902  0  4.004104  0
C  C152  1  0.38673332  0.74999430  0.23121482  1  0.01203  0  -0.09191  -0.123523  0  3.960105  0
C  C153  1  0.61326493  0.25000008  0.76878585  1  0.012117  0  -0.091939  -0.123695  0  3.960337  0
C  C154  1  0.38673445  0.25000019  0.26878478  1  0.012099  0  -0.091949  -0.123702  0  3.960314  0
C  C155  1  0.61326380  0.75000382  0.73121548  1  0.012102  0  -0.091942  -0.123643  0  3.960214  0
C  C156  1  0.13266310  0.75000075  0.33109210  1  -0.037803  0  -0.089967  -0.128313  0  3.980785  0
C  C157  1  0.86733173  0.25000050  0.66890897  1  -0.037956  0  -0.089983  -0.128347  0  3.980644  0
C  C158  1  0.13267088  0.24999903  0.16890740  1  -0.038004  0  -0.089922  -0.128208  0  3.980573  0
C  C159  1  0.86733307  0.75000222  0.83109165  1  -0.037943  0  -0.089949  -0.128217  0  3.980667  0
C  C160  1  0.00231309  0.75000157  0.36356910  1  0.00693  0  -0.088172  -0.105298  0  3.995991  0
C  C161  1  0.99768060  0.25000106  0.63643116  1  0.006882  0  -0.088226  -0.105329  0  3.996034  0
C  C162  1  0.00232346  0.24999915  0.13642975  1  0.006863  0  -0.088302  -0.105388  0  3.995976  0
C  C163  1  0.99768163  0.75000073  0.86356970  1  0.006871  0  -0.088253  -0.105407  0  3.996024  0
C  C164  1  0.85579709  0.75000144  0.34032490  1  -0.093093  0  -0.020184  -0.036192  0  3.997548  0
C  C165  1  0.14419546  0.24999981  0.65967455  1  -0.092907  0  -0.020148  -0.036265  0  3.997753  0
C  C166  1  0.85580496  0.24999903  0.15967453  1  -0.092947  0  -0.020165  -0.036417  0  3.997876  0
C  C167  1  0.14419671  0.75000085  0.84032614  1  -0.092911  0  -0.020215  -0.036347  0  3.997863  0
C  C168  1  0.83892429  0.75000007  0.28374223  1  -0.05195  0  -0.081107  -0.138336  0  3.955858  0
C  C169  1  0.16107054  0.24999843  0.71625722  1  -0.052231  0  -0.081035  -0.138153  0  3.95582  0
C  C170  1  0.83892934  0.24999905  0.21625723  1  -0.05219  0  -0.081045  -0.138123  0  3.95584  0
C  C171  1  0.16107233  0.75000082  0.78374344  1  -0.052264  0  -0.081036  -0.138147  0  3.955866  0
C  C172  1  0.97586238  0.74999923  0.18961906  1  0.040633  0  -0.005549  0.072146  0  3.831526  0
C  C173  1  0.02413587  0.24999859  0.81038242  1  0.040654  0  -0.005506  0.072284  0  3.831432  0
C  C174  1  0.97586311  0.25000032  0.31038144  1  0.040613  0  -0.00551  0.072169  0  3.831715  0
C  C175  1  0.02413742  0.75000162  0.68961923  1  0.040625  0  -0.005542  0.072124  0  3.831665  0
C  C176  1  0.14703654  0.74999658  0.18075817  1  -0.093977  0  -0.003574  0.030096  0  3.924029  0
C  C177  1  0.85296171  0.24999917  0.81924250  1  -0.094009  0  -0.003645  0.029894  0  3.923992  0
C  C178  1  0.14703833  0.25000043  0.31924172  1  -0.094195  0  -0.003611  0.029972  0  3.924126  0
C  C179  1  0.85296220  0.75000220  0.68075895  1  -0.094198  0  -0.00363  0.03003  0  3.924056  0
C  C180  1  0.22694481  0.74999720  0.23055436  1  -0.049327  0  -0.005667  0.031227  0  3.986763  0
C  C181  1  0.77305230  0.24999855  0.76944672  1  -0.049165  0  -0.005625  0.031548  0  3.986759  0
C  C182  1  0.22694708  0.25000034  0.26944665  1  -0.04919  0  -0.005615  0.031475  0  3.986834  0
C  C183  1  0.77305232  0.75000367  0.73055442  1  -0.049157  0  -0.005571  0.031457  0  3.986702  0
C  C184  1  0.11479951  0.74999938  0.27459621  1  -0.067085  0  -0.005394  0.027364  0  3.995221  0
C  C185  1  0.88519532  0.24999912  0.72540487  1  -0.067262  0  -0.005385  0.027275  0  3.995192  0
C  C186  1  0.11480447  0.24999975  0.22540372  1  -0.067072  0  -0.005478  0.02727  0  3.995156  0
C  C187  1  0.88519720  0.75000219  0.77459573  1  -0.067095  0  -0.005457  0.027259  0  3.99531  0
C  C188  1  0.96745691  0.74999994  0.25119954  1  -0.002708  0  -0.002442  0.019832  0  3.924732  0
C  C189  1  0.03254249  0.24999856  0.74880113  1  -0.002556  0  -0.002487  0.019752  0  3.924714  0
C  C190  1  0.96746051  0.24999963  0.24880016  1  -0.00252  0  -0.002436  0.01976  0  3.92478  0
C  C191  1  0.03254231  0.75000163  0.75120010  1  -0.00255  0  -0.00246  0.019747  0  3.92485  0
C  C192  1  0.47055099  0.74999763  0.07920207  1  1.516836  0  0.192251  0.54763  0  4.25757  0
C  C193  1  0.52944498  0.24999950  0.92079860  1  1.516689  0  0.192326  0.547793  0  4.257692  0
C  C194  1  0.47055295  0.24999945  0.42079783  1  1.516819  0  0.192309  0.547778  0  4.257465  0
C  C195  1  0.52944872  0.75000112  0.57920284  1  1.516974  0  0.192229  0.547635  0  4.257523  0
C  C196  1  0.71565091  0.75000227  0.37467491  1  1.568732  0  0.195049  0.556123  0  4.226243  0
C  C197  1  0.28434392  0.25000174  0.62532454  1  1.568898  0  0.195022  0.556146  0  4.226481  0
C  C198  1  0.71566025  0.24999503  0.12532347  1  1.568931  0  0.195064  0.556239  0  4.226459  0
C  C199  1  0.28434143  0.74999935  0.87467638  1  1.569216  0  0.195154  0.55637  0  4.226468  0
C  C200  1  0.90009524  0.66313910  0.16524773  1  0.014534  0  -0.157919  -0.191615  0  3.895013  0
C  C201  1  0.09990461  0.16313970  0.83475374  1  0.014479  0  -0.157972  -0.191753  0  3.895137  0
C  C202  1  0.90009756  0.33686059  0.33475246  1  0.014504  0  -0.157967  -0.191661  0  3.895109  0
C  C203  1  0.09990365  0.83686105  0.66524741  1  0.014495  0  -0.157916  -0.191553  0  3.894992  0
C  C204  1  0.09990301  0.33685802  0.83475294  1  0.014544  0  -0.157917  -0.191697  0  3.895131  0
C  C205  1  0.90009820  0.83685949  0.16524733  1  0.014483  0  -0.157926  -0.191634  0  3.895059  0
C  C206  1  0.09990297  0.66314135  0.66524821  1  0.014536  0  -0.157904  -0.19162  0  3.895139  0
C  C207  1  0.90009802  0.16314158  0.33475245  1  0.014521  0  -0.157943  -0.191685  0  3.895222  0
C  C208  1  0.96855566  0.57204393  0.18396395  1  -0.018517  0  -0.173298  -0.098337  0  3.979347  0
C  C209  1  0.03144581  0.07204328  0.81603710  1  -0.018605  0  -0.173311  -0.098326  0  3.979379  0
C  C210  1  0.96855654  0.42795632  0.31603575  1  -0.018555  0  -0.173258  -0.098238  0  3.979395  0
C  C211  1  0.03144762  0.92795829  0.68396372  1  -0.018722  0  -0.173336  -0.098381  0  3.979421  0
C  C212  1  0.03144374  0.42795594  0.81603672  1  -0.018733  0  -0.1733  -0.098307  0  3.979366  0
C  C213  1  0.96855814  0.92795522  0.18396316  1  -0.018513  0  -0.173284  -0.098319  0  3.979468  0
C  C214  1  0.03144513  0.57204356  0.68396451  1  -0.018514  0  -0.173337  -0.098392  0  3.979483  0
C  C215  1  0.96855862  0.07204434  0.31603573  1  -0.018494  0  -0.173305  -0.098351  0  3.979457  0
C  C216  1  0.87624035  0.48937404  0.16490751  1  -0.093313  0  -0.250616  -0.35171  0  3.968602  0
C  C217  1  0.12376235  0.98937315  0.83509360  1  -0.093254  0  -0.250662  -0.35187  0  3.968814  0
C  C218  1  0.87623948  0.51062570  0.33509270  1  -0.093288  0  -0.250609  -0.351763  0  3.968774  0
C  C219  1  0.12376572  0.01062618  0.66490590  1  -0.093197  0  -0.250706  -0.351987  0  3.96873  0
C  C220  1  0.12376246  0.51062515  0.83509356  1  -0.093227  0  -0.250706  -0.351955  0  3.968748  0
C  C221  1  0.87624274  0.01062535  0.16490667  1  -0.093314  0  -0.250639  -0.351793  0  3.968758  0
C  C222  1  0.12376219  0.48937418  0.66490837  1  -0.09332  0  -0.250629  -0.351805  0  3.968573  0
C  C223  1  0.87624051  0.98937507  0.33509234  1  -0.093298  0  -0.250656  -0.351777  0  3.968646  0
C  C224  1  0.66495582  0.00257132  0.91858852  1  0.307939  0  0.00341  -0.102326  0  3.904321  0
C  C225  1  0.33503575  0.50257177  0.08141008  1  0.307459  0  0.003444  -0.102252  0  3.904304  0
C  C226  1  0.66494798  0.99743316  0.58141194  1  0.307817  0  0.003408  -0.102347  0  3.90436  0
C  C227  1  0.33504328  0.49742831  0.41858755  1  0.308094  0  0.003381  -0.102377  0  3.904005  0
C  C228  1  0.33503902  0.99742787  0.08141134  1  0.307039  0  0.003477  -0.102217  0  3.904298  0
C  C229  1  0.66495908  0.49742811  0.91858775  1  0.307941  0  0.003437  -0.102352  0  3.904072  0
C  C230  1  0.33504115  0.00257085  0.41858873  1  0.307121  0  0.003482  -0.102285  0  3.904294  0
C  C231  1  0.66496637  0.50257500  0.58141312  1  0.306395  0  0.003512  -0.102199  0  3.904169  0
C  C232  1  0.58589665  0.92392304  0.90582552  1  0.372528  0  0.000467  -0.035521  0  3.995179  0
C  C233  1  0.41409955  0.42392341  0.09417193  1  0.372556  0  0.000453  -0.03558  0  3.995094  0
C  C234  1  0.58589009  0.07607678  0.59417179  1  0.372698  0  0.000488  -0.03547  0  3.995141  0
C  C235  1  0.41410793  0.57607996  0.40582520  1  0.37234  0  0.000436  -0.03548  0  3.994969  0
C  C236  1  0.41410274  0.07607546  0.09417353  1  0.372572  0  0.000443  -0.035584  0  3.995144  0
C  C237  1  0.58589528  0.57607853  0.90582509  1  0.37245  0  0.000423  -0.035493  0  3.994978  0
C  C238  1  0.41409904  0.92392173  0.40582563  1  0.372494  0  0.000453  -0.035501  0  3.995162  0
C  C239  1  0.58589944  0.42392267  0.59417587  1  0.372576  0  0.000361  -0.035638  0  3.995086  0
C  C240  1  0.65347635  0.91276722  0.99099512  1  0.951806  0  0.142276  0.082644  0  3.908726  0
C  C241  1  0.34651991  0.41276837  0.00900274  1  0.952009  0  0.142329  0.082607  0  3.908838  0
C  C242  1  0.65347738  0.08723179  0.50900414  1  0.951837  0  0.142323  0.082602  0  3.908729  0
C  C243  1  0.34652400  0.58723239  0.49099569  1  0.95193  0  0.142357  0.082672  0  3.908624  0
C  C244  1  0.34652191  0.08723060  0.00900393  1  0.951836  0  0.14237  0.082667  0  3.908676  0
C  C245  1  0.65347720  0.58723220  0.99099509  1  0.951881  0  0.142307  0.082619  0  3.908876  0
C  C246  1  0.34652201  0.91276878  0.49099572  1  0.951832  0  0.142367  0.082664  0  3.908632  0
C  C247  1  0.65348223  0.41276955  0.50900538  1  0.951952  0  0.142402  0.08275  0  3.908817  0
C  C248  1  0.79924225  0.05979639  0.00319243  1  0.322972  0  -0.053714  -0.075301  0  3.872645  0
C  C249  1  0.20075129  0.55979680  0.99680578  1  0.322609  0  -0.053728  -0.075343  0  3.87279  0
C  C250  1  0.79924672  0.94020281  0.49680951  1  0.323295  0  -0.053735  -0.075348  0  3.872595  0
C  C251  1  0.20076079  0.44020376  0.50319200  1  0.322943  0  -0.053747  -0.075381  0  3.87271  0
C  C252  1  0.20075258  0.94020280  0.99680784  1  0.323488  0  -0.053748  -0.075424  0  3.872744  0
C  C253  1  0.79924240  0.44020308  0.00319164  1  0.323487  0  -0.053742  -0.075303  0  3.872658  0
C  C254  1  0.20075723  0.05979707  0.50319278  1  0.32298  0  -0.053755  -0.07541  0  3.8728  0
C  C255  1  0.79924886  0.55979750  0.49680745  1  0.323131  0  -0.053736  -0.075374  0  3.872704  0
C  C256  1  0.96976402  0.04771623  0.99273851  1  -0.049207  0  -0.16193  -0.168874  0  3.944257  0
C  C257  1  0.03022959  0.54771654  0.00725888  1  -0.075148  0  -0.161964  -0.168863  0  3.944362  0
C  C258  1  0.96976966  0.95228355  0.50726279  1  -0.075164  0  -0.161912  -0.168787  0  3.944123  0
C  C259  1  0.03023779  0.45228344  0.49273790  1  -0.049144  0  -0.1619  -0.168806  0  3.944263  0
C  C260  1  0.03023081  0.95228296  0.00726175  1  -0.075167  0  -0.161918  -0.16883  0  3.944206  0
C  C261  1  0.96976410  0.45228196  0.99273692  1  -0.048912  0  -0.161922  -0.168887  0  3.944098  0
C  C262  1  0.03023429  0.04771702  0.49273909  1  -0.049232  0  -0.161905  -0.168815  0  3.944196  0
C  C263  1  0.96977072  0.54771781  0.50726033  1  -0.074854  0  -0.161983  -0.168915  0  3.944319  0
N  N264  1  0.57976143  0.86857680  0.95140293  1  -1.244319  0  -0.362572  -0.289303  0  3.636444  0
N  N265  1  0.42023506  0.36857851  0.04859451  1  -1.244525  0  -0.362642  -0.289314  0  3.63656  0
N  N266  1  0.57975844  0.13142372  0.54859560  1  -1.244233  0  -0.362618  -0.289348  0  3.636545  0
N  N267  1  0.42023929  0.63142210  0.45140383  1  -1.244364  0  -0.362615  -0.2894  0  3.636513  0
N  N268  1  0.42023796  0.13142033  0.04859571  1  -1.244381  0  -0.362637  -0.289434  0  3.636508  0
N  N269  1  0.57976205  0.63142274  0.95140413  1  -1.244368  0  -0.36258  -0.289367  0  3.636557  0
N  N270  1  0.42023525  0.86857753  0.45140344  1  -1.244418  0  -0.362661  -0.289434  0  3.636472  0
N  N271  1  0.57976580  0.36857984  0.54859643  1  -1.244197  0  -0.362644  -0.28935  0  3.636469  0
N  N272  1  0.70626058  0.99442673  0.97252375  1  -1.222075  0  -0.240598  0.050119  0  3.774711  0
N  N273  1  0.29373298  0.49442730  0.02747412  1  -1.222203  0  -0.240613  0.049974  0  3.774989  0
N  N274  1  0.70626186  0.00557286  0.52747707  1  -1.222024  0  -0.240657  0.050004  0  3.774771  0
N  N275  1  0.29374109  0.50557355  0.47252437  1  -1.222143  0  -0.24064  0.050068  0  3.774711  0
N  N276  1  0.29373540  0.00557177  0.02747570  1  -1.222098  0  -0.240657  0.050073  0  3.774866  0
N  N277  1  0.70626185  0.50557395  0.97252412  1  -1.222078  0  -0.240639  0.050062  0  3.774822  0
N  N278  1  0.29373753  0.99442771  0.47252441  1  -1.22211  0  -0.240636  0.050099  0  3.774827  0
N  N279  1  0.70626856  0.49442770  0.52747670  1  -1.222075  0  -0.24069  0.049891  0  3.775069  0
O  O280  1  0.38322829  0.74999908  0.03647984  1  -1.189675  0  -0.339377  -0.570403  0  2.382043  0
O  O281  1  0.61676654  0.24999943  0.96352083  1  -1.189427  0  -0.339423  -0.570455  0  2.382193  0
O  O282  1  0.38322985  0.24999748  0.46352017  1  -1.189562  0  -0.339408  -0.570468  0  2.382161  0
O  O283  1  0.61677183  0.74999965  0.53648050  1  -1.18977  0  -0.339372  -0.570404  0  2.382044  0
O  O284  1  0.61336952  0.74999955  0.07800616  1  -1.155511  0  -0.333823  -0.562466  0  2.127269  0
O  O285  1  0.38662531  0.24999964  0.92199329  1  -1.15562  0  -0.333884  -0.562596  0  2.12733  0
O  O286  1  0.61337261  0.24999931  0.42199235  1  -1.155562  0  -0.333875  -0.562592  0  2.127229  0
O  O287  1  0.38662906  0.74999919  0.57800791  1  -1.155526  0  -0.33386  -0.562534  0  2.127231  0
O  O288  1  0.73683464  0.75000432  0.42677762  1  -1.177093  0  -0.338999  -0.551834  0  2.298339  0
O  O289  1  0.26316133  0.25000037  0.57322224  1  -1.177119  0  -0.339013  -0.551855  0  2.298315  0
O  O290  1  0.73684219  0.25000187  0.07322115  1  -1.177196  0  -0.339039  -0.551914  0  2.298358  0
O  O291  1  0.26315720  0.75000076  0.92677912  1  -1.177213  0  -0.339041  -0.551935  0  2.298281  0
O  O292  1  0.58511645  0.75000033  0.35330837  1  -1.200809  0  -0.329704  -0.572927  0  2.140527  0
O  O293  1  0.41487952  0.25000643  0.64669108  1  -1.200869  0  -0.32969  -0.572928  0  2.140751  0
O  O294  1  0.58512558  0.24998759  0.14669179  1  -1.200782  0  -0.329676  -0.572907  0  2.140717  0
O  O295  1  0.41487837  0.74999991  0.85331090  1  -1.201128  0  -0.329747  -0.573019  0  2.140836  0
