# generated using pymatgen
data_CdH13C21(NO3)2
_symmetry_space_group_name_H-M   'P 1'
_cell_length_a   7.76579291
_cell_length_b   10.02108091
_cell_length_c   12.60558390
_cell_angle_alpha   96.54036401
_cell_angle_beta   101.83800860
_cell_angle_gamma   107.27544693
_symmetry_Int_Tables_number   1
_chemical_formula_structural   CdH13C21(NO3)2
_chemical_formula_sum   'Cd2 H26 C42 N4 O12'
_cell_volume   900.62671874
_cell_formula_units_Z   2
loop_
 _symmetry_equiv_pos_site_id
 _symmetry_equiv_pos_as_xyz
  1  'x, y, z'
loop_
 _atom_site_type_symbol
 _atom_site_label
 _atom_site_symmetry_multiplicity
 _atom_site_fract_x
 _atom_site_fract_y
 _atom_site_fract_z
 _atom_site_occupancy
 _atom_site_pbe_bader_spin_density
 _atom_site_pbe_cm5_charge
 _atom_site_pbe_ddec_charge
 _atom_site_pbe_ddec_spin_density
 _atom_site_pbe_ddec_sum_bond_order
 _atom_site_pbe_magmom
Cd  Cd0  1  0.12970604  0.65129345  0.43326187  1  0  0.787637  0.959165  0  2.115523  0
Cd  Cd1  1  0.87029178  0.34870179  0.56673890  1  0  0.787604  0.959085  0  2.115655  0
H  H2  1  0.29770628  0.96431029  0.52996369  1  0  0.311522  0.382424  0  0.955454  0
H  H3  1  0.70229547  0.03569775  0.47003487  1  0  0.311517  0.382411  0  0.955449  0
H  H4  1  0.09221818  0.13230157  0.42125396  1  0  0.109001  0.119944  0  1.011648  0
H  H5  1  0.90778627  0.86769697  0.57874640  1  0  0.108974  0.119898  0  1.011626  0
H  H6  1  0.89250615  0.83968175  0.11324002  1  0  0.101876  0.102852  0  1.037058  0
H  H7  1  0.10749650  0.16031887  0.88676032  1  0  0.101852  0.102868  0  1.037092  0
H  H8  1  0.82305021  0.25444476  0.13485605  1  0  0.101664  0.102942  0  1.037041  0
H  H9  1  0.17694971  0.74555255  0.86514996  1  0  0.101643  0.102901  0  1.037012  0
H  H10  1  0.74553918  0.21931622  0.97259457  1  0  0.094916  0.088635  0  1.043413  0
H  H11  1  0.25446518  0.78068544  0.02740926  1  0  0.09493  0.088657  0  1.043403  0
H  H12  1  0.56793639  0.15631802  0.77799368  1  0  0.102332  0.101442  0  1.038861  0
H  H13  1  0.43206134  0.84368671  0.22200879  1  0  0.102328  0.101469  0  1.038795  0
H  H14  1  0.53644153  0.72084082  0.77209764  1  0  0.102268  0.103109  0  1.025327  0
H  H15  1  0.46356071  0.27916514  0.22789919  1  0  0.102255  0.10309  0  1.02531  0
H  H16  1  0.70649173  0.77962813  0.96867464  1  0  0.094754  0.091683  0  1.050652  0
H  H17  1  0.29351191  0.22037471  0.03131970  1  0  0.094745  0.091634  0  1.05062  0
H  H18  1  0.60041440  0.63823007  0.48822267  1  0  0.121195  0.12358  0  1.008747  0
H  H19  1  0.39958785  0.36177270  0.51177465  1  0  0.121217  0.123631  0  1.008697  0
H  H20  1  0.19713498  0.58594994  0.19347544  1  0  0.138053  0.110979  0  1.008922  0
H  H21  1  0.80285182  0.41404089  0.80652426  1  0  0.138093  0.110987  0  1.008852  0
H  H22  1  0.73919605  0.56314836  0.31359255  1  0  0.122693  0.130203  0  1.059332  0
H  H23  1  0.26080310  0.43685328  0.68640584  1  0  0.122687  0.130187  0  1.059337  0
H  H24  1  0.20437582  0.52019675  0.03297451  1  0  0.109547  0.11388  0  1.001139  0
H  H25  1  0.79561320  0.47979305  0.96702538  1  0  0.109501  0.113837  0  1.001137  0
H  H26  1  0.77342982  0.53524673  0.15624800  1  0  0.113953  0.140102  0  1.029646  0
H  H27  1  0.22656145  0.46474208  0.84374971  1  0  0.113951  0.140084  0  1.029578  0
C  C28  1  0.99199893  0.35106485  0.34625837  1  0  0.197588  0.568373  0  4.206636  0
C  C29  1  0.00800112  0.64893257  0.65374053  1  0  0.197631  0.568473  0  4.206443  0
C  C30  1  0.02629406  0.10819872  0.33318078  1  0  -0.071075  -0.08813  0  3.895706  0
C  C31  1  0.97370634  0.89179969  0.66682301  1  0  -0.071021  -0.088015  0  3.895575  0
C  C32  1  0.99773448  0.97555323  0.27050277  1  0  -0.016961  -0.029257  0  3.979387  0
C  C33  1  0.00226552  0.02444414  0.72949929  1  0  -0.016973  -0.029399  0  3.979518  0
C  C34  1  0.05272063  0.86268266  0.32260059  1  0  0.202704  0.575534  0  4.200479  0
C  C35  1  0.94729436  0.13731920  0.67740226  1  0  0.202702  0.575794  0  4.200373  0
C  C36  1  0.90886711  0.94391533  0.15798876  1  0  -0.070533  -0.111813  0  3.89801  0
C  C37  1  0.09113952  0.05608536  0.84201210  1  0  -0.070529  -0.111861  0  3.898095  0
C  C38  1  0.84347810  0.04186801  0.10515076  1  0  -0.006896  0.057141  0  3.991061  0
C  C39  1  0.15653564  0.95813070  0.89484924  1  0  -0.006769  0.057254  0  3.991065  0
C  C40  1  0.87401015  0.17457036  0.16947383  1  0  -0.075652  -0.121518  0  3.911969  0
C  C41  1  0.12599557  0.82543135  0.83052781  1  0  -0.075693  -0.121503  0  3.912013  0
C  C42  1  0.96483909  0.20825336  0.28190329  1  0  -0.023666  -0.041389  0  3.991192  0
C  C43  1  0.03516534  0.79174197  0.71809914  1  0  -0.023676  -0.041435  0  3.991084  0
C  C44  1  0.74208431  0.00514138  0.98699809  1  0  0.0037  0.087061  0  3.954929  0
C  C45  1  0.25792149  0.99486040  0.01299960  1  0  0.003671  0.087018  0  3.955236  0
C  C46  1  0.70052050  0.10925168  0.93014474  1  0  -0.089083  -0.125861  0  3.961509  0
C  C47  1  0.29947906  0.89075102  0.06985461  1  0  -0.089085  -0.125835  0  3.961592  0
C  C48  1  0.60103027  0.07497768  0.82033434  1  0  -0.081108  -0.073691  0  3.96941  0
C  C49  1  0.39897057  0.92502820  0.17966627  1  0  -0.081127  -0.073797  0  3.969275  0
C  C50  1  0.54244042  0.93489080  0.76253451  1  0  -0.021831  -0.060405  0  4.001501  0
C  C51  1  0.45756218  0.06511616  0.23746644  1  0  -0.021787  -0.06026  0  4.001262  0
C  C52  1  0.58416613  0.82985240  0.81737777  1  0  -0.078442  -0.072594  0  3.963208  0
C  C53  1  0.41584097  0.17015256  0.18262040  1  0  -0.07846  -0.072685  0  3.96301  0
C  C54  1  0.68072845  0.86435806  0.92775550  1  0  -0.090074  -0.129657  0  3.958606  0
C  C55  1  0.31927561  0.13564266  0.07224026  1  0  -0.090041  -0.129521  0  3.95842  0
C  C56  1  0.42939335  0.89410243  0.64695970  1  0  0.237064  0.593452  0  4.100907  0
C  C57  1  0.57060093  0.10590019  0.35303815  1  0  0.236973  0.593283  0  4.10082  0
C  C58  1  0.53724746  0.61668148  0.40043717  1  0  0.006926  -0.004243  0  3.957514  0
C  C59  1  0.46275167  0.38332016  0.59956201  1  0  0.006865  -0.004381  0  3.957555  0
C  C60  1  0.32520098  0.58972795  0.24924542  1  0  0.14098  0.092089  0  3.916038  0
C  C61  1  0.67479414  0.41027358  0.75075561  1  0  0.140952  0.092129  0  3.915952  0
C  C62  1  0.60931459  0.58152191  0.31496357  1  0  0.005263  -0.086022  0  3.856994  0
C  C63  1  0.39068153  0.41847229  0.68503370  1  0  0.005274  -0.085965  0  3.857055  0
C  C64  1  0.48712446  0.53207219  0.10866095  1  0  0.098842  0.168882  0  4.009775  0
C  C65  1  0.51286848  0.46792401  0.89134007  1  0  0.098745  0.168826  0  4.009792  0
C  C66  1  0.33524565  0.51228190  0.01937277  1  0  -0.088915  -0.160697  0  3.99652  0
C  C67  1  0.66474816  0.48771645  0.98062778  1  0  -0.08884  -0.160572  0  3.996556  0
C  C68  1  0.65272205  0.51925845  0.08863235  1  0  -0.083647  -0.147136  0  3.956354  0
C  C69  1  0.34726785  0.48073669  0.91136579  1  0  -0.083491  -0.146917  0  3.956182  0
N  N70  1  0.36054077  0.62097548  0.35808570  1  0  -0.356023  -0.289146  0  3.539142  0
N  N71  1  0.63945927  0.37902512  0.64191271  1  0  -0.356014  -0.289097  0  3.538895  0
N  N72  1  0.47370974  0.56511501  0.21849650  1  0  -0.221436  0.008071  0  3.775737  0
N  N73  1  0.52628364  0.43488545  0.78150341  1  0  -0.221428  0.007985  0  3.775864  0
O  O74  1  0.06890251  0.37922350  0.45100559  1  0  -0.340834  -0.594921  0  2.291173  0
O  O75  1  0.93109530  0.62077172  0.54899597  1  0  -0.340798  -0.594937  0  2.291146  0
O  O76  1  0.94508846  0.44200343  0.29548090  1  0  -0.31691  -0.549741  0  2.254856  0
O  O77  1  0.05490502  0.55799074  0.70451523  1  0  -0.316988  -0.54979  0  2.254754  0
O  O78  1  0.12509212  0.88840820  0.42763321  1  0  -0.329587  -0.58501  0  2.285064  0
O  O79  1  0.87494187  0.11160142  0.57236892  1  0  -0.32959  -0.585058  0  2.28509  0
O  O80  1  0.01985185  0.74246988  0.26403270  1  0  -0.322116  -0.560017  0  2.215136  0
O  O81  1  0.98014804  0.25752739  0.73597567  1  0  -0.322121  -0.560177  0  2.215087  0
O  O82  1  0.37260947  0.76836193  0.59689998  1  0  -0.296101  -0.517712  0  2.265787  0
O  O83  1  0.62738294  0.23164590  0.40310131  1  0  -0.296045  -0.517669  0  2.265698  0
O  O84  1  0.39243033  0.00063197  0.60423011  1  0  -0.323639  -0.472663  0  2.302313  0
O  O85  1  0.60756652  0.99937701  0.39577028  1  0  -0.323585  -0.472547  0  2.302335  0
