# generated using pymatgen
data_AgH14C15S9N2(OF)3
_symmetry_space_group_name_H-M   'P 1'
_cell_length_a   7.51092386
_cell_length_b   8.04203084
_cell_length_c   10.96013722
_cell_angle_alpha   94.39690777
_cell_angle_beta   93.46489809
_cell_angle_gamma   110.27005132
_symmetry_Int_Tables_number   1
_chemical_formula_structural   AgH14C15S9N2(OF)3
_chemical_formula_sum   'Ag1 H14 C15 S9 N2 O3 F3'
_cell_volume   616.51475523
_cell_formula_units_Z   1
loop_
 _symmetry_equiv_pos_site_id
 _symmetry_equiv_pos_as_xyz
  1  'x, y, z'
loop_
 _atom_site_type_symbol
 _atom_site_label
 _atom_site_symmetry_multiplicity
 _atom_site_fract_x
 _atom_site_fract_y
 _atom_site_fract_z
 _atom_site_occupancy
 _atom_site_hle17_bader_spin_density
 _atom_site_hle17_ddec_charge
 _atom_site_hle17_ddec_spin_density
 _atom_site_hle17_ddec_sum_bond_order
 _atom_site_hle17_magmom
 _atom_site_hse06_10hf_bader_spin_density
 _atom_site_hse06_10hf_ddec_charge
 _atom_site_hse06_10hf_ddec_spin_density
 _atom_site_hse06_10hf_ddec_sum_bond_order
 _atom_site_hse06_10hf_magmom
 _atom_site_hse06_bader_spin_density
 _atom_site_hse06_ddec_charge
 _atom_site_hse06_ddec_spin_density
 _atom_site_hse06_ddec_sum_bond_order
 _atom_site_hse06_magmom
 _atom_site_pbe_bader_spin_density
 _atom_site_pbe_cm5_charge
 _atom_site_pbe_ddec_charge
 _atom_site_pbe_ddec_spin_density
 _atom_site_pbe_ddec_sum_bond_order
 _atom_site_pbe_magmom
Ag  Ag0  1  0.35490854  0.75516262  0.15013246  1  0  0.516277  0  1.586177  0  0  0.407124  0  2.050206  0  0  0.427303  0  2.006322  0  0  0.449479  0.393581  0  2.080453  0
H  H1  1  0.88919060  0.81817077  0.35290769  1  0  0.109342  0  1.006922  0  0  0.118715  0  1.086857  0  0  0.120189  0  1.087289  0  0  0.076415  0.117619  0  1.08666  0
H  H2  1  0.90905267  0.68768587  0.21486750  1  0  0.144239  0  0.948272  0  0  0.161145  0  1.009234  0  0  0.162798  0  1.009099  0  0  0.094762  0.159907  0  1.009408  0
H  H3  1  0.00336060  0.92548778  0.22731731  1  0  0.145772  0  0.95716  0  0  0.1641  0  1.014837  0  0  0.166117  0  1.013826  0  0  0.094575  0.162581  0  1.015731  0
H  H4  1  0.47438175  0.26437988  0.29962575  1  0  0.119092  0  0.96729  0  0  0.129707  0  1.041961  0  0  0.1315  0  1.041519  0  0  0.081329  0.128477  0  1.042202  0
H  H5  1  0.58010926  0.40806220  0.18634698  1  0  0.141187  0  0.9376  0  0  0.161887  0  0.993767  0  0  0.163595  0  0.993236  0  0  0.097402  0.160618  0  0.994266  0
H  H6  1  0.32629873  0.31918105  0.18429334  1  0  0.133931  0  0.960621  0  0  0.149166  0  1.026046  0  0  0.15054  0  1.026218  0  0  0.090661  0.148139  0  1.026033  0
H  H7  1  0.13688199  0.19198414  0.79449545  1  0  0.117519  0  0.949349  0  0  0.132767  0  1.009035  0  0  0.134805  0  1.008444  0  0  0.101123  0.13131  0  1.009456  0
H  H8  1  0.34290542  0.32178591  0.72976479  1  0  0.090119  0  0.963959  0  0  0.101015  0  1.034755  0  0  0.10268  0  1.034294  0  0  0.088403  0.099748  0  1.035251  0
H  H9  1  0.42148811  0.33949040  0.95296087  1  0  0.13879  0  0.903306  0  0  0.156394  0  0.955042  0  0  0.15741  0  0.955504  0  0  0.120907  0.155413  0  0.954962  0
H  H10  1  0.55020066  0.22065445  0.87626161  1  0  0.127588  0  0.930986  0  0  0.137291  0  0.996935  0  0  0.139171  0  0.995914  0  0  0.110653  0.135906  0  0.997752  0
H  H11  1  0.81009481  0.71511212  0.67431650  1  0  0.086077  0  0.986662  0  0  0.09481  0  1.063758  0  0  0.0964  0  1.063339  0  0  0.085446  0.09378  0  1.063895  0
H  H12  1  0.66319102  0.55601937  0.76113890  1  0  0.106658  0  0.936511  0  0  0.122967  0  0.995405  0  0  0.124392  0  0.995318  0  0  0.100416  0.121892  0  0.995593  0
H  H13  1  0.84267024  0.96000050  0.84719064  1  0  0.128738  0  0.937121  0  0  0.138664  0  1.003597  0  0  0.140396  0  1.002866  0  0  0.109811  0.137335  0  1.004253  0
H  H14  1  0.93985289  0.79660232  0.88982689  1  0  0.141677  0  0.910496  0  0  0.156482  0  0.964964  0  0  0.15802  0  0.964674  0  0  0.120282  0.155353  0  0.965255  0
C  C15  1  0.97676575  0.80870212  0.27812801  1  0  -0.332348  0  3.593068  0  0  -0.40374  0  3.840791  0  0  -0.404976  0  3.847719  0  0  -0.237725  -0.402739  0  3.836131  0
C  C16  1  0.46035393  0.36695738  0.24339263  1  0  -0.328822  0  3.602272  0  0  -0.399305  0  3.852671  0  0  -0.400365  0  3.859987  0  0  -0.237053  -0.398574  0  3.847795  0
C  C17  1  0.16074109  0.62292309  0.40809341  1  0  -0.090912  0  3.800089  0  0  -0.080996  0  4.087918  0  0  -0.078422  0  4.105945  0  0  -0.037809  -0.082755  0  4.075871  0
C  C18  1  0.26512586  0.51371180  0.40287542  1  0  -0.100378  0  3.864079  0  0  -0.089401  0  4.154543  0  0  -0.086206  0  4.172993  0  0  -0.038837  -0.091869  0  4.142286  0
C  C19  1  0.96624680  0.34577394  0.51059544  1  0  -0.10012  0  3.792377  0  0  -0.091774  0  4.085634  0  0  -0.08836  0  4.101635  0  0  -0.045818  -0.093678  0  4.073622  0
C  C20  1  0.81115511  0.21662332  0.54451211  1  0  -0.08319  0  3.788339  0  0  -0.074002  0  4.078854  0  0  -0.070105  0  4.094385  0  0  -0.03977  -0.076379  0  4.067438  0
C  C21  1  0.48641162  0.05313217  0.63035476  1  0  -0.09586  0  3.832322  0  0  -0.082025  0  4.119858  0  0  -0.080335  0  4.139044  0  0  -0.039545  -0.083482  0  4.107102  0
C  C22  1  0.58210880  0.93660934  0.63196290  1  0  -0.072983  0  3.798343  0  0  -0.060099  0  4.086674  0  0  -0.056256  0  4.104032  0  0  -0.028713  -0.062805  0  4.075114  0
C  C23  1  0.28236146  0.20159654  0.77672160  1  0  -0.139382  0  3.624251  0  0  -0.173674  0  3.880363  0  0  -0.17373  0  3.890272  0  0  -0.148784  -0.173736  0  3.873595  0
C  C24  1  0.40623413  0.21551448  0.89596576  1  0  -0.175493  0  3.739715  0  0  -0.206749  0  3.974334  0  0  -0.208696  0  3.983623  0  0  -0.136617  -0.205176  0  3.968166  0
C  C25  1  0.32516305  0.06671730  0.96699333  1  0  0.374093  0  3.652029  0  0  0.354057  0  3.936872  0  0  0.366617  0  3.952766  0  0  0.204431  0.345215  0  3.926566  0
C  C26  1  0.70863796  0.69689262  0.74446667  1  0  -0.142169  0  3.648034  0  0  -0.176675  0  3.906137  0  0  -0.17633  0  3.916062  0  0  -0.146539  -0.17677  0  3.899142  0
C  C27  1  0.80704934  0.81840440  0.86175431  1  0  -0.185794  0  3.74863  0  0  -0.215312  0  3.980394  0  0  -0.218046  0  3.990141  0  0  -0.13825  -0.213352  0  3.973957  0
C  C28  1  0.68808417  0.78206374  0.96243722  1  0  0.405008  0  3.633639  0  0  0.385384  0  3.909104  0  0  0.399164  0  3.924572  0  0  0.219368  0.375747  0  3.898944  0
C  C29  1  0.88416334  0.24642794  0.10778092  1  0  0.580238  0  3.680493  0  0  0.51317  0  4.042312  0  0  0.541872  0  4.013561  0  0  0.284314  0.49262  0  4.062918  0
S  S30  1  0.21164579  0.82198310  0.33981923  1  0  0.08856  0  2.78506  0  0  0.107903  0  3.207417  0  0  0.10247  0  3.201651  0  0  0.011366  0.111516  0  3.211425  0
S  S31  1  0.48100591  0.56805193  0.33906952  1  0  0.050682  0  2.67463  0  0  0.060234  0  3.067517  0  0  0.054277  0  3.066664  0  0  0.010079  0.064458  0  3.06864  0
S  S32  1  0.96468491  0.56135927  0.49542782  1  0  0.094536  0  2.582319  0  0  0.092861  0  2.932584  0  0  0.08957  0  2.934999  0  0  0.050111  0.094972  0  2.931034  0
S  S33  1  0.18234792  0.31992039  0.47875640  1  0  0.080309  0  2.610997  0  0  0.072751  0  2.967541  0  0  0.069528  0  2.970352  0  0  0.045591  0.074741  0  2.965744  0
S  S34  1  0.59656115  0.25276826  0.56500988  1  0  0.071871  0  2.604912  0  0  0.066256  0  2.961941  0  0  0.063104  0  2.964776  0  0  0.048049  0.068276  0  2.960231  0
S  S35  1  0.80160283  0.00030253  0.56735974  1  0  0.094849  0  2.576399  0  0  0.095738  0  2.921544  0  0  0.092972  0  2.923292  0  0  0.058321  0.097743  0  2.920163  0
S  S36  1  0.25541621  0.00597049  0.67181573  1  0  -0.009732  0  2.577185  0  0  -0.01877  0  2.947204  0  0  -0.024436  0  2.952223  0  0  -0.008057  -0.014155  0  2.943344  0
S  S37  1  0.49221084  0.72569311  0.68249260  1  0  0.039724  0  2.48385  0  0  0.030631  0  2.834531  0  0  0.025336  0  2.838557  0  0  0.012052  0.03462  0  2.831654  0
S  S38  1  0.95675985  0.38950131  0.98063536  1  0  1.113196  0  5.864858  0  0  1.014936  0  6.398819  0  0  1.059586  0  6.376677  0  0  0.480989  0.984193  0  6.413307  0
N  N39  1  0.25879060  0.94728175  0.02394430  1  0  -0.441348  0  2.773789  0  0  -0.404638  0  3.050296  0  0  -0.418058  0  3.05624  0  0  -0.335501  -0.395708  0  3.046736  0
N  N40  1  0.58987131  0.75146403  0.04194282  1  0  -0.429276  0  2.903759  0  0  -0.382175  0  3.199984  0  0  -0.397841  0  3.204491  0  0  -0.350752  -0.371793  0  3.197279  0
O  O41  1  0.16432266  0.46666318  0.00679813  1  0  -0.607213  0  2.033238  0  0  -0.564438  0  2.303103  0  0  -0.583533  0  2.287463  0  0  -0.341893  -0.551015  0  2.313459  0
O  O42  1  0.85524931  0.51301678  0.99837781  1  0  -0.604853  0  2.001179  0  0  -0.570402  0  2.254406  0  0  -0.590041  0  2.243952  0  0  -0.334813  -0.556615  0  2.261114  0
O  O43  1  0.89018732  0.26202146  0.87075203  1  0  -0.600878  0  1.985474  0  0  -0.567633  0  2.234737  0  0  -0.586976  0  2.223655  0  0  -0.338013  -0.554125  0  2.241602  0
F  F44  1  0.92176451  0.34505000  0.21859790  1  0  -0.229398  0  1.266962  0  0  -0.184513  0  1.441722  0  0  -0.195765  0  1.428633  0  0  -0.088626  -0.176502  0  1.450552  0
F  F45  1  0.69456549  0.14924994  0.09402827  1  0  -0.230672  0  1.248219  0  0  -0.192711  0  1.433657  0  0  -0.203287  0  1.418783  0  0  -0.087297  -0.185185  0  1.444041  0
F  F46  1  0.98002110  0.13028363  0.11129965  1  0  -0.239249  0  1.24567  0  0  -0.187122  0  1.410507  0  0  -0.198045  0  1.396599  0  0  -0.085922  -0.179348  0  1.420215  0
