# generated using pymatgen
data_TbH4C12(O4F3)2
_symmetry_space_group_name_H-M   'P 1'
_cell_length_a   8.84176118
_cell_length_b   8.84924072
_cell_length_c   11.16896973
_cell_angle_alpha   107.47522535
_cell_angle_beta   110.31514861
_cell_angle_gamma   100.50048893
_symmetry_Int_Tables_number   1
_chemical_formula_structural   TbH4C12(O4F3)2
_chemical_formula_sum   'Tb2 H8 C24 O16 F12'
_cell_volume   740.52983837
_cell_formula_units_Z   2
loop_
 _symmetry_equiv_pos_site_id
 _symmetry_equiv_pos_as_xyz
  1  'x, y, z'
loop_
 _atom_site_type_symbol
 _atom_site_label
 _atom_site_symmetry_multiplicity
 _atom_site_fract_x
 _atom_site_fract_y
 _atom_site_fract_z
 _atom_site_occupancy
 _atom_site_hle17_bader_spin_density
 _atom_site_hle17_ddec_charge
 _atom_site_hle17_ddec_spin_density
 _atom_site_hle17_ddec_sum_bond_order
 _atom_site_hle17_magmom
 _atom_site_hse06_10hf_bader_spin_density
 _atom_site_hse06_10hf_ddec_charge
 _atom_site_hse06_10hf_ddec_spin_density
 _atom_site_hse06_10hf_ddec_sum_bond_order
 _atom_site_hse06_10hf_magmom
 _atom_site_hse06_bader_spin_density
 _atom_site_hse06_ddec_charge
 _atom_site_hse06_ddec_spin_density
 _atom_site_hse06_ddec_sum_bond_order
 _atom_site_hse06_magmom
 _atom_site_pbe_bader_spin_density
 _atom_site_pbe_cm5_charge
 _atom_site_pbe_ddec_charge
 _atom_site_pbe_ddec_spin_density
 _atom_site_pbe_ddec_sum_bond_order
 _atom_site_pbe_magmom
Tb  Tb0  1  0.18607763  0.39489866  0.47052629  1  0  2.26606  0  1.602349  0  0  2.121097  0  2.068781  0  0  2.244525  0  1.885268  0  0  1.500274  2.085662  0  2.099612  0
Tb  Tb1  1  0.92411129  0.71551150  0.52951270  1  0  2.266283  0  1.601  0  0  2.121657  0  2.06678  0  0  2.244833  0  1.883715  0  0  1.500555  2.086268  0  2.097545  0
H  H2  1  0.32180344  0.35671790  0.26095935  1  0  0.461568  0  0.799846  0  0  0.434575  0  0.858238  0  0  0.443885  0  0.844578  0  0  0.326824  0.428177  0  0.867797  0
H  H3  1  0.09562274  0.06041651  0.73898945  1  0  0.460985  0  0.8002  0  0  0.433966  0  0.858913  0  0  0.443258  0  0.845281  0  0  0.326727  0.427516  0  0.868555  0
H  H4  1  0.48464143  0.40947760  0.39584640  1  0  0.466715  0  0.785367  0  0  0.440933  0  0.851373  0  0  0.450395  0  0.83764  0  0  0.331014  0.434426  0  0.860334  0
H  H5  1  0.01329079  0.08834150  0.60415464  1  0  0.465249  0  0.785522  0  0  0.439617  0  0.85251  0  0  0.449051  0  0.838899  0  0  0.330586  0.433148  0  0.860199  0
H  H6  1  0.00311987  0.01409046  0.35064170  1  0  0.468686  0  0.804591  0  0  0.436806  0  0.868784  0  0  0.448017  0  0.852162  0  0  0.31551  0.429135  0  0.880263  0
H  H7  1  0.66306145  0.65224188  0.64941769  1  0  0.469126  0  0.804298  0  0  0.437239  0  0.868488  0  0  0.448438  0  0.851888  0  0  0.315534  0.429561  0  0.879979  0
H  H8  1  0.11891477  0.03588120  0.27420935  1  0  0.453639  0  0.796196  0  0  0.432561  0  0.852712  0  0  0.441408  0  0.839955  0  0  0.330812  0.426522  0  0.860075  0
H  H9  1  0.76104521  0.84442022  0.72572650  1  0  0.453116  0  0.797335  0  0  0.432222  0  0.853384  0  0  0.441093  0  0.840576  0  0  0.330346  0.426197  0  0.860959  0
C  C10  1  0.18901972  0.70074635  0.76790264  1  0  0.752321  0  3.844705  0  0  0.702133  0  4.141516  0  0  0.738124  0  4.135388  0  0  0.231522  0.677583  0  4.150394  0
C  C11  1  0.93283244  0.42124828  0.23213437  1  0  0.753688  0  3.844844  0  0  0.703906  0  4.140996  0  0  0.739928  0  4.134786  0  0  0.232627  0.67929  0  4.149936  0
C  C12  1  0.31925335  0.69883194  0.89753921  1  0  -0.176762  0  3.711134  0  0  -0.180056  0  3.97434  0  0  -0.182567  0  3.985187  0  0  -0.011937  -0.178142  0  3.966523  0
C  C13  1  0.80115722  0.42157729  0.10238531  1  0  -0.175907  0  3.710369  0  0  -0.179496  0  3.973425  0  0  -0.182021  0  3.984297  0  0  -0.011648  -0.177465  0  3.96548  0
C  C14  1  0.27599641  0.59610275  0.96145802  1  0  0.201493  0  3.78157  0  0  0.161815  0  4.090402  0  0  0.170558  0  4.097138  0  0  0.094198  0.155509  0  4.086086  0
C  C15  1  0.63453641  0.31419267  0.03824284  1  0  0.200458  0  3.78141  0  0  0.160923  0  4.090881  0  0  0.169656  0  4.097645  0  0  0.093583  0.15462  0  4.086434  0
C  C16  1  0.39305812  0.60168059  0.08568530  1  0  0.215671  0  3.762968  0  0  0.176203  0  4.07203  0  0  0.186988  0  4.080326  0  0  0.098238  0.168643  0  4.066569  0
C  C17  1  0.51598116  0.30693540  0.91390349  1  0  0.216285  0  3.76088  0  0  0.175597  0  4.070641  0  0  0.18637  0  4.078862  0  0  0.098089  0.168192  0  4.065105  0
C  C18  1  0.56194735  0.71057009  0.15323653  1  0  -0.230798  0  3.738099  0  0  -0.236282  0  4.01053  0  0  -0.245539  0  4.029888  0  0  -0.030591  -0.229875  0  3.997228  0
C  C19  1  0.55738627  0.40836914  0.84649270  1  0  -0.232747  0  3.741386  0  0  -0.236493  0  4.011892  0  0  -0.245576  0  4.03104  0  0  -0.031383  -0.230186  0  3.998738  0
C  C20  1  0.60518069  0.80943160  0.08486113  1  0  0.212508  0  3.77713  0  0  0.172602  0  4.088435  0  0  0.183498  0  4.096678  0  0  0.095517  0.165125  0  4.082852  0
C  C21  1  0.72468231  0.52007882  0.91507515  1  0  0.213461  0  3.780814  0  0  0.172531  0  4.092222  0  0  0.183395  0  4.100436  0  0  0.096129  0.164904  0  4.086828  0
C  C22  1  0.48695055  0.80307179  0.96094051  1  0  0.2018  0  3.789345  0  0  0.159678  0  4.099839  0  0  0.168254  0  4.106728  0  0  0.091922  0.153499  0  4.095366  0
C  C23  1  0.84209879  0.52588862  0.03906643  1  0  0.201115  0  3.787678  0  0  0.159622  0  4.097854  0  0  0.168141  0  4.104787  0  0  0.091667  0.153427  0  4.093409  0
C  C24  1  0.29509224  0.79524255  0.50006671  1  0  0.778471  0  3.822454  0  0  0.730586  0  4.117364  0  0  0.767754  0  4.105905  0  0  0.244956  0.705816  0  4.126951  0
C  C25  1  0.42902997  0.92909829  0.50001159  1  0  -0.183193  0  3.729556  0  0  -0.189731  0  3.993814  0  0  -0.1924  0  4.003916  0  0  -0.016209  -0.187697  0  3.98611  0
C  C26  1  0.41558368  0.95015207  0.37884770  1  0  0.191058  0  3.797783  0  0  0.157297  0  4.099208  0  0  0.166007  0  4.107109  0  0  0.090088  0.151165  0  4.093811  0
C  C27  1  0.57119534  0.03671340  0.62126855  1  0  0.193284  0  3.797627  0  0  0.159827  0  4.098732  0  0  0.168542  0  4.106646  0  0  0.09104  0.153721  0  4.093371  0
C  C28  1  0.53905814  0.07150386  0.37826752  1  0  0.200217  0  3.815883  0  0  0.166534  0  4.117226  0  0  0.176303  0  4.124775  0  0  0.090829  0.159794  0  4.112018  0
C  C29  1  0.69316968  0.16101574  0.62215996  1  0  0.196824  0  3.816882  0  0  0.162795  0  4.118857  0  0  0.172552  0  4.126396  0  0  0.089226  0.156012  0  4.113643  0
C  C30  1  0.67968320  0.17996123  0.50028732  1  0  -0.208003  0  3.7654  0  0  -0.214327  0  4.031026  0  0  -0.218605  0  4.042133  0  0  -0.023936  -0.211272  0  4.022658  0
C  C31  1  0.68664244  0.72090054  0.28950930  1  0  0.66782  0  3.924861  0  0  0.622785  0  4.225064  0  0  0.654237  0  4.227639  0  0  0.190165  0.600607  0  4.228633  0
C  C32  1  0.43140787  0.39701378  0.71029336  1  0  0.669151  0  3.926659  0  0  0.624182  0  4.226225  0  0  0.65559  0  4.228795  0  0  0.191145  0.602017  0  4.229819  0
C  C33  1  0.81280773  0.31304238  0.50024254  1  0  0.77563  0  3.826474  0  0  0.726  0  4.122308  0  0  0.763581  0  4.110441  0  0  0.247947  0.700971  0  4.132034  0
O  O34  1  0.36458255  0.34044651  0.34772130  1  0  -0.883379  0  1.823192  0  0  -0.837636  0  2.020054  0  0  -0.864622  0  1.985011  0  0  -0.614914  -0.825091  0  2.03932  0
O  O35  1  0.99239087  0.01656798  0.65236073  1  0  -0.881005  0  1.823112  0  0  -0.835259  0  2.021613  0  0  -0.862147  0  1.986694  0  0  -0.614299  -0.822693  0  2.039743  0
O  O36  1  0.10177648  0.09256360  0.35527735  1  0  -0.898321  0  1.843952  0  0  -0.854771  0  2.045679  0  0  -0.882505  0  2.008622  0  0  -0.622447  -0.841925  0  2.065098  0
O  O37  1  0.73689426  0.74623705  0.64476319  1  0  -0.898821  0  1.84477  0  0  -0.855783  0  2.046186  0  0  -0.883544  0  2.009223  0  0  -0.622727  -0.842986  0  2.065818  0
O  O38  1  0.16217377  0.59674991  0.64939372  1  0  -0.812068  0  2.176366  0  0  -0.754317  0  2.433396  0  0  -0.799682  0  2.423506  0  0  -0.40937  -0.734459  0  2.438207  0
O  O39  1  0.94731889  0.51293659  0.35064086  1  0  -0.812801  0  2.178868  0  0  -0.755319  0  2.435854  0  0  -0.80068  0  2.425908  0  0  -0.409689  -0.735518  0  2.440866  0
O  O40  1  0.10998553  0.80472269  0.78112077  1  0  -0.643072  0  1.901101  0  0  -0.606275  0  2.127745  0  0  -0.636912  0  2.114473  0  0  -0.345359  -0.590235  0  2.135333  0
O  O41  1  0.02368807  0.32909933  0.21892887  1  0  -0.643774  0  1.900342  0  0  -0.606923  0  2.126631  0  0  -0.6376  0  2.113287  0  0  -0.346012  -0.590866  0  2.134261  0
O  O42  1  0.31084793  0.65132319  0.46941407  1  0  -0.706752  0  2.022811  0  0  -0.664686  0  2.275689  0  0  -0.70011  0  2.260606  0  0  -0.382874  -0.64673  0  2.282742  0
O  O43  1  0.18180606  0.84174669  0.53081428  1  0  -0.706392  0  2.021369  0  0  -0.664179  0  2.273828  0  0  -0.699585  0  2.258783  0  0  -0.382544  -0.646265  0  2.280856  0
O  O44  1  0.93378843  0.27004508  0.48054453  1  0  -0.69493  0  2.002877  0  0  -0.64645  0  2.252455  0  0  -0.681909  0  2.237302  0  0  -0.37195  -0.628339  0  2.259934  0
O  O45  1  0.78935028  0.45355571  0.51984239  1  0  -0.695687  0  2.003016  0  0  -0.647107  0  2.252205  0  0  -0.68251  0  2.237029  0  0  -0.372272  -0.628926  0  2.259711  0
O  O46  1  0.64394277  0.61839591  0.34009322  1  0  -0.66792  0  1.979248  0  0  -0.631321  0  2.22182  0  0  -0.661586  0  2.212343  0  0  -0.375734  -0.615856  0  2.227595  0
O  O47  1  0.27824951  0.30372817  0.65961076  1  0  -0.667828  0  1.980575  0  0  -0.63137  0  2.223037  0  0  -0.661715  0  2.213711  0  0  -0.37577  -0.615853  0  2.228699  0
O  O48  1  0.83502816  0.83141171  0.35362750  1  0  -0.698065  0  1.967177  0  0  -0.652808  0  2.206288  0  0  -0.684659  0  2.196608  0  0  -0.37492  -0.636148  0  2.212223  0
O  O49  1  0.47787825  0.48148616  0.64634399  1  0  -0.698772  0  1.970607  0  0  -0.653825  0  2.210088  0  0  -0.685693  0  2.200439  0  0  -0.375323  -0.637101  0  2.215955  0
F  F50  1  0.11692076  0.48769560  0.90194635  1  0  -0.141875  0  1.260578  0  0  -0.102212  0  1.438551  0  0  -0.109501  0  1.426705  0  0  -0.080234  -0.096863  0  1.446583  0
F  F51  1  0.58548160  0.21461412  0.09765192  1  0  -0.141275  0  1.25884  0  0  -0.101549  0  1.436741  0  0  -0.108835  0  1.424906  0  0  -0.079882  -0.096188  0  1.444737  0
F  F52  1  0.33441633  0.49703644  0.13787484  1  0  -0.159218  0  1.272112  0  0  -0.102963  0  1.435577  0  0  -0.110136  0  1.423143  0  0  -0.071036  -0.097582  0  1.443917  0
F  F53  1  0.35909911  0.19598473  0.86150889  1  0  -0.159227  0  1.269628  0  0  -0.103012  0  1.433622  0  0  -0.110179  0  1.421175  0  0  -0.070998  -0.097585  0  1.441971  0
F  F54  1  0.76417086  0.91464500  0.13513286  1  0  -0.15395  0  1.268508  0  0  -0.101148  0  1.435692  0  0  -0.108329  0  1.42371  0  0  -0.073393  -0.095692  0  1.443742  0
F  F55  1  0.77974461  0.62871475  0.86482895  1  0  -0.153919  0  1.270154  0  0  -0.100236  0  1.437002  0  0  -0.107446  0  1.425069  0  0  -0.073208  -0.09481  0  1.445035  0
F  F56  1  0.53814517  0.90000291  0.90045415  1  0  -0.155639  0  1.284121  0  0  -0.10694  0  1.456253  0  0  -0.11429  0  1.444275  0  0  -0.081807  -0.10155  0  1.464344  0
F  F57  1  0.99948495  0.63774035  0.09976753  1  0  -0.155441  0  1.281373  0  0  -0.10731  0  1.453682  0  0  -0.114652  0  1.441727  0  0  -0.081811  -0.101929  0  1.46181  0
F  F58  1  0.27771223  0.85286013  0.25699901  1  0  -0.161826  0  1.271572  0  0  -0.119204  0  1.450889  0  0  -0.12757  0  1.439722  0  0  -0.081421  -0.113053  0  1.45836  0
F  F59  1  0.59564808  0.02022655  0.74293680  1  0  -0.162435  0  1.273217  0  0  -0.11998  0  1.452727  0  0  -0.128342  0  1.441541  0  0  -0.081796  -0.113849  0  1.460212  0
F  F60  1  0.51990743  0.08418463  0.25657721  1  0  -0.155976  0  1.27284  0  0  -0.113958  0  1.451756  0  0  -0.122054  0  1.440801  0  0  -0.085087  -0.108005  0  1.459028  0
F  F61  1  0.82747516  0.26327501  0.74395910  1  0  -0.154905  0  1.273489  0  0  -0.112761  0  1.452624  0  0  -0.120879  0  1.44169  0  0  -0.084496  -0.106771  0  1.459886  0
