# generated using pymatgen
data_CuH19C18N3O8
_symmetry_space_group_name_H-M   'P 1'
_cell_length_a   4.76895405
_cell_length_b   20.24199506
_cell_length_c   21.03836921
_cell_angle_alpha   90.00034568
_cell_angle_beta   90.00097361
_cell_angle_gamma   90.00057691
_symmetry_Int_Tables_number   1
_chemical_formula_structural   CuH19C18N3O8
_chemical_formula_sum   'Cu4 H76 C72 N12 O32'
_cell_volume   2030.89993223
_cell_formula_units_Z   4
loop_
 _symmetry_equiv_pos_site_id
 _symmetry_equiv_pos_as_xyz
  1  'x, y, z'
loop_
 _atom_site_type_symbol
 _atom_site_label
 _atom_site_symmetry_multiplicity
 _atom_site_fract_x
 _atom_site_fract_y
 _atom_site_fract_z
 _atom_site_occupancy
 _atom_site_pbe_bader_charge
 _atom_site_pbe_bader_spin_density
 _atom_site_pbe_cm5_charge
 _atom_site_pbe_ddec_charge
 _atom_site_pbe_ddec_spin_density
 _atom_site_pbe_ddec_sum_bond_order
 _atom_site_pbe_magmom
Cu  Cu0  1  0.99952438  0.95256782  0.77314682  1  1.110435  0.586773  0.725891  0.862639  0.769974  2.220061  0.586
Cu  Cu1  1  0.00049987  0.04743097  0.27314869  1  1.110358  -0.586776  0.725912  0.862588  -0.769985  2.220212  -0.586
Cu  Cu2  1  0.00048960  0.45256504  0.77314774  1  1.110272  -0.586772  0.725948  0.862683  -0.769975  2.220096  -0.586
Cu  Cu3  1  0.99946545  0.54743227  0.27313684  1  1.110317  0.586778  0.725969  0.862566  0.769992  2.220225  0.586
H  H4  1  0.35706822  0.20030942  0.84424778  1  0.667865  -0.00028  0.302116  0.363662  -0.000307  0.976824  0.0
H  H5  1  0.64301171  0.79968982  0.34425837  1  0.667557  0.00028  0.30222  0.3637  0.000307  0.976795  0.0
H  H6  1  0.64297388  0.70031383  0.84426309  1  0.667756  0.00028  0.302192  0.363744  0.000307  0.976725  0.0
H  H7  1  0.35700959  0.29969776  0.34424924  1  0.667928  -0.00028  0.302261  0.363929  -0.000306  0.976463  0.0
H  H8  1  0.31105909  0.23321700  0.62829854  1  0.553966  -0.000351  0.301568  0.278731  -0.000405  1.030983  0.0
H  H9  1  0.68893958  0.76678186  0.12829580  1  0.553891  0.000351  0.301533  0.278648  0.000405  1.031066  0.0
H  H10  1  0.68897655  0.73321609  0.62830119  1  0.553917  0.000351  0.301541  0.278724  0.000405  1.031086  0.0
H  H11  1  0.31105358  0.26678228  0.12829839  1  0.553945  -0.000351  0.301563  0.278725  -0.000405  1.0309  0.0
H  H12  1  0.00558521  0.21800550  0.40906847  1  0.557841  1.8e-05  0.304437  0.262925  -6.7e-05  1.022385  0.0
H  H13  1  0.99439265  0.78200798  0.90907035  1  0.557841  -1.8e-05  0.304442  0.26298  6.8e-05  1.02224  0.0
H  H14  1  0.99443327  0.71799246  0.40906991  1  0.557931  -1.8e-05  0.304416  0.262746  6.8e-05  1.022479  0.0
H  H15  1  0.00555717  0.28199286  0.90906653  1  0.557893  1.8e-05  0.30446  0.262938  -6.8e-05  1.022369  0.0
H  H16  1  0.81683019  0.09416502  0.75804966  1  0.14177  0.002303  0.121955  0.099457  0.001114  1.003646  0.002
H  H17  1  0.18323486  0.90584109  0.25804294  1  0.141371  -0.002306  0.122009  0.099662  -0.001115  1.003472  -0.002
H  H18  1  0.18324282  0.59415599  0.75804324  1  0.141273  -0.002305  0.12198  0.099632  -0.001115  1.003465  -0.002
H  H19  1  0.81676142  0.40582838  0.25804318  1  0.141474  0.002305  0.121988  0.099562  0.001114  1.003475  0.002
H  H20  1  0.97008768  0.18980428  0.69214826  1  0.075429  0.001087  0.113698  0.134415  0.000543  1.01643  0.001
H  H21  1  0.02995983  0.81019845  0.19214515  1  0.075497  -0.001087  0.113675  0.134382  -0.000543  1.016577  -0.001
H  H22  1  0.02997188  0.68979884  0.69214743  1  0.075511  -0.001087  0.113632  0.134299  -0.000543  1.016578  -0.001
H  H23  1  0.97005676  0.31018906  0.19214455  1  0.075268  0.001087  0.113653  0.134323  0.000543  1.016554  0.001
H  H24  1  0.54687735  0.05681264  0.59707981  1  0.096737  0.000902  0.11141  0.129966  0.000469  1.00797  0.0
H  H25  1  0.45311268  0.94318505  0.09708622  1  0.096834  -0.000902  0.111384  0.129874  -0.000469  1.008081  0.0
H  H26  1  0.45308969  0.55681462  0.59709154  1  0.096914  -0.000902  0.111399  0.12989  -0.000469  1.008058  0.0
H  H27  1  0.54684582  0.44318998  0.09708400  1  0.09698  0.000901  0.111359  0.129884  0.000469  1.00811  0.0
H  H28  1  0.35965912  0.96770505  0.66401123  1  0.106665  0.002164  0.126305  0.104899  0.001004  0.97596  0.002
H  H29  1  0.64033385  0.03229355  0.16401784  1  0.106721  -0.002164  0.126297  0.104931  -0.001004  0.975799  -0.002
H  H30  1  0.64031584  0.46770477  0.66401745  1  0.106832  -0.002164  0.12627  0.104907  -0.001004  0.975884  -0.002
H  H31  1  0.35958277  0.53229581  0.16401066  1  0.106702  0.002164  0.126371  0.105009  0.001004  0.975866  0.002
H  H32  1  0.96439754  0.30584652  0.48146543  1  0.202697  1.3e-05  0.133494  0.124461  1.1e-05  1.013935  0.0
H  H33  1  0.03563190  0.69415852  0.98145315  1  0.202757  -1.3e-05  0.13344  0.124345  -1.1e-05  1.013787  0.0
H  H34  1  0.03564063  0.80584159  0.48145797  1  0.202838  -1.3e-05  0.133469  0.124348  -1.1e-05  1.013701  0.0
H  H35  1  0.96437413  0.19415308  0.98146299  1  0.202667  1.3e-05  0.133432  0.124261  1.1e-05  1.013918  0.0
H  H36  1  0.65318174  0.29446912  0.57778501  1  0.152776  2.8e-05  0.125143  0.149422  1.7e-05  0.981048  0.0
H  H37  1  0.34689700  0.70552943  0.07776872  1  0.15229  -2.8e-05  0.125129  0.149354  -1.7e-05  0.981109  0.0
H  H38  1  0.34687998  0.79446789  0.57777636  1  0.152184  -2.8e-05  0.125121  0.149306  -1.7e-05  0.981165  0.0
H  H39  1  0.65317151  0.20553313  0.07778497  1  0.15254  2.8e-05  0.125123  0.149437  1.7e-05  0.980973  0.0
H  H40  1  0.45064634  0.09699258  0.51147045  1  0.096678  4.3e-05  0.110731  0.121917  3.9e-05  1.053858  0.0
H  H41  1  0.54936032  0.90301543  0.01147747  1  0.0966  -4.3e-05  0.110731  0.121944  -3.9e-05  1.053858  0.0
H  H42  1  0.54934323  0.59698294  0.51148349  1  0.096592  -4.3e-05  0.11074  0.121996  -3.9e-05  1.05375  0.0
H  H43  1  0.45064035  0.40300877  0.01147250  1  0.096696  4.3e-05  0.110728  0.121944  3.9e-05  1.053808  0.0
H  H44  1  0.76765619  0.11769369  0.41859700  1  0.176583  -0.00011  0.13164  0.118383  -0.000101  1.00205  0.0
H  H45  1  0.23232868  0.88231985  0.91860319  1  0.176645  0.00011  0.131667  0.118401  0.0001  1.002107  0.0
H  H46  1  0.23233566  0.61767836  0.41860550  1  0.176522  0.00011  0.131654  0.118369  0.000101  1.002074  0.0
H  H47  1  0.76764502  0.38230702  0.91859754  1  0.176971  -0.00011  0.13164  0.118402  -0.000101  1.002039  0.0
H  H48  1  0.49534669  0.87479422  0.76019786  1  0.138811  -0.000763  0.11234  0.111549  -0.00064  1.025624  0.0
H  H49  1  0.50467449  0.12521239  0.26020924  1  0.138817  0.000763  0.112272  0.111486  0.00064  1.025579  0.0
H  H50  1  0.50465251  0.37478719  0.76021022  1  0.138947  0.000763  0.112277  0.111556  0.00064  1.025482  0.0
H  H51  1  0.49527431  0.62520905  0.26021067  1  0.138829  -0.000763  0.112336  0.111504  -0.00064  1.025868  0.0
H  H52  1  0.29687962  0.77910610  0.70137896  1  0.05828  0.000461  0.087593  0.120499  0.000227  1.035968  0.0
H  H53  1  0.70315810  0.22090114  0.20139117  1  0.058226  -0.000461  0.08757  0.120424  -0.000227  1.035889  0.0
H  H54  1  0.70315299  0.27910152  0.70139065  1  0.058445  -0.000461  0.087558  0.120386  -0.000227  1.035982  0.0
H  H55  1  0.29678408  0.72089435  0.20139089  1  0.057766  0.000462  0.08761  0.120435  0.000227  1.035916  0.0
H  H56  1  0.28840468  0.76364937  0.78463392  1  0.044912  0.000616  0.088029  0.125951  0.000299  1.017818  0.0
H  H57  1  0.71157011  0.23636283  0.28464721  1  0.044762  -0.000617  0.088013  0.12591  -0.000299  1.017928  0.0
H  H58  1  0.71156645  0.26363938  0.78464612  1  0.044763  -0.000616  0.088018  0.125946  -0.000299  1.017878  0.0
H  H59  1  0.28839786  0.73635603  0.28464642  1  0.0446  0.000617  0.087991  0.125916  0.000299  1.018019  0.0
H  H60  1  0.54465321  0.72467511  0.73693716  1  0.0659  -1e-05  0.085912  0.115583  -3e-06  1.039813  0.0
H  H61  1  0.45534106  0.27532938  0.23693924  1  0.065394  1.1e-05  0.085955  0.115593  3e-06  1.039842  0.0
H  H62  1  0.45534621  0.22466945  0.73693745  1  0.065447  1e-05  0.085951  0.115595  3e-06  1.039824  0.0
H  H63  1  0.54460612  0.77532319  0.23693515  1  0.065471  -1e-05  0.085903  0.115545  -3e-06  1.039906  0.0
H  H64  1  0.78759463  0.06456697  0.86947831  1  0.095475  0.001555  0.110824  0.122205  0.000815  1.000481  0.001
H  H65  1  0.21243896  0.93542700  0.36948327  1  0.095588  -0.001555  0.110911  0.122267  -0.000815  1.000359  -0.001
H  H66  1  0.21243727  0.56457036  0.86948293  1  0.095584  -0.001555  0.110892  0.122212  -0.000815  1.000483  -0.001
H  H67  1  0.78757536  0.43544287  0.36946582  1  0.108957  0.001543  0.110903  0.122123  0.000814  1.000625  0.001
H  H68  1  0.72317715  0.97291731  0.94414725  1  -0.003675  7e-05  0.087767  0.120435  1.3e-05  1.010336  0.0
H  H69  1  0.27682222  0.02708651  0.44414055  1  -0.003754  -7e-05  0.087811  0.120425  -1.3e-05  1.010205  0.0
H  H70  1  0.27682331  0.47291222  0.94414019  1  -0.00378  -7e-05  0.08781  0.120395  -1.3e-05  1.010188  0.0
H  H71  1  0.72318026  0.52709852  0.44412526  1  -0.003677  7e-05  0.087937  0.120612  1.3e-05  1.010226  0.0
H  H72  1  0.39541480  0.00717426  0.97102661  1  0.047735  0.000282  0.087714  0.117726  0.000174  1.014273  0.0
H  H73  1  0.60459499  0.99283961  0.47102723  1  0.047511  -0.000282  0.087713  0.117671  -0.000174  1.014234  0.0
H  H74  1  0.60459294  0.50716277  0.97102704  1  0.047545  -0.000282  0.087688  0.117654  -0.000174  1.014254  0.0
H  H75  1  0.39543572  0.49284863  0.47101398  1  0.047409  0.000282  0.087757  0.117786  0.000174  1.014157  0.0
H  H76  1  0.71712412  0.04922983  0.98599096  1  0.043089  7e-05  0.093781  0.130976  2.1e-05  0.990568  0.0
H  H77  1  0.28290776  0.95078018  0.48599534  1  0.042788  -7e-05  0.093762  0.130898  -2.1e-05  0.990537  0.0
H  H78  1  0.28290332  0.54921956  0.98599491  1  0.042753  -7e-05  0.093763  0.130885  -2.1e-05  0.990545  0.0
H  H79  1  0.71713695  0.45079490  0.48597809  1  0.042753  6.9e-05  0.093756  0.130893  2.1e-05  0.990553  0.0
C  C80  1  0.97556579  0.08819038  0.72124719  1  0.466987  -0.00016  0.048384  0.111392  0.000748  3.954038  0.0
C  C81  1  0.02448181  0.91181648  0.22124655  1  0.46651  0.000162  0.048329  0.111256  -0.000747  3.9542  0.0
C  C82  1  0.02448742  0.58818197  0.72124586  1  0.467092  0.000161  0.048396  0.111369  -0.000747  3.954154  0.0
C  C83  1  0.97550776  0.41180711  0.22124360  1  0.46597  -0.000161  0.048419  0.111438  0.000747  3.954279  0.0
C  C84  1  0.06079262  0.14113555  0.68441859  1  0.023819  0.005843  -0.093518  -0.232715  0.004023  3.925426  0.005
C  C85  1  0.93925011  0.85886615  0.18441782  1  0.024306  -0.005845  -0.093466  -0.232579  -0.004025  3.925351  -0.005
C  C86  1  0.93925798  0.64113029  0.68441935  1  0.0237  -0.005844  -0.093425  -0.232501  -0.004024  3.925318  -0.005
C  C87  1  0.06074910  0.35886054  0.18441469  1  0.02464  0.005844  -0.093468  -0.23259  0.004024  3.925384  0.005
C  C88  1  0.27017202  0.13224522  0.63787116  1  0.384471  -0.002793  0.116993  0.273472  -0.001921  4.044978  -0.002
C  C89  1  0.72984205  0.86775420  0.13787344  1  0.384789  0.002794  0.116981  0.273354  0.001921  4.044953  0.002
C  C90  1  0.72984325  0.63224440  0.63787729  1  0.384891  0.002793  0.116985  0.273445  0.001921  4.045053  0.002
C  C91  1  0.27014356  0.36775354  0.13787111  1  0.384838  -0.002794  0.117002  0.273492  -0.001921  4.044871  -0.002
C  C92  1  0.37787741  0.06797745  0.62997513  1  -0.044425  0.005594  -0.097347  -0.244709  0.003793  3.947511  0.004
C  C93  1  0.62212349  0.93202044  0.12997974  1  -0.044294  -0.005595  -0.097285  -0.244474  -0.003794  3.947426  -0.004
C  C94  1  0.62211775  0.56797835  0.62998227  1  -0.044408  -0.005594  -0.097302  -0.244468  -0.003794  3.947548  -0.004
C  C95  1  0.37784121  0.43202250  0.12997593  1  -0.044122  0.005594  -0.097202  -0.244508  0.003794  3.947655  0.004
C  C96  1  0.27795440  0.01768004  0.66846780  1  0.566698  -0.000758  0.053744  0.127433  0.000221  3.947172  0.0
C  C97  1  0.72204939  0.98232106  0.16847213  1  0.566527  0.000759  0.053675  0.127329  -0.00022  3.946827  0.0
C  C98  1  0.72203521  0.51767772  0.66847342  1  0.5665  0.000758  0.053701  0.127392  -0.000221  3.947037  0.0
C  C99  1  0.27789938  0.48232091  0.16846841  1  0.566645  -0.000758  0.053619  0.127217  0.00022  3.94714  -0.001
C  C100  1  0.84234925  0.26152173  0.49148248  1  0.424199  -4e-06  0.065264  0.105087  2.1e-05  3.871826  0.0
C  C101  1  0.15769353  0.73848486  0.99147377  1  0.424102  3e-06  0.065337  0.105279  -2.1e-05  3.871647  0.0
C  C102  1  0.15769618  0.76151363  0.49147834  1  0.424213  4e-06  0.065338  0.105311  -2.1e-05  3.871646  0.0
C  C103  1  0.84232773  0.23847962  0.99148172  1  0.424345  -4e-06  0.065367  0.105382  2.1e-05  3.871697  0.0
C  C104  1  0.67341465  0.25412815  0.54392441  1  0.007609  -0.000315  -0.074689  -0.207286  -0.000199  3.894842  0.0
C  C105  1  0.32662590  0.74587513  0.04391636  1  0.008062  0.000315  -0.074616  -0.207228  0.000199  3.894888  0.0
C  C106  1  0.32662602  0.75412292  0.54392044  1  0.008005  0.000315  -0.074579  -0.207122  0.000199  3.894894  0.0
C  C107  1  0.67340614  0.24587443  0.04392461  1  0.007826  -0.000314  -0.074684  -0.207341  -0.000199  3.894799  0.0
C  C108  1  0.53257154  0.19345613  0.55433970  1  0.447748  -8e-05  0.132819  0.29285  -0.0001  4.020298  0.0
C  C109  1  0.46745092  0.80654721  0.05433539  1  0.448021  7.9e-05  0.132744  0.29269  0.0001  4.020657  0.0
C  C110  1  0.46744425  0.69345173  0.55434245  1  0.448589  7.9e-05  0.132706  0.29275  0.0001  4.020426  0.0
C  C111  1  0.53255933  0.30654470  0.05434167  1  0.447775  -8e-05  0.132814  0.292782  -0.0001  4.0204  0.0
C  C112  1  0.56449816  0.14321444  0.50814830  1  0.002593  -0.000325  -0.094942  -0.251558  -0.000194  3.965915  0.0
C  C113  1  0.43551453  0.85679208  0.00815081  1  0.002767  0.000324  -0.094827  -0.251381  0.000193  3.966003  0.0
C  C114  1  0.43549943  0.64320650  0.50815758  1  0.002079  0.000324  -0.094821  -0.251431  0.000193  3.965673  0.0
C  C115  1  0.56449020  0.35678618  0.00815056  1  0.002723  -0.000325  -0.094833  -0.251393  -0.000194  3.965508  0.0
C  C116  1  0.73430306  0.15386757  0.45623921  1  0.424254  -0.000161  0.059414  0.102412  -0.000145  3.906359  0.0
C  C117  1  0.26568884  0.84614521  0.95624247  1  0.424869  0.000161  0.05932  0.102197  0.000145  3.90613  0.0
C  C118  1  0.26569317  0.65385380  0.45624594  1  0.42565  0.000161  0.059334  0.102193  0.000145  3.906085  0.0
C  C119  1  0.73429244  0.34613280  0.95623955  1  0.423783  -0.000161  0.059275  0.102175  -0.000145  3.906012  0.0
C  C120  1  0.80942925  0.84371791  0.69589538  1  1.590065  -0.002607  0.212981  0.618049  -0.000512  4.127855  -0.003
C  C121  1  0.19060596  0.15627990  0.19589480  1  1.58988  0.002607  0.212894  0.618015  0.000511  4.127408  0.003
C  C122  1  0.19059314  0.34371508  0.69589513  1  1.589847  0.002607  0.212891  0.618106  0.000511  4.127628  0.003
C  C123  1  0.80931835  0.65627088  0.19588555  1  1.58941  -0.00261  0.212664  0.61792  -0.000512  4.127692  -0.003
C  C124  1  0.61978785  0.82923856  0.75359289  1  -0.063577  0.001679  -0.098927  -0.240484  0.00074  3.932331  0.001
C  C125  1  0.38022235  0.17076505  0.25359740  1  -0.063573  -0.001679  -0.098771  -0.240416  -0.00074  3.932266  -0.001
C  C126  1  0.38020681  0.32923371  0.75359621  1  -0.06373  -0.001678  -0.098797  -0.24052  -0.00074  3.93225  -0.001
C  C127  1  0.61973419  0.67076101  0.25359265  1  -0.064179  0.001678  -0.098887  -0.24063  0.000739  3.932542  0.001
C  C128  1  0.79854199  0.82489996  0.81354464  1  1.548951  -0.00172  0.2218  0.618619  -0.000151  4.086099  -0.002
C  C129  1  0.20144126  0.17510649  0.31354706  1  1.549003  0.001717  0.221686  0.618478  0.000151  4.085927  0.002
C  C130  1  0.20142134  0.32488925  0.81354062  1  1.54939  0.001719  0.221649  0.618343  0.000152  4.085856  0.002
C  C131  1  0.79855143  0.67510337  0.31353349  1  1.549434  -0.001721  0.221693  0.61838  -0.000153  4.085854  -0.002
C  C132  1  0.42675018  0.77061019  0.74357304  1  -0.113335  -0.0  -0.257541  -0.369082  0.000115  3.967356  0.0
C  C133  1  0.57325088  0.22939583  0.24358195  1  -0.112744  0.0  -0.257566  -0.369023  -0.000115  3.967415  0.0
C  C134  1  0.57324751  0.27060480  0.74358090  1  -0.113049  -0.0  -0.257546  -0.368994  -0.000115  3.967357  0.0
C  C135  1  0.42669274  0.72939084  0.24357884  1  -0.111636  -0.0  -0.257567  -0.368967  0.000115  3.967544  0.0
C  C136  1  0.42795372  0.01077036  0.83876834  1  1.582767  -0.001181  0.209921  0.619237  -0.000158  4.126639  -0.003
C  C137  1  0.57206918  0.98922341  0.33877356  1  1.582803  0.001182  0.209948  0.619179  0.000159  4.126695  0.003
C  C138  1  0.57206309  0.51077263  0.83877291  1  1.582899  0.001183  0.209931  0.619235  0.000159  4.126524  0.003
C  C139  1  0.42790948  0.48923201  0.33875996  1  1.582657  -0.001181  0.209883  0.619096  -0.000159  4.12662  -0.003
C  C140  1  0.57697241  0.05450650  0.88807390  1  0.027448  0.007928  -0.092847  -0.220102  0.005734  3.894815  0.006
C  C141  1  0.42305419  0.94548511  0.38807878  1  0.027334  -0.007931  -0.09294  -0.21997  -0.005736  3.894287  -0.006
C  C142  1  0.42305207  0.55451237  0.88807790  1  0.027325  -0.007931  -0.092944  -0.21996  -0.005737  3.89422  -0.006
C  C143  1  0.57695566  0.44550098  0.38806242  1  0.014265  0.007936  -0.093037  -0.220046  0.005734  3.89451  0.006
C  C144  1  0.42175549  0.11966444  0.89345016  1  1.512699  0.000376  0.231593  0.622637  0.000318  4.064051  0.0
C  C145  1  0.57828620  0.88032424  0.39347237  1  1.514266  -0.000375  0.231819  0.622491  -0.000318  4.064106  0.0
C  C146  1  0.57828267  0.61967660  0.89347330  1  1.513773  -0.000375  0.231758  0.622397  -0.000318  4.064216  0.0
C  C147  1  0.42175692  0.38034221  0.39345256  1  1.512623  0.000375  0.231944  0.622855  0.000318  4.063973  0.0
C  C148  1  0.60332153  0.01860563  0.95154882  1  -0.031384  -3.6e-05  -0.241005  -0.353195  4e-05  3.948245  0.0
C  C149  1  0.39669727  0.98140021  0.45154906  1  -0.030984  3.6e-05  -0.241066  -0.353171  -4e-05  3.948  0.0
C  C150  1  0.39669361  0.51860007  0.95154797  1  -0.030916  3.6e-05  -0.241031  -0.353086  -4e-05  3.947935  0.0
C  C151  1  0.60332728  0.48141318  0.45153327  1  -0.030796  -3.6e-05  -0.241202  -0.353398  4e-05  3.948122  0.0
N  N152  1  0.08236415  0.02709503  0.71368388  1  -1.237565  0.090754  -0.355943  -0.251798  0.061794  3.617931  0.078
N  N153  1  0.91766192  0.97290685  0.21368559  1  -1.237431  -0.090776  -0.355931  -0.251906  -0.061807  3.618298  -0.078
N  N154  1  0.91765862  0.52709120  0.71368455  1  -1.237497  -0.090766  -0.355955  -0.252044  -0.061801  3.618216  -0.078
N  N155  1  0.08229405  0.47290228  0.21368064  1  -1.237601  0.090756  -0.356024  -0.251905  0.061795  3.618316  0.078
N  N156  1  0.36682637  0.18801148  0.60700837  1  -1.312859  -0.001713  -0.389333  -0.335525  -0.001037  3.598718  -0.001
N  N157  1  0.63320005  0.81198874  0.10700806  1  -1.313133  0.001713  -0.389242  -0.335344  0.001037  3.598635  0.001
N  N158  1  0.63320154  0.68800945  0.60701366  1  -1.313261  0.001713  -0.389241  -0.335648  0.001037  3.598949  0.001
N  N159  1  0.36681440  0.31198781  0.10700895  1  -1.31321  -0.001713  -0.389361  -0.335555  -0.001037  3.598699  -0.001
N  N160  1  0.87170313  0.21166241  0.44911409  1  -1.310926  -0.000408  -0.35122  -0.15135  -0.000287  3.678931  0.0
N  N161  1  0.12830081  0.78834835  0.94911269  1  -1.31184  0.000408  -0.351315  -0.151395  0.000287  3.678808  0.0
N  N162  1  0.12830762  0.71165078  0.44911554  1  -1.312295  0.000408  -0.351277  -0.151233  0.000287  3.67907  0.0
N  N163  1  0.87168374  0.28833775  0.94911362  1  -1.311028  -0.000408  -0.351249  -0.151368  -0.000287  3.678948  0.0
O  O164  1  0.96131279  0.89601630  0.69753474  1  -1.130235  0.104268  -0.333471  -0.564264  0.068884  2.359192  0.095
O  O165  1  0.03873932  0.10397807  0.19753707  1  -1.130084  -0.104285  -0.333419  -0.564154  -0.068895  2.359118  -0.095
O  O166  1  0.03872244  0.39601508  0.69753722  1  -1.129949  -0.104275  -0.333465  -0.564212  -0.068889  2.359053  -0.095
O  O167  1  0.96118498  0.60396743  0.19752128  1  -1.12971  0.104296  -0.333389  -0.564113  0.068901  2.358975  0.095
O  O168  1  0.81258878  0.80518599  0.64906655  1  -1.187411  0.015205  -0.316977  -0.536488  0.009851  2.189659  0.013
O  O169  1  0.18748904  0.19480511  0.14905810  1  -1.187262  -0.01521  -0.316931  -0.536498  -0.009854  2.189116  -0.013
O  O170  1  0.18747037  0.30518809  0.64905916  1  -1.187402  -0.015207  -0.316875  -0.536515  -0.009852  2.189422  -0.013
O  O171  1  0.81236630  0.69478473  0.14904364  1  -1.187351  0.015207  -0.316728  -0.536402  0.009852  2.189579  0.013
O  O172  1  0.95766024  0.87332971  0.82842979  1  -1.13407  0.080012  -0.325434  -0.549696  0.053245  2.345799  0.073
O  O173  1  0.04235139  0.12667239  0.32842990  1  -1.134065  -0.079981  -0.325399  -0.549663  -0.053226  2.345794  -0.073
O  O174  1  0.04230838  0.37331961  0.82842564  1  -1.13429  -0.080001  -0.325381  -0.549602  -0.053236  2.345705  -0.073
O  O175  1  0.95771374  0.62667755  0.32840933  1  -1.134194  0.080013  -0.32545  -0.549539  0.053243  2.345775  0.073
O  O176  1  0.78710364  0.77345750  0.84844641  1  -1.193592  0.010051  -0.301662  -0.527586  0.006539  2.230589  0.009
O  O177  1  0.21284030  0.22656054  0.34843824  1  -1.193842  -0.010047  -0.301692  -0.527489  -0.006536  2.230438  -0.009
O  O178  1  0.21281189  0.27343595  0.84843341  1  -1.193725  -0.010049  -0.301676  -0.527425  -0.006537  2.230357  -0.009
O  O179  1  0.78714883  0.72654701  0.34843461  1  -1.193568  0.010048  -0.301635  -0.527297  0.006537  2.230313  0.009
O  O180  1  0.16347028  0.00215334  0.84732122  1  -1.134756  0.089451  -0.322005  -0.540473  0.058998  2.297521  0.08
O  O181  1  0.83654067  0.99784197  0.34732466  1  -1.134884  -0.089426  -0.321883  -0.540302  -0.058984  2.297678  -0.08
O  O182  1  0.83654051  0.50215821  0.84732301  1  -1.134899  -0.089437  -0.321932  -0.540368  -0.058991  2.297601  -0.08
O  O183  1  0.16343271  0.49784352  0.34731385  1  -1.13508  0.089425  -0.321872  -0.540189  0.058983  2.297371  0.08
O  O184  1  0.56140042  0.98532699  0.79344090  1  -1.189746  -0.000734  -0.326152  -0.612739  -0.000629  2.376269  0.001
O  O185  1  0.43861067  0.01465612  0.29343665  1  -1.189359  0.000728  -0.326344  -0.612971  0.000626  2.376186  -0.001
O  O186  1  0.43860810  0.48533709  0.79343874  1  -1.189516  0.000731  -0.326256  -0.61293  0.000627  2.376211  -0.001
O  O187  1  0.56135268  0.51467517  0.29342978  1  -1.189661  -0.000734  -0.3262  -0.612886  -0.000628  2.376434  0.001
O  O188  1  0.45431906  0.15591173  0.84056505  1  -1.186969  -0.000521  -0.345366  -0.51218  -0.000353  2.309639  -0.001
O  O189  1  0.54583607  0.84409391  0.34056791  1  -1.187636  0.000522  -0.345583  -0.512288  0.000354  2.309256  0.001
O  O190  1  0.54579425  0.65590998  0.84057142  1  -1.187222  0.000522  -0.345543  -0.512288  0.000354  2.309174  0.001
O  O191  1  0.45418684  0.34410405  0.34055773  1  -1.187188  -0.000522  -0.345601  -0.512546  -0.000354  2.309257  -0.001
O  O192  1  0.28523292  0.13739983  0.93991553  1  -1.169444  0.000106  -0.296897  -0.505775  4e-06  2.116964  0.0
O  O193  1  0.71461516  0.86258667  0.43994766  1  -1.169984  -0.000107  -0.296892  -0.505499  -5e-06  2.117871  0.0
O  O194  1  0.71464175  0.63741182  0.93994394  1  -1.169998  -0.000106  -0.296862  -0.505448  -4e-06  2.118101  0.0
O  O195  1  0.28540344  0.36259246  0.43993779  1  -1.168945  0.000106  -0.29713  -0.505853  4e-06  2.117302  0.0
