# generated using pymatgen
data_Zn3H18C26(N3O5)2
_symmetry_space_group_name_H-M   'P 1'
_cell_length_a   9.14109019
_cell_length_b   10.64785545
_cell_length_c   11.43169302
_cell_angle_alpha   120.22621153
_cell_angle_beta   99.54171845
_cell_angle_gamma   97.45294411
_symmetry_Int_Tables_number   1
_chemical_formula_structural   Zn3H18C26(N3O5)2
_chemical_formula_sum   'Zn3 H18 C26 N6 O10'
_cell_volume   917.95914770
_cell_formula_units_Z   1
loop_
 _symmetry_equiv_pos_site_id
 _symmetry_equiv_pos_as_xyz
  1  'x, y, z'
loop_
 _atom_site_type_symbol
 _atom_site_label
 _atom_site_symmetry_multiplicity
 _atom_site_fract_x
 _atom_site_fract_y
 _atom_site_fract_z
 _atom_site_occupancy
 _atom_site_hle17_bader_spin_density
 _atom_site_hle17_ddec_charge
 _atom_site_hle17_ddec_spin_density
 _atom_site_hle17_ddec_sum_bond_order
 _atom_site_hle17_magmom
 _atom_site_hse06_10hf_bader_spin_density
 _atom_site_hse06_10hf_ddec_charge
 _atom_site_hse06_10hf_ddec_spin_density
 _atom_site_hse06_10hf_ddec_sum_bond_order
 _atom_site_hse06_10hf_magmom
 _atom_site_hse06_bader_spin_density
 _atom_site_hse06_ddec_charge
 _atom_site_hse06_ddec_spin_density
 _atom_site_hse06_ddec_sum_bond_order
 _atom_site_hse06_magmom
 _atom_site_pbe_bader_spin_density
 _atom_site_pbe_cm5_charge
 _atom_site_pbe_ddec_charge
 _atom_site_pbe_ddec_spin_density
 _atom_site_pbe_ddec_sum_bond_order
 _atom_site_pbe_magmom
Zn  Zn0  1  0.31551497  0.37414113  0.37296481  1  0  0.983175  0  1.904669  0  0  0.786392  0  2.394394  0  0  0.833054  0  2.338551  0  0  0.717054  0.754033  0  2.432797  0
Zn  Zn1  1  0.68448553  0.62585957  0.62703014  1  0  0.983046  0  1.904613  0  0  0.78627  0  2.394263  0  0  0.832935  0  2.338424  0  0  0.716972  0.753901  0  2.432668  0
Zn  Zn2  1  0.00000008  0.49999983  0.49999965  1  0  1.073589  0  1.914644  0  0  0.906999  0  2.379263  0  0  0.950266  0  2.323794  0  0  0.714374  0.877742  0  2.418004  0
H  H3  1  0.87159471  0.58090448  0.19291650  1  0  0.104414  0  0.943147  0  0  0.112556  0  1.003076  0  0  0.1162  0  1.001357  0  0  0.103135  0.110077  0  1.004209  0
H  H4  1  0.12840933  0.41910518  0.80708305  1  0  0.104412  0  0.942947  0  0  0.112574  0  1.002863  0  0  0.116221  0  1.001138  0  0  0.103094  0.110062  0  1.004028  0
H  H5  1  0.24769085  0.99824733  0.43681809  1  0  0.10781  0  0.934528  0  0  0.1192  0  0.988259  0  0  0.123156  0  0.98585  0  0  0.107169  0.116371  0  0.990023  0
H  H6  1  0.75229797  0.00174357  0.56318298  1  0  0.107714  0  0.934468  0  0  0.119088  0  0.988227  0  0  0.123049  0  0.985826  0  0  0.107156  0.116258  0  0.98999  0
H  H7  1  0.85514743  0.18122590  0.49633889  1  0  0.115105  0  0.943658  0  0  0.12423  0  1.001746  0  0  0.128078  0  0.999563  0  0  0.107196  0.121408  0  1.003567  0
H  H8  1  0.14485775  0.81876816  0.50366853  1  0  0.115133  0  0.943588  0  0  0.12425  0  1.001676  0  0  0.128099  0  0.9995  0  0  0.107186  0.121421  0  1.003503  0
H  H9  1  0.21868231  0.38495383  0.00778185  1  0  0.10048  0  0.946622  0  0  0.109772  0  1.005832  0  0  0.114129  0  1.002632  0  0  0.102661  0.106633  0  1.008367  0
H  H10  1  0.78131540  0.61503685  0.99221423  1  0  0.100442  0  0.946763  0  0  0.109748  0  1.005945  0  0  0.1141  0  1.002747  0  0  0.102688  0.106617  0  1.008473  0
H  H11  1  0.21173982  0.75424765  0.82371940  1  0  0.116795  0  0.955281  0  0  0.125247  0  1.017734  0  0  0.127133  0  1.017522  0  0  0.126525  0.123926  0  1.018025  0
H  H12  1  0.78826529  0.24575428  0.17628988  1  0  0.116826  0  0.955306  0  0  0.125261  0  1.017786  0  0  0.127149  0  1.01757  0  0  0.126504  0.12394  0  1.018086  0
H  H13  1  0.53419965  0.81358766  0.88404477  1  0  0.123815  0  0.9671  0  0  0.132796  0  1.027335  0  0  0.136157  0  1.024602  0  0  0.124975  0.130345  0  1.029404  0
H  H14  1  0.46580130  0.18641085  0.11595449  1  0  0.123821  0  0.967057  0  0  0.132794  0  1.027297  0  0  0.13616  0  1.024564  0  0  0.12499  0.130343  0  1.029374  0
H  H15  1  0.76535437  0.93441682  0.15806336  1  0  0.382459  0  0.823122  0  0  0.371834  0  0.87346  0  0  0.378923  0  0.866173  0  0  0.335348  0.367008  0  0.878317  0
H  H16  1  0.23464262  0.06557179  0.84194480  1  0  0.382366  0  0.823306  0  0  0.371878  0  0.873432  0  0  0.378965  0  0.86615  0  0  0.335417  0.367047  0  0.878292  0
H  H17  1  0.98877394  0.09712928  0.84228948  1  0  0.097335  0  0.960072  0  0  0.107929  0  1.022415  0  0  0.109966  0  1.02285  0  0  0.100672  0.106152  0  1.023047  0
H  H18  1  0.01121428  0.90285162  0.15771654  1  0  0.097211  0  0.960037  0  0  0.107824  0  1.022362  0  0  0.109858  0  1.022803  0  0  0.100604  0.106045  0  1.023006  0
H  H19  1  0.75742441  0.04684871  0.91425533  1  0  0.109575  0  0.930235  0  0  0.124777  0  0.979222  0  0  0.127976  0  0.97794  0  0  0.108612  0.122593  0  0.980155  0
H  H20  1  0.24255916  0.95313101  0.08573987  1  0  0.109629  0  0.930296  0  0  0.12482  0  0.979278  0  0  0.128019  0  0.977995  0  0  0.108668  0.122636  0  0.980211  0
C  C21  1  0.92680774  0.54609005  0.10777851  1  0  -0.078242  0  3.744844  0  0  -0.100315  0  3.992793  0  0  -0.101793  0  4.014017  0  0  -0.086767  -0.099248  0  3.978198  0
C  C22  1  0.07318478  0.45393445  0.89222624  1  0  -0.078159  0  3.744487  0  0  -0.100212  0  3.992445  0  0  -0.101686  0  4.013672  0  0  -0.086674  -0.099116  0  3.977842  0
C  C23  1  0.13967872  0.99806111  0.46518511  1  0  -0.077782  0  3.743156  0  0  -0.100734  0  3.990851  0  0  -0.101951  0  4.011166  0  0  -0.085227  -0.099985  0  3.976932  0
C  C24  1  0.86032461  0.00194954  0.53480343  1  0  -0.077679  0  3.742912  0  0  -0.100589  0  3.990618  0  0  -0.101824  0  4.010952  0  0  -0.085282  -0.099838  0  3.976698  0
C  C25  1  0.11556747  0.20416900  0.42074271  1  0  0.657787  0  3.892842  0  0  0.605836  0  4.185249  0  0  0.640569  0  4.177638  0  0  0.209884  0.581623  0  4.190962  0
C  C26  1  0.88442279  0.79579499  0.57925845  1  0  0.657932  0  3.891756  0  0  0.605991  0  4.184138  0  0  0.64074  0  4.176533  0  0  0.210049  0.581771  0  4.189851  0
C  C27  1  0.91624873  0.10005679  0.49667176  1  0  -0.076486  0  3.733847  0  0  -0.100136  0  3.984753  0  0  -0.100974  0  4.0046  0  0  -0.085745  -0.099523  0  3.971676  0
C  C28  1  0.08377279  0.89995128  0.50331551  1  0  -0.076475  0  3.733808  0  0  -0.100079  0  3.984639  0  0  -0.100932  0  4.004499  0  0  -0.085779  -0.099463  0  3.971555  0
C  C29  1  0.12312274  0.43525382  0.00294950  1  0  -0.076826  0  3.752098  0  0  -0.10027  0  4.001098  0  0  -0.101518  0  4.021517  0  0  -0.0866  -0.099285  0  3.987401  0
C  C30  1  0.87687554  0.56475939  0.99705612  1  0  -0.076749  0  3.752328  0  0  -0.100178  0  4.00139  0  0  -0.101417  0  4.0218  0  0  -0.086666  -0.099201  0  3.987717  0
C  C31  1  0.28634865  0.70499239  0.75798004  1  0  0.016268  0  3.689533  0  0  -0.02113  0  3.95664  0  0  -0.019496  0  3.97382  0  0  0.022663  -0.02235  0  3.945039  0
C  C32  1  0.71365602  0.29501172  0.24202405  1  0  0.016114  0  3.689641  0  0  -0.021291  0  3.956739  0  0  -0.019658  0  3.973915  0  0  0.022665  -0.022518  0  3.945152  0
C  C33  1  0.05632929  0.09836212  0.46152681  1  0  -0.063843  0  3.760497  0  0  -0.041622  0  3.995487  0  0  -0.048738  0  4.018482  0  0  -0.017239  -0.036717  0  3.980239  0
C  C34  1  0.94368232  0.90163829  0.53846169  1  0  -0.064051  0  3.759737  0  0  -0.041864  0  3.994742  0  0  -0.048973  0  4.017741  0  0  -0.017308  -0.036963  0  3.979492  0
C  C35  1  0.10481519  0.46400662  0.23239444  1  0  0.666549  0  3.877011  0  0  0.615995  0  4.165472  0  0  0.65134  0  4.156794  0  0  0.218166  0.591798  0  4.170993  0
C  C36  1  0.89519399  0.53600194  0.76761408  1  0  0.666776  0  3.877264  0  0  0.616198  0  4.165789  0  0  0.651544  0  4.157114  0  0  0.218154  0.591998  0  4.171319  0
C  C37  1  0.05041832  0.48143174  0.11149362  1  0  -0.056736  0  3.749247  0  0  -0.032976  0  3.978021  0  0  -0.040377  0  4.001912  0  0  -0.015961  -0.027847  0  3.962008  0
C  C38  1  0.94957702  0.51859497  0.88851254  1  0  -0.056995  0  3.749337  0  0  -0.033361  0  3.978346  0  0  -0.040773  0  4.002242  0  0  -0.016083  -0.028231  0  3.962332  0
C  C39  1  0.44499897  0.73532441  0.78728708  1  0  -0.004872  0  3.690813  0  0  -0.039767  0  3.94793  0  0  -0.037991  0  3.964931  0  0  0.018553  -0.040926  0  3.936387  0
C  C40  1  0.55500542  0.26467853  0.21271294  1  0  -0.004772  0  3.690683  0  0  -0.03963  0  3.947782  0  0  -0.037855  0  3.964784  0  0  0.018606  -0.040784  0  3.936246  0
C  C41  1  0.99349143  0.05349082  0.91075116  1  0  -0.17492  0  3.788206  0  0  -0.197482  0  4.047119  0  0  -0.201207  0  4.068783  0  0  -0.107769  -0.195393  0  4.033756  0
C  C42  1  0.00651286  0.94649983  0.08925195  1  0  -0.174713  0  3.788006  0  0  -0.19727  0  4.046905  0  0  -0.200991  0  4.068564  0  0  -0.107677  -0.195175  0  4.033546  0
C  C43  1  0.86386416  0.02664333  0.95206811  1  0  -0.163531  0  3.751569  0  0  -0.183108  0  4.005978  0  0  -0.186278  0  4.025042  0  0  -0.105106  -0.180713  0  3.992904  0
C  C44  1  0.13613426  0.97335412  0.04793205  1  0  -0.163574  0  3.751777  0  0  -0.183143  0  4.006172  0  0  -0.186311  0  4.025228  0  0  -0.105139  -0.180759  0  3.993089  0
C  C45  1  0.87041285  0.97342458  0.04188168  1  0  0.301244  0  3.830204  0  0  0.291117  0  4.104458  0  0  0.299991  0  4.121181  0  0  0.065043  0.285124  0  4.092972  0
C  C46  1  0.12957953  0.02657527  0.95812223  1  0  0.301202  0  3.83072  0  0  0.291075  0  4.104949  0  0  0.299949  0  4.121674  0  0  0.064934  0.285106  0  4.093437  0
N  N47  1  0.34652933  0.55995636  0.56646145  1  0  -0.129834  0  3.260235  0  0  -0.073091  0  3.553883  0  0  -0.082758  0  3.568894  0  0  -0.134912  -0.066537  0  3.543549  0
N  N48  1  0.65346796  0.44004890  0.43353514  1  0  -0.129843  0  3.260399  0  0  -0.073115  0  3.554088  0  0  -0.082783  0  3.569104  0  0  -0.134971  -0.066555  0  3.543744  0
N  N49  1  0.22949577  0.59588162  0.62079004  1  0  -0.211402  0  3.250623  0  0  -0.153602  0  3.528555  0  0  -0.164173  0  3.543962  0  0  -0.220672  -0.145982  0  3.517936  0
N  N50  1  0.77050368  0.40412368  0.37921300  1  0  -0.211368  0  3.250807  0  0  -0.153545  0  3.528707  0  0  -0.164115  0  3.544118  0  0  -0.22065  -0.145919  0  3.51808  0
N  N51  1  0.47856449  0.64296450  0.66603683  1  0  -0.235031  0  3.278379  0  0  -0.166869  0  3.57272  0  0  -0.18007  0  3.586986  0  0  -0.239836  -0.157636  0  3.562711  0
N  N52  1  0.52143263  0.35704413  0.33396041  1  0  -0.235026  0  3.278323  0  0  -0.166908  0  3.572724  0  0  -0.180105  0  3.586985  0  0  -0.239852  -0.157673  0  3.562718  0
O  O53  1  0.20792380  0.38993690  0.22120602  1  0  -0.630435  0  2.086676  0  0  -0.555995  0  2.363828  0  0  -0.58463  0  2.347528  0  0  -0.32437  -0.536333  0  2.374878  0
O  O54  1  0.79208661  0.61006368  0.77879376  1  0  -0.630393  0  2.086796  0  0  -0.55591  0  2.363914  0  0  -0.584548  0  2.347621  0  0  -0.32427  -0.536247  0  2.374959  0
O  O55  1  0.25367139  0.21405879  0.40914736  1  0  -0.62683  0  2.025184  0  0  -0.55684  0  2.286249  0  0  -0.585214  0  2.27168  0  0  -0.326892  -0.537798  0  2.296272  0
O  O56  1  0.74630021  0.78594573  0.59084355  1  0  -0.626699  0  2.024735  0  0  -0.55673  0  2.28578  0  0  -0.585114  0  2.271215  0  0  -0.326776  -0.537686  0  2.295796  0
O  O57  1  0.04814077  0.52405677  0.33533691  1  0  -0.63806  0  2.103139  0  0  -0.582973  0  2.372839  0  0  -0.609135  0  2.360466  0  0  -0.310733  -0.56452  0  2.380939  0
O  O58  1  0.95185617  0.47594745  0.66466528  1  0  -0.638165  0  2.103144  0  0  -0.583084  0  2.3729  0  0  -0.60924  0  2.360514  0  0  -0.310756  -0.564626  0  2.380998  0
O  O59  1  0.02855651  0.27703172  0.39792914  1  0  -0.648435  0  2.097306  0  0  -0.590199  0  2.370658  0  0  -0.615697  0  2.357185  0  0  -0.318013  -0.572502  0  2.380175  0
O  O60  1  0.97148348  0.72295472  0.60205691  1  0  -0.648461  0  2.097387  0  0  -0.590195  0  2.370751  0  0  -0.615636  0  2.357127  0  0  -0.317982  -0.572491  0  2.380259  0
O  O61  1  0.73890018  0.94853747  0.08004821  1  0  -0.526442  0  2.082295  0  0  -0.484184  0  2.282318  0  0  -0.499944  0  2.273623  0  0  -0.359048  -0.472785  0  2.287885  0
O  O62  1  0.26107773  0.05146277  0.91996611  1  0  -0.526196  0  2.082846  0  0  -0.484053  0  2.282733  0  0  -0.499822  0  2.274064  0  0  -0.358961  -0.472658  0  2.288293  0
