# generated using pymatgen
data_AlH21C24(NO)6
_symmetry_space_group_name_H-M   'P 1'
_cell_length_a   3.91906126
_cell_length_b   28.67062209
_cell_length_c   28.67071162
_cell_angle_alpha   120.00028947
_cell_angle_beta   90.00171627
_cell_angle_gamma   90.00143313
_symmetry_Int_Tables_number   1
_chemical_formula_structural   AlH21C24(NO)6
_chemical_formula_sum   'Al2 H42 C48 N12 O12'
_cell_volume   2789.88951479
_cell_formula_units_Z   2
loop_
 _symmetry_equiv_pos_site_id
 _symmetry_equiv_pos_as_xyz
  1  'x, y, z'
loop_
 _atom_site_type_symbol
 _atom_site_label
 _atom_site_symmetry_multiplicity
 _atom_site_fract_x
 _atom_site_fract_y
 _atom_site_fract_z
 _atom_site_occupancy
 _atom_site_pbe_bader_charge
 _atom_site_pbe_bader_spin_density
 _atom_site_pbe_cm5_charge
 _atom_site_pbe_ddec_charge
 _atom_site_pbe_ddec_spin_density
 _atom_site_pbe_ddec_sum_bond_order
 _atom_site_pbe_magmom
Al  Al0  1  0.00612662  0.50000059  0.49999592  1  2.503151  0  0.417269  1.585319  0  2.579015  0
Al  Al1  1  0.00617049  0.16666878  0.83333193  1  2.502555  0  0.417202  1.584702  0  2.579903  0
H  H2  1  0.20876545  0.24368715  0.65510190  1  0.037917  0  0.094735  0.108016  0  1.021525  0
H  H3  1  0.76617479  0.36852131  0.78895139  1  0.051918  0  0.093987  0.10727  0  1.013995  0
H  H4  1  0.76617511  0.29815724  0.54439206  1  0.052203  0  0.094034  0.107326  0  1.013849  0
H  H5  1  0.20885832  0.42299717  0.67823779  1  0.037487  0  0.09473  0.108046  0  1.021392  0
H  H6  1  0.51229193  0.38624249  0.72087443  1  0.066194  0  0.097312  0.09405  0  1.001298  0
H  H7  1  0.51227566  0.28043957  0.61247281  1  0.066756  0  0.097402  0.094084  0  1.001293  0
H  H8  1  0.20879907  0.91142220  0.75632515  1  0.02899  0  0.094792  0.108157  0  1.021374  0
H  H9  1  0.76612395  0.92042740  0.63148652  1  0.05311  0  0.094024  0.107275  0  1.014027  0
H  H10  1  0.76614372  0.74623864  0.70185715  1  0.052081  0  0.094023  0.107248  0  1.014009  0
H  H11  1  0.20877054  0.75524880  0.57701838  1  0.028537  0  0.094773  0.108111  0  1.02145  0
H  H12  1  0.51220901  0.83463046  0.61377299  1  0.064502  0  0.097432  0.094173  0  1.001449  0
H  H13  1  0.51224828  0.83203758  0.71957740  1  0.064014  0  0.097397  0.09414  0  1.001163  0
H  H14  1  0.20879768  0.34489329  0.08857423  1  0.040204  0  0.094749  0.108057  0  1.021545  0
H  H15  1  0.76612969  0.21104896  0.07956565  1  0.038006  0  0.094017  0.10734  0  1.014145  0
H  H16  1  0.76613001  0.45560825  0.25375556  1  0.037905  0  0.094025  0.107236  0  1.013921  0
H  H17  1  0.20874355  0.32176455  0.24474977  1  0.040196  0  0.094753  0.107987  0  1.021559  0
H  H18  1  0.51219661  0.27912903  0.16536350  1  0.046773  0  0.097337  0.093991  0  1.001348  0
H  H19  1  0.51218637  0.38752501  0.16795564  1  0.047097  0  0.097444  0.094142  0  1.00125  0
H  H20  1  0.89097001  0.29146767  0.85426316  1  0.488853  0  0.299675  0.309747  0  0.981984  0
H  H21  1  0.99332596  0.34830429  0.85171249  1  0.439405  0  0.303375  0.301628  0  0.942928  0
H  H22  1  0.11733427  0.16096664  0.71456674  1  0.474456  0  0.298908  0.308449  0  0.983652  0
H  H23  1  0.00751516  0.17208827  0.66306505  1  0.43444  0  0.302857  0.30071  0  0.943255  0
H  H24  1  0.11734773  0.50569987  0.61875589  1  0.474307  0  0.29881  0.308246  0  0.983627  0
H  H25  1  0.00755048  0.49458512  0.67026159  1  0.433798  0  0.302848  0.300627  0  0.943376  0
H  H26  1  0.89091159  0.37520329  0.47906953  1  0.489308  0  0.299666  0.309785  0  0.981923  0
H  H27  1  0.99330620  0.31836964  0.48162646  1  0.438836  0  0.30332  0.301512  0  0.942894  0
H  H28  1  0.89093339  0.06279535  0.70853350  1  0.495332  0  0.299638  0.30964  0  0.982044  0
H  H29  1  0.99331114  0.00340624  0.65169955  1  0.437873  0  0.303321  0.301528  0  0.94282  0
H  H30  1  0.11738385  0.05360717  0.83903293  1  0.455609  0  0.298804  0.30825  0  0.983754  0
H  H31  1  0.00755669  0.99098749  0.82791909  1  0.433771  0  0.302896  0.300685  0  0.943299  0
H  H32  1  0.11734153  0.61306363  0.49430004  1  0.455738  0  0.298833  0.308285  0  0.983783  0
H  H33  1  0.00750837  0.67568635  0.50541994  1  0.433761  0  0.302881  0.300718  0  0.943283  0
H  H34  1  0.89094566  0.60387320  0.62479881  1  0.495352  0  0.299672  0.309773  0  0.981912  0
H  H35  1  0.99334144  0.66326129  0.68163742  1  0.437762  0  0.303237  0.301471  0  0.942955  0
H  H36  1  0.89097077  0.14573921  0.93720172  1  0.486713  0  0.299692  0.309808  0  0.982004  0
H  H37  1  0.99331315  0.14829035  0.99659071  1  0.439981  0  0.303309  0.301449  0  0.942975  0
H  H38  1  0.11737323  0.28542727  0.94638854  1  0.498592  0  0.298787  0.308216  0  0.983737  0
H  H39  1  0.00754373  0.33692803  0.00901210  1  0.439905  0  0.302825  0.300594  0  0.943383  0
H  H40  1  0.11734194  0.38123743  0.38693310  1  0.498631  0  0.298861  0.308406  0  0.983768  0
H  H41  1  0.00751591  0.32973099  0.32430975  1  0.440065  0  0.30285  0.300663  0  0.94332  0
H  H42  1  0.89092614  0.52092858  0.39612298  1  0.487112  0  0.299721  0.309777  0  0.981959  0
H  H43  1  0.99329604  0.51837288  0.33673592  1  0.441069  0  0.303343  0.301533  0  0.943033  0
C  C44  1  0.50536110  0.46170422  0.41548514  1  1.497463  0  0.257972  0.655233  0  4.039918  0
C  C45  1  0.50537875  0.45378701  0.53829061  1  1.469142  0  0.257848  0.654812  0  4.039927  0
C  C46  1  0.50538644  0.58450709  0.54621217  1  1.430509  0  0.257972  0.654842  0  4.040041  0
C  C47  1  0.50539727  0.21288207  0.79503882  1  1.469896  0  0.257937  0.65506  0  4.040032  0
C  C48  1  0.50539468  0.08215898  0.78711747  1  1.430052  0  0.257966  0.655153  0  4.040284  0
C  C49  1  0.50542002  0.20496203  0.91783944  1  1.495832  0  0.257935  0.655  0  4.040322  0
C  C50  1  0.50285344  0.24544948  0.76894791  1  0.039048  0  -0.043286  -0.298086  0  3.867594  0
C  C51  1  0.33603841  0.22665898  0.71795551  1  0.408474  0  0.104796  0.321791  0  4.088049  0
C  C52  1  0.34367819  0.25811797  0.69315655  1  0.012768  0  -0.128121  -0.311457  0  3.973284  0
C  C53  1  0.49327501  0.30932735  0.71865500  1  -0.077824  0  -0.010244  0.161953  0  4.115716  0
C  C54  1  0.64378262  0.32903492  0.76934617  1  0.003813  0  -0.127362  -0.311713  0  3.97786  0
C  C55  1  0.66396834  0.29737755  0.79393145  1  0.412535  0  0.105894  0.324553  0  4.083703  0
C  C56  1  0.49545188  0.34272748  0.69347536  1  -0.028623  0  -0.085862  -0.11729  0  3.961901  0
C  C57  1  0.49546734  0.32395800  0.63987449  1  -0.127718  0  -0.086201  -0.117785  0  3.962345  0
C  C58  1  0.64378928  0.33764436  0.56399957  1  0.003902  0  -0.127579  -0.312012  0  3.977399  0
C  C59  1  0.49329368  0.35735133  0.61469045  1  -0.078787  0  -0.010216  0.162383  0  4.115437  0
C  C60  1  0.34375509  0.40856200  0.64018046  1  0.014921  0  -0.128051  -0.311676  0  3.973241  0
C  C61  1  0.33606211  0.44001370  0.61537542  1  0.407658  0  0.104781  0.321955  0  4.088164  0
C  C62  1  0.50283718  0.42121883  0.56438155  1  0.039181  0  -0.043287  -0.298104  0  3.867721  0
C  C63  1  0.66398823  0.36929586  0.53940721  1  0.412465  0  0.106005  0.324508  0  4.083482  0
C  C64  1  0.50284183  0.02349558  0.75454846  1  0.032709  0  -0.043243  -0.298064  0  3.867659  0
C  C65  1  0.33605806  0.99130117  0.77334470  1  0.330763  0  0.104674  0.321668  0  4.088233  0
C  C66  1  0.34370952  0.93504339  0.74189293  1  0.040231  0  -0.12806  -0.311594  0  3.9732  0
C  C67  1  0.49326297  0.90932721  0.69068467  1  -0.008524  0  -0.01022  0.162234  0  4.115269  0
C  C68  1  0.64376655  0.94031026  0.67097092  1  -0.037083  0  -0.127515  -0.311895  0  3.977524  0
C  C69  1  0.66395595  0.99655162  0.70262699  1  0.493388  0  0.105855  0.324539  0  4.08386  0
C  C70  1  0.49543056  0.85074872  0.65728715  1  -0.132747  0  -0.086281  -0.117934  0  3.962493  0
C  C71  1  0.49542940  0.81591912  0.67605899  1  -0.030551  0  -0.085918  -0.117362  0  3.961786  0
C  C72  1  0.64376395  0.72635600  0.66236928  1  -0.036409  0  -0.127497  -0.311784  0  3.977702  0
C  C73  1  0.49326432  0.75733988  0.64265871  1  -0.007903  0  -0.010197  0.162068  0  4.115397  0
C  C74  1  0.34367215  0.73162570  0.59145037  1  0.041167  0  -0.1282  -0.31167  0  3.973336  0
C  C75  1  0.33603934  0.67536945  0.55999206  1  0.330619  0  0.104813  0.321867  0  4.088149  0
C  C76  1  0.50281561  0.64316786  0.57878378  1  0.032761  0  -0.043293  -0.298092  0  3.86769  0
C  C77  1  0.66395921  0.67011506  0.63070962  1  0.493541  0  0.105901  0.324529  0  4.083544  0
C  C78  1  0.50287711  0.23105270  0.97649766  1  -0.003298  0  -0.043307  -0.29822  0  3.867874  0
C  C79  1  0.33606889  0.28204156  0.00869580  1  0.423479  0  0.104667  0.321753  0  4.088217  0
C  C80  1  0.34370151  0.30684056  0.06495278  1  -0.045152  0  -0.12797  -0.311398  0  3.973194  0
C  C81  1  0.49327350  0.28134379  0.09066678  1  0.028123  0  -0.010376  0.161806  0  4.115734  0
C  C82  1  0.64378371  0.23065235  0.05968382  1  -0.020444  0  -0.127412  -0.311769  0  3.977672  0
C  C83  1  0.66400217  0.20607014  0.00344186  1  0.409102  0  0.10592  0.32451  0  4.083524  0
C  C84  1  0.49538722  0.30652532  0.14924430  1  -0.020903  0  -0.085922  -0.117092  0  3.962108  0
C  C85  1  0.49539843  0.36012367  0.18407824  1  -0.113428  0  -0.086253  -0.118085  0  3.962622  0
C  C86  1  0.64373882  0.43600440  0.27363809  1  -0.020135  0  -0.127481  -0.311789  0  3.977489  0
C  C87  1  0.49324327  0.38530920  0.24265452  1  0.027812  0  -0.010154  0.162354  0  4.115219  0
C  C88  1  0.34365688  0.35981902  0.26837221  1  -0.045768  0  -0.127991  -0.311307  0  3.973327  0
C  C89  1  0.33603074  0.38461833  0.32462668  1  0.422958  0  0.104715  0.321629  0  4.088294  0
C  C90  1  0.50281096  0.43561458  0.35682795  1  -0.002554  0  -0.043291  -0.298004  0  3.867374  0
C  C91  1  0.66394330  0.46059163  0.32987743  1  0.408776  0  0.105918  0.324523  0  4.083556  0
N  N92  1  0.82024268  0.31889959  0.84348415  1  -1.257686  0  -0.603894  -0.626614  0  3.304809  0
N  N93  1  0.18378274  0.17666692  0.69093490  1  -1.222112  0  -0.604897  -0.626482  0  3.305853  0
N  N94  1  0.18380864  0.49000416  0.64239114  1  -1.221275  0  -0.604807  -0.626242  0  3.305783  0
N  N95  1  0.82020965  0.34777068  0.48985024  1  -1.257741  0  -0.60376  -0.626364  0  3.304537  0
N  N96  1  0.82021612  0.02458250  0.68110140  1  -1.261926  0  -0.60374  -0.626315  0  3.304418  0
N  N97  1  0.18382815  0.01427688  0.82333784  1  -1.204217  0  -0.604835  -0.62626  0  3.30582  0
N  N98  1  0.18377344  0.65239585  0.50999910  1  -1.204426  0  -0.604853  -0.626352  0  3.305902  0
N  N99  1  0.82022344  0.64208222  0.65223228  1  -1.262  0  -0.603703  -0.626396  0  3.304522  0
N  N100  1  0.82025997  0.15651921  0.97541145  1  -1.254148  0  -0.60376  -0.62635  0  3.304866  0
N  N101  1  0.18383178  0.30906164  0.98572310  1  -1.253968  0  -0.604714  -0.626089  0  3.305818  0
N  N102  1  0.18377746  0.35760108  0.34760223  1  -1.254022  0  -0.604845  -0.626392  0  3.305857  0
N  N103  1  0.82020001  0.51014916  0.35791299  1  -1.255429  0  -0.603895  -0.626483  0  3.304648  0
O  O104  1  0.73907600  0.55741798  0.55420389  1  -1.269452  0  -0.246896  -0.61471  0  2.409023  0
O  O105  1  0.73905075  0.49678852  0.44257935  1  -1.268593  0  -0.246889  -0.614993  0  2.409075  0
O  O106  1  0.73904499  0.44579535  0.50320715  1  -1.268575  0  -0.246907  -0.614779  0  2.40912  0
O  O107  1  0.27420502  0.56017847  0.50971218  1  -1.268804  0  -0.247911  -0.614909  0  2.40326  0
O  O108  1  0.27418263  0.49028515  0.55045676  1  -1.268808  0  -0.247827  -0.614887  0  2.402935  0
O  O109  1  0.27418736  0.44953765  0.43981773  1  -1.270043  0  -0.247954  -0.61515  0  2.403354  0
O  O110  1  0.73910506  0.16988330  0.89074809  1  -1.267286  0  -0.246875  -0.614723  0  2.409327  0
O  O111  1  0.73910061  0.22087203  0.83011706  1  -1.268485  0  -0.246859  -0.61467  0  2.409151  0
O  O112  1  0.73906705  0.10924902  0.77912557  1  -1.268716  0  -0.246905  -0.614714  0  2.409274  0
O  O113  1  0.27424835  0.21713525  0.89350855  1  -1.269922  0  -0.247865  -0.61487  0  2.403389  0
O  O114  1  0.27423835  0.10649156  0.82361768  1  -1.268688  0  -0.247891  -0.614994  0  2.403563  0
O  O115  1  0.27420970  0.17637866  0.78286326  1  -1.269173  0  -0.247865  -0.614971  0  2.403351  0
