# generated using pymatgen
data_CdH22C35(NO3)2
_symmetry_space_group_name_H-M   'P 1'
_cell_length_a   11.52197367
_cell_length_b   15.55642157
_cell_length_c   18.93405236
_cell_angle_alpha   90.00002957
_cell_angle_beta   107.62256302
_cell_angle_gamma   89.99990745
_symmetry_Int_Tables_number   1
_chemical_formula_structural   CdH22C35(NO3)2
_chemical_formula_sum   'Cd4 H88 C140 N8 O24'
_cell_volume   3234.48877840
_cell_formula_units_Z   4
loop_
 _symmetry_equiv_pos_site_id
 _symmetry_equiv_pos_as_xyz
  1  'x, y, z'
loop_
 _atom_site_type_symbol
 _atom_site_label
 _atom_site_symmetry_multiplicity
 _atom_site_fract_x
 _atom_site_fract_y
 _atom_site_fract_z
 _atom_site_occupancy
 _atom_site_pbe_bader_charge
 _atom_site_pbe_bader_spin_density
 _atom_site_pbe_cm5_charge
 _atom_site_pbe_ddec_charge
 _atom_site_pbe_ddec_spin_density
 _atom_site_pbe_ddec_sum_bond_order
 _atom_site_pbe_magmom
Cd  Cd0  1  0.74033447  0.72347012  0.64674839  1  1.294073  0  0.785089  0.907414  0  2.212199  0
Cd  Cd1  1  0.75966465  0.72346953  0.85325206  1  1.294098  0  0.785103  0.907459  0  2.212146  0
Cd  Cd2  1  0.25966491  0.27653013  0.35325103  1  1.294085  0  0.78508  0.907396  0  2.212225  0
Cd  Cd3  1  0.24033563  0.27653008  0.14674911  1  1.294103  0  0.785084  0.907444  0  2.212169  0
H  H4  1  0.81930916  0.67113793  0.45975490  1  0.652406  0  0.293445  0.351392  0  0.987095  0
H  H5  1  0.68069295  0.67113724  0.04024538  1  0.652399  0  0.29342  0.351418  0  0.987107  0
H  H6  1  0.18069203  0.32886361  0.54024485  1  0.652393  0  0.293416  0.351385  0  0.987083  0
H  H7  1  0.31930825  0.32886302  0.95975543  1  0.652389  0  0.293397  0.351337  0  0.987128  0
H  H8  1  0.51512622  0.89224307  0.83690385  1  0.645996  0  0.30097  0.344871  0  0.990913  0
H  H9  1  0.98487526  0.89224273  0.66309658  1  0.646009  0  0.30098  0.344888  0  0.99091  0
H  H10  1  0.48487588  0.10775655  0.16309608  1  0.646032  0  0.300979  0.344888  0  0.990914  0
H  H11  1  0.01512502  0.10775753  0.33690406  1  0.646014  0  0.300952  0.344843  0  0.990974  0
H  H12  1  0.51473661  0.85370194  0.41383735  1  0.084465  0  0.107379  0.111191  0  1.010524  0
H  H13  1  0.98526328  0.85370219  0.08616207  1  0.08446  0  0.107377  0.111195  0  1.010477  0
H  H14  1  0.48526368  0.14629832  0.58616170  1  0.084443  0  0.10738  0.111215  0  1.010427  0
H  H15  1  0.01473700  0.14629870  0.91383804  1  0.084462  0  0.107375  0.111227  0  1.010468  0
H  H16  1  0.37718432  0.91837174  0.30166922  1  0.058581  0  0.100817  0.100579  0  1.009969  0
H  H17  1  0.12281575  0.91837250  0.19833111  1  0.058583  0  0.100816  0.100559  0  1.010014  0
H  H18  1  0.62281688  0.08162787  0.69833001  1  0.058548  0  0.100816  0.100593  0  1.009933  0
H  H19  1  0.87718453  0.08162840  0.80166953  1  0.05857  0  0.100813  0.100565  0  1.01002  0
H  H20  1  0.30292666  0.93180671  0.16421802  1  0.045232  0  0.096609  0.090324  0  1.03916  0
H  H21  1  0.19707337  0.93180618  0.33578179  1  0.045284  0  0.096606  0.090317  0  1.039134  0
H  H22  1  0.69707362  0.06819419  0.83578157  1  0.045274  0  0.096613  0.090325  0  1.039138  0
H  H23  1  0.80292691  0.06819407  0.66421833  1  0.045284  0  0.096613  0.090335  0  1.03915  0
H  H24  1  0.40291242  0.84862361  0.08677234  1  0.105796  0  0.103289  0.102227  0  0.992295  0
H  H25  1  0.09708779  0.84862261  0.41322746  1  0.105807  0  0.10328  0.102185  0  0.992292  0
H  H26  1  0.59708877  0.15137729  0.91322794  1  0.10579  0  0.103278  0.10219  0  0.992284  0
H  H27  1  0.90291067  0.15137764  0.58677179  1  0.105789  0  0.103276  0.102196  0  0.992289  0
H  H28  1  0.57637969  0.75355025  0.14435606  1  0.114513  0  0.098071  0.106036  0  1.06176  0
H  H29  1  0.92362133  0.75354946  0.35564406  1  0.114383  0  0.098093  0.106047  0  1.061756  0
H  H30  1  0.42362151  0.24644937  0.85564264  1  0.114399  0  0.098077  0.106046  0  1.061753  0
H  H31  1  0.07637895  0.24644951  0.64435711  1  0.114398  0  0.098078  0.10604  0  1.061738  0
H  H32  1  0.68585611  0.63448876  0.21006462  1  0.061182  0  0.094668  0.099366  0  1.029019  0
H  H33  1  0.81414517  0.63448871  0.28993550  1  0.061175  0  0.094661  0.099359  0  1.029024  0
H  H34  1  0.31414599  0.36551085  0.78993531  1  0.061173  0  0.094657  0.099354  0  1.029011  0
H  H35  1  0.18585512  0.36551155  0.71006461  1  0.061175  0  0.094664  0.099353  0  1.02901  0
H  H36  1  0.51370569  0.85911198  0.60260920  1  0.099984  0  0.10041  0.114593  0  1.037317  0
H  H37  1  0.98629495  0.85911243  0.89739053  1  0.100067  0  0.100413  0.114595  0  1.037315  0
H  H38  1  0.48629551  0.14088828  0.39739055  1  0.099987  0  0.1004  0.114589  0  1.037333  0
H  H39  1  0.01370442  0.14088718  0.10260942  1  0.099812  0  0.100411  0.114606  0  1.037294  0
H  H40  1  0.40921737  0.93365550  0.48767444  1  0.053011  0  0.095934  0.097152  0  1.023588  0
H  H41  1  0.09078357  0.93365554  0.01232606  1  0.053024  0  0.09593  0.097166  0  1.023593  0
H  H42  1  0.59078382  0.06634540  0.51232637  1  0.052853  0  0.095932  0.097161  0  1.023607  0
H  H43  1  0.90921671  0.06634407  0.98767459  1  0.053026  0  0.095934  0.097171  0  1.02357  0
H  H44  1  0.24220291  0.03089591  0.41534735  1  0.055278  0  0.094993  0.093487  0  1.024298  0
H  H45  1  0.25779724  0.03089708  0.08465314  1  0.055258  0  0.095004  0.093485  0  1.024276  0
H  H46  1  0.75779737  0.96910371  0.58465329  1  0.055259  0  0.094996  0.093473  0  1.024328  0
H  H47  1  0.74220304  0.96910382  0.91534750  1  0.055278  0  0.094992  0.093469  0  1.02432  0
H  H48  1  0.09567971  0.09106666  0.47569861  1  0.04372  0  0.101126  0.103725  0  0.98991  0
H  H49  1  0.40432123  0.09106698  0.02430152  1  0.043698  0  0.101111  0.103736  0  0.989885  0
H  H50  1  0.90432148  0.90893295  0.52430220  1  0.043697  0  0.10111  0.103722  0  0.989867  0
H  H51  1  0.59567905  0.90893263  0.97569806  1  0.043704  0  0.101109  0.103711  0  0.989906  0
H  H52  1  0.12453168  0.06850173  0.60776808  1  0.072706  0  0.095954  0.0948  0  1.054335  0
H  H53  1  0.37546825  0.06850231  0.89223202  1  0.072709  0  0.095955  0.094793  0  1.054371  0
H  H54  1  0.87546951  0.93149724  0.39223273  1  0.072862  0  0.096011  0.094887  0  1.05431  0
H  H55  1  0.62453113  0.93149730  0.10776739  1  0.072764  0  0.095963  0.094815  0  1.054318  0
H  H56  1  0.18302748  0.07677355  0.71277545  1  0.059285  0  0.094585  0.096795  0  1.037503  0
H  H57  1  0.31697334  0.07677350  0.78722482  1  0.059276  0  0.094578  0.096773  0  1.037524  0
H  H58  1  0.81697371  0.92322670  0.28722483  1  0.059274  0  0.094572  0.096784  0  1.037524  0
H  H59  1  0.68302785  0.92322547  0.21277546  1  0.059276  0  0.094571  0.096764  0  1.037565  0
H  H60  1  0.44397801  0.68505463  0.57722748  1  0.142206  0  0.125723  0.100403  0  0.970059  0
H  H61  1  0.05602150  0.68505433  0.92277228  1  0.142225  0  0.125718  0.100421  0  0.970052  0
H  H62  1  0.55602137  0.31494498  0.42277036  1  0.142099  0  0.125721  0.100418  0  0.970055  0
H  H63  1  0.94397878  0.31494592  0.07722783  1  0.142232  0  0.12572  0.10042  0  0.970045  0
H  H64  1  0.29960201  0.55930857  0.54072703  1  0.064464  0  0.116198  0.125021  0  0.971628  0
H  H65  1  0.20039686  0.55930811  0.95927256  1  0.064462  0  0.116228  0.125059  0  0.971622  0
H  H66  1  0.70039737  0.44069169  0.45927186  1  0.064032  0  0.116211  0.125064  0  0.971587  0
H  H67  1  0.79960251  0.44069278  0.04072686  1  0.06446  0  0.116227  0.125057  0  0.971623  0
H  H68  1  0.38442211  0.41024275  0.56224852  1  0.08882  0  0.11017  0.112643  0  1.021821  0
H  H69  1  0.11557799  0.41024174  0.93775124  1  0.088799  0  0.110161  0.112632  0  1.021826  0
H  H70  1  0.61557635  0.58975686  0.43775126  1  0.088837  0  0.110177  0.112677  0  1.021807  0
H  H71  1  0.88442320  0.58975787  0.06224852  1  0.088807  0  0.110163  0.112656  0  1.021826  0
H  H72  1  0.56781171  0.31411579  0.60936676  1  0.120208  0  0.10481  0.113547  0  1.029642  0
H  H73  1  0.93218830  0.31411566  0.89063262  1  0.120191  0  0.104815  0.113537  0  1.029659  0
H  H74  1  0.43218585  0.68588382  0.39063179  1  0.120242  0  0.104811  0.113541  0  1.029604  0
H  H75  1  0.06781199  0.68588459  0.10936697  1  0.12019  0  0.104818  0.113547  0  1.029642  0
H  H76  1  0.79074786  0.29870018  0.66759550  1  0.088076  0  0.108346  0.116626  0  1.01173  0
H  H77  1  0.70925217  0.29869964  0.83240546  1  0.088056  0  0.10833  0.116601  0  1.011805  0
H  H78  1  0.20924969  0.70129944  0.33240463  1  0.088073  0  0.108317  0.116577  0  1.011778  0
H  H79  1  0.29074811  0.70130062  0.16759624  1  0.087994  0  0.108338  0.116584  0  1.011791  0
H  H80  1  0.99391039  0.36685906  0.72296939  1  0.140404  0  0.108607  0.10619  0  1.04826  0
H  H81  1  0.50608766  0.36685873  0.77703281  1  0.140343  0  0.10861  0.106224  0  1.048199  0
H  H82  1  0.00608533  0.63313926  0.27703198  1  0.140121  0  0.108609  0.106218  0  1.048247  0
H  H83  1  0.49391170  0.63314088  0.22296872  1  0.140055  0  0.108605  0.106215  0  1.048228  0
H  H84  1  0.11886387  0.50135647  0.75748975  1  0.100687  0  0.11185  0.117782  0  0.990136  0
H  H85  1  0.38113420  0.50135566  0.74251178  1  0.100666  0  0.111837  0.117771  0  0.990151  0
H  H86  1  0.88113367  0.49864250  0.24251144  1  0.100647  0  0.111822  0.117745  0  0.990166  0
H  H87  1  0.61886517  0.49864459  0.25748764  1  0.100667  0  0.111829  0.117769  0  0.990161  0
H  H88  1  0.01272278  0.64452827  0.73021587  1  0.131888  0  0.123701  0.096486  0  0.968952  0
H  H89  1  0.48727499  0.64452800  0.76978407  1  0.131873  0  0.12372  0.096543  0  0.968984  0
H  H90  1  0.98727477  0.35547006  0.26978426  1  0.131843  0  0.123731  0.096508  0  0.968955  0
H  H91  1  0.51272529  0.35547226  0.23021551  1  0.131881  0  0.123711  0.096499  0  0.968989  0
C  C92  1  0.68881887  0.75077330  0.49543278  1  1.500501  0  0.190846  0.565052  0  4.216561  0
C  C93  1  0.81118125  0.75077372  0.00456717  1  1.500521  0  0.190813  0.564944  0  4.216549  0
C  C94  1  0.31118142  0.24922695  0.50456628  1  1.500539  0  0.190838  0.564996  0  4.216602  0
C  C95  1  0.18881903  0.24922718  0.99543347  1  1.500671  0  0.190832  0.564981  0  4.216551  0
C  C96  1  0.65407433  0.76364451  0.41396605  1  -0.0908  0  -0.037902  -0.177065  0  4.046427  0
C  C97  1  0.84592576  0.76364429  0.08603337  1  -0.090844  0  -0.037902  -0.177043  0  4.046429  0
C  C98  1  0.34592596  0.23635575  0.58603301  1  -0.090721  0  -0.037883  -0.176951  0  4.04638  0
C  C99  1  0.15407543  0.23635596  0.91396691  1  -0.090963  0  -0.037885  -0.176937  0  4.046409  0
C  C100  1  0.55934228  0.81831908  0.37957822  1  0.052919  0  -0.075759  -0.111478  0  3.979446  0
C  C101  1  0.94065678  0.81831942  0.12042157  1  0.052922  0  -0.075756  -0.111505  0  3.979369  0
C  C102  1  0.44065710  0.18168053  0.62042067  1  0.052804  0  -0.075774  -0.111579  0  3.979358  0
C  C103  1  0.05934350  0.18168084  0.87957907  1  0.05288  0  -0.075746  -0.111585  0  3.979409  0
C  C104  1  0.51985836  0.82820053  0.30196397  1  -0.057983  0  -0.015221  0.052814  0  4.02416  0
C  C105  1  0.98014068  0.82820022  0.19803528  1  -0.057999  0  -0.01521  0.052917  0  4.024159  0
C  C106  1  0.48014192  0.17179844  0.69803509  1  -0.057968  0  -0.015204  0.052885  0  4.024143  0
C  C107  1  0.01985961  0.17179810  0.80196483  1  -0.057985  0  -0.015226  0.05289  0  4.02413  0
C  C108  1  0.42008395  0.88239878  0.26683542  1  -0.0577  0  -0.085763  -0.11578  0  3.984567  0
C  C109  1  0.07991528  0.88239833  0.23316421  1  -0.057527  0  -0.085729  -0.115775  0  3.984613  0
C  C110  1  0.57991725  0.11760212  0.73316380  1  -0.057652  0  -0.085761  -0.115819  0  3.984645  0
C  C111  1  0.92008409  0.11760257  0.76683627  1  -0.057485  0  -0.085743  -0.115804  0  3.984671  0
C  C112  1  0.37892473  0.88968966  0.19085622  1  -0.005737  0  -0.100191  -0.101148  0  4.047763  0
C  C113  1  0.12107540  0.88968921  0.30914305  1  -0.005762  0  -0.100201  -0.101148  0  4.047676  0
C  C114  1  0.62107647  0.11031060  0.80914301  1  -0.005851  0  -0.100215  -0.101194  0  4.047781  0
C  C115  1  0.87892489  0.11031041  0.69085706  1  -0.005841  0  -0.100226  -0.101189  0  4.047741  0
C  C116  1  0.43627671  0.84248852  0.14697343  1  -0.13755  0  -0.08753  -0.068043  0  4.015732  0
C  C117  1  0.06372352  0.84248688  0.35302637  1  -0.137539  0  -0.08755  -0.067999  0  4.015638  0
C  C118  1  0.56372722  0.15751302  0.85302684  1  -0.1375  0  -0.087525  -0.067972  0  4.01561  0
C  C119  1  0.93627403  0.15751273  0.64697324  1  -0.137546  0  -0.087544  -0.068032  0  4.015653  0
C  C120  1  0.53443141  0.78967556  0.17941493  1  -0.105617  0  -0.102073  -0.159893  0  3.985224  0
C  C121  1  0.96556954  0.78967470  0.32058360  1  -0.10564  0  -0.102064  -0.159894  0  3.985197  0
C  C122  1  0.46557161  0.21032534  0.82058463  1  -0.105501  0  -0.102069  -0.159947  0  3.985154  0
C  C123  1  0.03442893  0.21032491  0.67941564  1  -0.105463  0  -0.102038  -0.159875  0  3.985188  0
C  C124  1  0.58071179  0.78122245  0.25789347  1  -0.018079  0  -0.004791  0.044293  0  3.970577  0
C  C125  1  0.91928918  0.78122160  0.24210507  1  -0.017905  0  -0.00483  0.044184  0  3.97049  0
C  C126  1  0.41928941  0.21877652  0.74210629  1  -0.018069  0  -0.004742  0.044393  0  3.97056  0
C  C127  1  0.08071111  0.21877672  0.75789346  1  -0.018068  0  -0.004783  0.04434  0  3.970485  0
C  C128  1  0.68207538  0.72752432  0.29329659  1  0.085507  0  -0.030056  -0.061363  0  3.916236  0
C  C129  1  0.81792388  0.72752293  0.20670266  1  0.085462  0  -0.030021  -0.061286  0  3.916131  0
C  C130  1  0.31792490  0.27247529  0.70670352  1  0.08548  0  -0.030112  -0.061423  0  3.916286  0
C  C131  1  0.18207641  0.27247476  0.79329692  1  0.085483  0  -0.030029  -0.061325  0  3.916051  0
C  C132  1  0.71653289  0.71829855  0.37025126  1  0.484799  0  0.078702  0.2327  0  4.067207  0
C  C133  1  0.78346821  0.71829780  0.12974886  1  0.484779  0  0.078649  0.232606  0  4.067322  0
C  C134  1  0.28346740  0.28170234  0.62974833  1  0.484874  0  0.07869  0.232575  0  4.067272  0
C  C135  1  0.21653298  0.28170310  0.87025195  1  0.484888  0  0.07868  0.232553  0  4.067195  0
C  C136  1  0.75000014  0.67659482  0.24999997  1  -0.03287  0  -0.162002  -0.211536  0  3.966696  0
C  C137  1  0.25000014  0.32340544  0.75000014  1  -0.032885  0  -0.161989  -0.211503  0  3.96662  0
C  C138  1  0.57636714  0.82307607  0.74858031  1  1.484766  0  0.202122  0.594292  0  4.175603  0
C  C139  1  0.92363085  0.82307715  0.75141996  1  1.484492  0  0.202152  0.594345  0  4.17562  0
C  C140  1  0.42363315  0.17692355  0.25141927  1  1.484754  0  0.202254  0.594474  0  4.175544  0
C  C141  1  0.07636670  0.17692375  0.24857964  1  1.484282  0  0.202147  0.594364  0  4.175617  0
C  C142  1  0.48143739  0.88337532  0.70701878  1  -0.011815  0  -0.046317  -0.186592  0  4.063195  0
C  C143  1  0.01856169  0.88337627  0.79298151  1  -0.011463  0  -0.046285  -0.186555  0  4.063094  0
C  C144  1  0.51856198  0.11662429  0.29298116  1  -0.011738  0  -0.046308  -0.186578  0  4.063145  0
C  C145  1  0.98143768  0.11662398  0.20701949  1  -0.011499  0  -0.046309  -0.186541  0  4.063144  0
C  C146  1  0.45820031  0.89334612  0.63106815  1  -0.011126  0  -0.089042  -0.134061  0  3.977201  0
C  C147  1  0.04179874  0.89334708  0.86893214  1  -0.011201  0  -0.089099  -0.134144  0  3.977189  0
C  C148  1  0.54179906  0.10665350  0.36893232  1  -0.01112  0  -0.089073  -0.13412  0  3.977263  0
C  C149  1  0.95820062  0.10665253  0.13106886  1  -0.010889  0  -0.089058  -0.134105  0  3.977198  0
C  C150  1  0.36482462  0.94833567  0.59020299  1  -0.07197  0  -0.02058  0.052762  0  4.034545  0
C  C151  1  0.13517796  0.94833527  0.90979745  1  -0.071975  0  -0.020545  0.052838  0  4.034437  0
C  C152  1  0.63517657  0.05166459  0.40979782  1  -0.071955  0  -0.020545  0.052841  0  4.034552  0
C  C153  1  0.86482233  0.05166499  0.09020213  1  -0.071948  0  -0.020553  0.052771  0  4.03448  0
C  C154  1  0.34630515  0.96361809  0.51337460  1  0.003737  0  -0.095833  -0.137484  0  3.999058  0
C  C155  1  0.15369558  0.96361900  0.98662603  1  0.003727  0  -0.095865  -0.137599  0  3.9991  0
C  C156  1  0.65369604  0.03638216  0.48662621  1  0.003885  0  -0.095863  -0.137561  0  3.999062  0
C  C157  1  0.84630470  0.03638061  0.01337408  1  0.003724  0  -0.09586  -0.137542  0  3.999025  0
C  C158  1  0.25354869  0.01615281  0.47332160  1  -0.119947  0  -0.10296  -0.0951  0  4.049148  0
C  C159  1  0.24645150  0.01615268  0.02667889  1  -0.119953  0  -0.102953  -0.095017  0  4.049097  0
C  C160  1  0.74645159  0.98384744  0.52667904  1  -0.119964  0  -0.102957  -0.095063  0  4.04906  0
C  C161  1  0.75354787  0.98384694  0.97332158  1  -0.119963  0  -0.102933  -0.095019  0  4.049115  0
C  C162  1  0.17222540  0.05239707  0.50819874  1  0.04029  0  -0.093496  -0.073454  0  4.010425  0
C  C163  1  0.32777547  0.05239777  0.99180206  1  0.04028  0  -0.093499  -0.073511  0  4.010395  0
C  C164  1  0.82777487  0.94760255  0.49180243  1  0.040333  0  -0.093478  -0.07341  0  4.010383  0
C  C165  1  0.67222481  0.94760249  0.00819858  1  0.040285  0  -0.093509  -0.073482  0  4.010378  0
C  C166  1  0.18882164  0.04005813  0.58266810  1  -0.108972  0  -0.094135  -0.129505  0  3.977211  0
C  C167  1  0.31117926  0.04005816  0.91733217  1  -0.109288  0  -0.094106  -0.12946  0  3.977232  0
C  C168  1  0.81117955  0.95994149  0.41733323  1  -0.109482  0  -0.09419  -0.12964  0  3.977326  0
C  C169  1  0.68882102  0.95994274  0.08266795  1  -0.10934  0  -0.094112  -0.129506  0  3.977211  0
C  C170  1  0.28800499  0.99054081  0.62731245  1  -0.014246  0  -0.000955  0.051614  0  3.952632  0
C  C171  1  0.21199568  0.99054157  0.87268766  1  -0.013924  0  -0.000953  0.051648  0  3.952679  0
C  C172  1  0.71199529  0.00945816  0.37268766  1  -0.013927  0  -0.000934  0.051642  0  3.952722  0
C  C173  1  0.78800369  0.00945933  0.12731282  1  -0.013959  0  -0.000961  0.051654  0  3.952697  0
C  C174  1  0.31500411  0.98304488  0.70559085  1  0.097628  0  -0.021143  -0.035  0  3.89575  0
C  C175  1  0.18499658  0.98304562  0.79440978  1  0.097771  0  -0.02118  -0.035069  0  3.895858  0
C  C176  1  0.68499617  0.01695410  0.29440979  1  0.097786  0  -0.021151  -0.034987  0  3.895825  0
C  C177  1  0.81500462  0.01695463  0.20559050  1  0.09777  0  -0.021134  -0.034993  0  3.895837  0
C  C178  1  0.41238758  0.93180104  0.74469356  1  0.511339  0  0.081076  0.240266  0  4.055601  0
C  C179  1  0.08761322  0.93180188  0.75530655  1  0.511145  0  0.08107  0.240244  0  4.055636  0
C  C180  1  0.58761362  0.06819793  0.25530620  1  0.511146  0  0.081069  0.240217  0  4.055678  0
C  C181  1  0.91238706  0.06819838  0.24469409  1  0.511128  0  0.081066  0.240212  0  4.05565  0
C  C182  1  0.25000046  0.03423097  0.75000014  1  0.006173  0  -0.15626  -0.187744  0  3.937229  0
C  C183  1  0.75000074  0.96576865  0.24999962  1  0.006181  0  -0.156277  -0.187808  0  3.937292  0
C  C184  1  0.47668027  0.61882152  0.58591991  1  0.49387  0  0.061331  0.107585  0  3.943956  0
C  C185  1  0.02331846  0.61882061  0.91408020  1  0.493776  0  0.061362  0.10762  0  3.943981  0
C  C186  1  0.52331820  0.38117810  0.41407828  1  0.494003  0  0.061371  0.107606  0  3.943941  0
C  C187  1  0.97668182  0.38117965  0.08591991  1  0.493832  0  0.061354  0.107645  0  3.943973  0
C  C188  1  0.39686556  0.54837734  0.56577550  1  0.001505  0  -0.080807  -0.131108  0  3.985356  0
C  C189  1  0.10313607  0.54837699  0.93422459  1  0.001749  0  -0.080863  -0.131171  0  3.98535  0
C  C190  1  0.60313290  0.45162292  0.43422375  1  0.001925  0  -0.080841  -0.131175  0  3.985357  0
C  C191  1  0.89686422  0.45162327  0.06577499  1  0.001597  0  -0.080847  -0.131146  0  3.985401  0
C  C192  1  0.44398993  0.46600233  0.57759038  1  0.017426  0  -0.060921  -0.065691  0  3.908981  0
C  C193  1  0.05601005  0.46600138  0.92240991  1  0.017326  0  -0.060922  -0.065706  0  3.908898  0
C  C194  1  0.55600853  0.53399793  0.42240940  1  0.017483  0  -0.060941  -0.065742  0  3.908995  0
C  C195  1  0.94399023  0.53399887  0.07759073  1  0.01744  0  -0.060939  -0.065765  0  3.908973  0
C  C196  1  0.57056344  0.45388187  0.61005627  1  -0.033896  0  -0.001429  0.038838  0  4.019269  0
C  C197  1  0.92943535  0.45388110  0.88994347  1  -0.033928  0  -0.001404  0.03884  0  4.019237  0
C  C198  1  0.42943503  0.54611839  0.38994245  1  -0.033868  0  -0.0014  0.038824  0  4.019296  0
C  C199  1  0.07056494  0.54611852  0.11005611  1  -0.033951  0  -0.001392  0.03887  0  4.01925  0
C  C200  1  0.62598613  0.37064676  0.62430516  1  -0.067528  0  -0.082652  -0.11633  0  3.965111  0
C  C201  1  0.87401375  0.37064669  0.87569528  1  -0.067542  0  -0.082641  -0.116283  0  3.9651  0
C  C202  1  0.37401233  0.62935221  0.37569409  1  -0.067596  0  -0.082631  -0.116296  0  3.964977  0
C  C203  1  0.12598563  0.62935293  0.12430467  1  -0.067521  0  -0.082654  -0.11631  0  3.965044  0
C  C204  1  0.74867941  0.36212545  0.65654710  1  -0.036752  0  -0.078672  -0.110308  0  3.959133  0
C  C205  1  0.75131957  0.36212423  0.84345370  1  -0.036257  0  -0.078676  -0.110305  0  3.959085  0
C  C206  1  0.25131722  0.63787480  0.34345287  1  -0.036313  0  -0.078693  -0.110266  0  3.959043  0
C  C207  1  0.24868071  0.63787603  0.15654747  1  -0.036356  0  -0.078667  -0.11027  0  3.959046  0
C  C208  1  0.82535316  0.43628321  0.67697112  1  -0.03367  0  -0.000387  0.042435  0  4.000391  0
C  C209  1  0.67464567  0.43628271  0.82302915  1  -0.033921  0  -0.000367  0.042454  0  4.000333  0
C  C210  1  0.17464348  0.56371640  0.32302884  1  -0.033869  0  -0.000346  0.042408  0  4.000454  0
C  C211  1  0.32535553  0.56371819  0.17697114  1  -0.033996  0  -0.000357  0.042466  0  4.00041  0
C  C212  1  0.95224081  0.43026377  0.71132815  1  -0.028429  0  -0.05708  -0.057977  0  3.898627  0
C  C213  1  0.54775711  0.43026339  0.78867353  1  -0.02842  0  -0.057104  -0.058004  0  3.898545  0
C  C214  1  0.04775582  0.56973520  0.28867287  1  -0.028142  0  -0.057083  -0.058019  0  3.898671  0
C  C215  1  0.45224317  0.56973686  0.21132711  1  -0.028124  0  -0.057105  -0.058028  0  3.898621  0
C  C216  1  0.02098465  0.50433921  0.73034668  1  -0.050313  0  -0.082025  -0.129683  0  3.979281  0
C  C217  1  0.47901433  0.50433831  0.76965449  1  -0.050288  0  -0.082014  -0.129676  0  3.979261  0
C  C218  1  0.97901199  0.49565912  0.26965381  1  -0.050322  0  -0.082048  -0.129669  0  3.97933  0
C  C219  1  0.52098686  0.49566067  0.23034579  1  -0.050304  0  -0.081986  -0.129664  0  3.979219  0
C  C220  1  0.96235644  0.58444125  0.71512602  1  0.496768  0  0.060663  0.113573  0  3.946694  0
C  C221  1  0.53764114  0.58444153  0.78487566  1  0.496806  0  0.060644  0.113515  0  3.946899  0
C  C222  1  0.03764293  0.41555772  0.28487498  1  0.496807  0  0.060654  0.113558  0  3.946946  0
C  C223  1  0.46235823  0.41555873  0.21512376  1  0.496805  0  0.060654  0.113593  0  3.946845  0
C  C224  1  0.77397385  0.52000879  0.66344660  1  0.495615  0  0.117846  0.124129  0  3.96551  0
C  C225  1  0.72602480  0.52000759  0.83655367  1  0.495869  0  0.117817  0.124092  0  3.965528  0
C  C226  1  0.22602461  0.47999146  0.33655318  1  0.495878  0  0.117871  0.124208  0  3.965403  0
C  C227  1  0.27397457  0.47999266  0.16344680  1  0.495611  0  0.11781  0.124087  0  3.965546  0
C  C228  1  0.64392804  0.52890744  0.62901159  1  0.523374  0  0.116921  0.116705  0  3.980224  0
C  C229  1  0.85607058  0.52890674  0.87098868  1  0.523418  0  0.116949  0.116764  0  3.980235  0
C  C230  1  0.35607042  0.47109282  0.37098766  1  0.5234  0  0.116919  0.116732  0  3.980192  0
C  C231  1  0.14392970  0.47109351  0.12901143  1  0.523405  0  0.116956  0.116782  0  3.980201  0
N  N232  1  0.59603376  0.60886608  0.61629873  1  -1.229014  0  -0.319504  -0.265439  0  3.510627  0
N  N233  1  0.90396560  0.60886470  0.88370119  1  -1.229006  0  -0.319509  -0.265476  0  3.510637  0
N  N234  1  0.40396561  0.39113482  0.38370016  1  -1.22903  0  -0.319519  -0.265451  0  3.510605  0
N  N235  1  0.09603468  0.39113492  0.11629893  1  -1.229004  0  -0.319551  -0.265569  0  3.510651  0
N  N236  1  0.84301797  0.59181319  0.68267331  1  -1.23555  0  -0.319914  -0.268907  0  3.50992  0
N  N237  1  0.65697962  0.59181270  0.81732573  1  -1.23556  0  -0.319916  -0.268943  0  3.510041  0
N  N238  1  0.15697959  0.40818707  0.31732524  1  -1.23562  0  -0.319934  -0.268942  0  3.510035  0
N  N239  1  0.34301976  0.40818820  0.18267368  1  -1.235559  0  -0.319898  -0.268922  0  3.509999  0
O  O240  1  0.62713669  0.78520865  0.53321143  1  -1.156371  0  -0.324654  -0.540626  0  2.208719  0
O  O241  1  0.87286230  0.78520799  0.96678796  1  -1.156373  0  -0.324669  -0.540588  0  2.208748  0
O  O242  1  0.37286360  0.21479225  0.46678763  1  -1.156399  0  -0.324673  -0.540609  0  2.208777  0
O  O243  1  0.12713708  0.21479290  0.03321198  1  -1.156366  0  -0.324694  -0.540632  0  2.208792  0
O  O244  1  0.78104823  0.70141679  0.52590664  1  -1.167846  0  -0.335652  -0.568397  0  2.186117  0
O  O245  1  0.71895184  0.70141632  0.97409345  1  -1.167845  0  -0.335605  -0.568349  0  2.18602  0
O  O246  1  0.21895205  0.29858411  0.47409295  1  -1.167857  0  -0.335638  -0.568394  0  2.186089  0
O  O247  1  0.28104935  0.29858393  0.02590683  1  -1.167877  0  -0.335617  -0.568368  0  2.186048  0
O  O248  1  0.81044132  0.66532489  0.40422652  1  -1.189522  0  -0.363985  -0.463499  0  2.311224  0
O  O249  1  0.68956081  0.66532422  0.09577324  1  -1.189515  0  -0.363941  -0.463486  0  2.311242  0
O  O250  1  0.18955988  0.33467666  0.59577271  1  -1.189527  0  -0.363947  -0.463432  0  2.311225  0
O  O251  1  0.31044130  0.33467668  0.90422721  1  -1.189532  0  -0.363944  -0.463403  0  2.311182  0
O  O252  1  0.61570433  0.76368448  0.71575451  1  -1.207744  0  -0.340722  -0.591694  0  2.381207  0
O  O253  1  0.88429743  0.76368627  0.78424592  1  -1.207172  0  -0.340751  -0.591737  0  2.381319  0
O  O254  1  0.38429687  0.23631449  0.28424419  1  -1.207707  0  -0.340842  -0.591813  0  2.381285  0
O  O255  1  0.11570103  0.23631463  0.21575280  1  -1.206999  0  -0.340743  -0.59175  0  2.381279  0
O  O256  1  0.61573126  0.82931079  0.82027176  1  -1.155323  0  -0.321628  -0.543081  0  2.241905  0
O  O257  1  0.88426945  0.82931123  0.67972744  1  -1.155339  0  -0.321633  -0.543084  0  2.241871  0
O  O258  1  0.38427085  0.17068882  0.17972764  1  -1.15537  0  -0.321641  -0.543129  0  2.241907  0
O  O259  1  0.11572901  0.17069031  0.32027233  1  -1.155328  0  -0.321627  -0.543093  0  2.241901  0
O  O260  1  0.44035477  0.92907870  0.81947932  1  -1.196764  0  -0.349327  -0.441336  0  2.353742  0
O  O261  1  0.05964421  0.92907888  0.68052150  1  -1.196757  0  -0.349325  -0.441338  0  2.353792  0
O  O262  1  0.55964642  0.07092092  0.18052149  1  -1.196771  0  -0.34931  -0.441305  0  2.353802  0
O  O263  1  0.94035516  0.07092137  0.31948003  1  -1.196789  0  -0.349314  -0.441304  0  2.353802  0
