# generated using pymatgen
data_CdPH13C15N2O5
_symmetry_space_group_name_H-M   'P 1'
_cell_length_a   8.17058035
_cell_length_b   9.48213058
_cell_length_c   11.07809239
_cell_angle_alpha   101.66770160
_cell_angle_beta   99.93949206
_cell_angle_gamma   113.41707827
_symmetry_Int_Tables_number   1
_chemical_formula_structural   CdPH13C15N2O5
_chemical_formula_sum   'Cd2 P2 H26 C30 N4 O10'
_cell_volume   740.11406953
_cell_formula_units_Z   2
loop_
 _symmetry_equiv_pos_site_id
 _symmetry_equiv_pos_as_xyz
  1  'x, y, z'
loop_
 _atom_site_type_symbol
 _atom_site_label
 _atom_site_symmetry_multiplicity
 _atom_site_fract_x
 _atom_site_fract_y
 _atom_site_fract_z
 _atom_site_occupancy
 _atom_site_hle17_bader_spin_density
 _atom_site_hle17_ddec_charge
 _atom_site_hle17_ddec_spin_density
 _atom_site_hle17_ddec_sum_bond_order
 _atom_site_hle17_magmom
 _atom_site_hse06_10hf_bader_spin_density
 _atom_site_hse06_10hf_ddec_charge
 _atom_site_hse06_10hf_ddec_spin_density
 _atom_site_hse06_10hf_ddec_sum_bond_order
 _atom_site_hse06_10hf_magmom
 _atom_site_hse06_bader_spin_density
 _atom_site_hse06_ddec_charge
 _atom_site_hse06_ddec_spin_density
 _atom_site_hse06_ddec_sum_bond_order
 _atom_site_hse06_magmom
 _atom_site_pbe_bader_spin_density
 _atom_site_pbe_cm5_charge
 _atom_site_pbe_ddec_charge
 _atom_site_pbe_ddec_spin_density
 _atom_site_pbe_ddec_sum_bond_order
 _atom_site_pbe_magmom
Cd  Cd0  1  0.88315023  0.42526210  0.82999269  1  0  1.163621  0  1.6694  0  0  0.969674  0  2.115726  0  0  1.025899  0  2.064719  0  0  0.791248  0.928209  0  2.151577  0
Cd  Cd1  1  0.11684849  0.57473671  0.17000638  1  0  1.163631  0  1.669402  0  0  0.969693  0  2.115731  0  0  1.025916  0  2.064725  0  0  0.791245  0.928227  0  2.151581  0
P  P2  1  0.06601488  0.21135191  0.97722339  1  0  1.501691  0  4.776032  0  0  1.345468  0  5.278485  0  0  1.394233  0  5.240809  0  0  0.341558  1.309467  0  5.305307  0
P  P3  1  0.93398445  0.78864810  0.02277596  1  0  1.50166  0  4.77606  0  0  1.345432  0  5.278519  0  0  1.394197  0  5.240842  0  0  0.34153  1.309432  0  5.305342  0
H  H4  1  0.07480672  0.07522914  0.12220104  1  0  0.428057  0  0.890401  0  0  0.393911  0  0.959362  0  0  0.405697  0  0.942774  0  0  0.295225  0.384704  0  0.972191  0
H  H5  1  0.92519386  0.92477088  0.87779846  1  0  0.428048  0  0.890414  0  0  0.3939  0  0.959379  0  0  0.405686  0  0.94279  0  0  0.295223  0.384694  0  0.972206  0
H  H6  1  0.41100260  0.57034103  0.43596711  1  0  0.108375  0  0.969635  0  0  0.116712  0  1.033914  0  0  0.120049  0  1.032557  0  0  0.103255  0.114288  0  1.035126  0
H  H7  1  0.58899861  0.42966018  0.56403359  1  0  0.108381  0  0.969644  0  0  0.116721  0  1.033917  0  0  0.120055  0  1.032562  0  0  0.103257  0.114296  0  1.035129  0
H  H8  1  0.66036506  0.05914852  0.62758162  1  0  0.078451  0  0.938031  0  0  0.087636  0  1.003124  0  0  0.089967  0  1.000888  0  0  0.118337  0.085642  0  1.005185  0
H  H9  1  0.33963679  0.94085150  0.37241984  1  0  0.078391  0  0.938066  0  0  0.087605  0  1.003124  0  0  0.089948  0  1.000874  0  0  0.118324  0.085602  0  1.005194  0
H  H10  1  0.25796793  0.78256638  0.92691043  1  0  0.094148  0  0.939849  0  0  0.101292  0  1.005026  0  0  0.104244  0  1.001309  0  0  0.122517  0.099099  0  1.007742  0
H  H11  1  0.74203517  0.21743365  0.07309118  1  0  0.094148  0  0.939839  0  0  0.101303  0  1.005008  0  0  0.104256  0  1.001288  0  0  0.122519  0.099109  0  1.007724  0
H  H12  1  0.17612422  0.29416585  0.31765152  1  0  0.126009  0  0.966506  0  0  0.137034  0  1.02373  0  0  0.140305  0  1.022277  0  0  0.110763  0.13451  0  1.024884  0
H  H13  1  0.82387698  0.70583536  0.68234918  1  0  0.126028  0  0.966524  0  0  0.13705  0  1.023749  0  0  0.140322  0  1.022297  0  0  0.110779  0.134527  0  1.024904  0
H  H14  1  0.39611037  0.32996536  0.05042232  1  0  0.128926  0  0.954296  0  0  0.142125  0  1.012541  0  0  0.144202  0  1.013494  0  0  0.101652  0.140517  0  1.012088  0
H  H15  1  0.60388956  0.67003585  0.94957642  1  0  0.128933  0  0.954264  0  0  0.142133  0  1.012505  0  0  0.14421  0  1.01346  0  0  0.101657  0.140527  0  1.012052  0
H  H16  1  0.30123746  0.12926761  0.95013856  1  0  0.127342  0  0.93822  0  0  0.142107  0  0.994487  0  0  0.144516  0  0.994007  0  0  0.104246  0.140169  0  0.995114  0
H  H17  1  0.69876375  0.87073361  0.04986214  1  0  0.12734  0  0.938206  0  0  0.142103  0  0.994472  0  0  0.144513  0  0.993992  0  0  0.104254  0.140165  0  0.995099  0
H  H18  1  0.52656057  0.93812376  0.84769880  1  0  0.126933  0  0.936964  0  0  0.137024  0  0.993237  0  0  0.140637  0  0.991767  0  0  0.1155  0.134314  0  0.994519  0
H  H19  1  0.47344188  0.06187747  0.15230204  1  0  0.12693  0  0.936976  0  0  0.137025  0  0.993246  0  0  0.140639  0  0.991776  0  0  0.115511  0.134315  0  0.994527  0
H  H20  1  0.55344552  0.80483941  0.63813105  1  0  0.096044  0  0.938157  0  0  0.110681  0  0.994359  0  0  0.112895  0  0.993304  0  0  0.110691  0.109227  0  0.994972  0
H  H21  1  0.44655507  0.19516060  0.36186936  1  0  0.096059  0  0.938142  0  0  0.110697  0  0.994345  0  0  0.112911  0  0.993291  0  0  0.110689  0.109243  0  0.994957  0
H  H22  1  0.22299200  0.22279371  0.75684948  1  0  0.089521  0  0.941055  0  0  0.105629  0  1.003935  0  0  0.107288  0  1.003927  0  0  0.097388  0.104629  0  1.003799  0
H  H23  1  0.77700550  0.77720268  0.24314991  1  0  0.089505  0  0.940987  0  0  0.105645  0  1.003827  0  0  0.107303  0  1.003817  0  0  0.097382  0.104645  0  1.003692  0
H  H24  1  0.32761354  0.42142937  0.85769563  1  0  0.099916  0  0.939607  0  0  0.114509  0  1.001046  0  0  0.116355  0  1.001152  0  0  0.097923  0.113241  0  1.000973  0
H  H25  1  0.67238330  0.57856823  0.14230209  1  0  0.099965  0  0.939556  0  0  0.114537  0  1.001027  0  0  0.116383  0  1.001124  0  0  0.097954  0.113269  0  1.000954  0
H  H26  1  0.65955790  0.90343025  0.41377452  1  0  0.106696  0  0.953041  0  0  0.118181  0  1.010893  0  0  0.120937  0  1.010823  0  0  0.108875  0.116156  0  1.011285  0
H  H27  1  0.34044521  0.09656977  0.58622800  1  0  0.106699  0  0.953051  0  0  0.118163  0  1.010931  0  0  0.120921  0  1.010857  0  0  0.108861  0.116138  0  1.011323  0
H  H28  1  0.90419089  0.04346353  0.31030388  1  0  0.114536  0  0.932491  0  0  0.127589  0  0.988104  0  0  0.130225  0  0.986489  0  0  0.116495  0.125831  0  0.988977  0
H  H29  1  0.09580844  0.95653648  0.68969548  1  0  0.114549  0  0.932522  0  0  0.127608  0  0.98813  0  0  0.130245  0  0.986515  0  0  0.116506  0.12585  0  0.989002  0
C  C30  1  0.02038355  0.34323408  0.58612960  1  0  0.128894  0  3.757463  0  0  0.122116  0  3.993677  0  0  0.126696  0  4.016242  0  0  0.118715  0.118731  0  3.979094  0
C  C31  1  0.97961825  0.65676834  0.41387048  1  0  0.128965  0  3.757561  0  0  0.122201  0  3.993741  0  0  0.126782  0  4.016303  0  0  0.118783  0.118822  0  3.979165  0
C  C32  1  0.51852578  0.32631504  0.82582855  1  0  0.669034  0  3.881762  0  0  0.627556  0  4.174232  0  0  0.660478  0  4.169616  0  0  0.185554  0.605361  0  4.176192  0
C  C33  1  0.48147233  0.67368255  0.17417113  1  0  0.669041  0  3.881914  0  0  0.6275  0  4.174442  0  0  0.660419  0  4.169829  0  0  0.185523  0.605304  0  4.176404  0
C  C34  1  0.03244041  0.26564366  0.46608700  1  0  0.032182  0  3.780443  0  0  0.049075  0  4.011833  0  0  0.046681  0  4.036438  0  0  0.000366  0.049684  0  3.996912  0
C  C35  1  0.96755828  0.73435755  0.53391159  1  0  0.032164  0  3.780444  0  0  0.04907  0  4.011818  0  0  0.046676  0  4.036423  0  0  0.000368  0.04968  0  3.996895  0
C  C36  1  0.30487005  0.50619338  0.47885360  1  0  -0.095459  0  3.739413  0  0  -0.118897  0  3.997799  0  0  -0.121736  0  4.019617  0  0  -0.084986  -0.117048  0  3.982835  0
C  C37  1  0.69512742  0.49380542  0.52114532  1  0  -0.095445  0  3.739295  0  0  -0.118884  0  3.99768  0  0  -0.121721  0  4.0195  0  0  -0.084965  -0.117035  0  3.982717  0
C  C38  1  0.76277969  0.11393506  0.57853440  1  0  0.147265  0  3.710603  0  0  0.112846  0  3.969986  0  0  0.12168  0  3.986294  0  0  0.056117  0.106858  0  3.959315  0
C  C39  1  0.23722336  0.88606977  0.42146716  1  0  0.147378  0  3.710309  0  0  0.112941  0  3.969675  0  0  0.121766  0  3.985979  0  0  0.056133  0.10696  0  3.95901  0
C  C40  1  0.27308205  0.73065434  0.83490401  1  0  0.165802  0  3.655788  0  0  0.130293  0  3.916526  0  0  0.139518  0  3.932037  0  0  0.066573  0.124136  0  3.905515  0
C  C41  1  0.72691915  0.26934688  0.16509669  1  0  0.165864  0  3.655818  0  0  0.130347  0  3.916556  0  0  0.139572  0  3.93207  0  0  0.066601  0.124191  0  3.905542  0
C  C42  1  0.30152301  0.58627146  0.60181548  1  0  0.028877  0  3.787036  0  0  0.043872  0  4.019773  0  0  0.041979  0  4.043338  0  0  0.000686  0.04563  0  4.003506  0
C  C43  1  0.69847818  0.41372976  0.39818432  1  0  0.028869  0  3.787052  0  0  0.043863  0  4.019801  0  0  0.041969  0  4.043369  0  0  0.000691  0.04563  0  4.003538  0
C  C44  1  0.17523420  0.35192230  0.41305081  1  0  -0.10873  0  3.71222  0  0  -0.134046  0  3.969174  0  0  -0.137877  0  3.991303  0  0  -0.087713  -0.130989  0  3.954311  0
C  C45  1  0.82476512  0.64808011  0.58694898  1  0  -0.108784  0  3.71214  0  0  -0.134104  0  3.969094  0  0  -0.137935  0  3.991223  0  0  -0.087785  -0.131047  0  3.954234  0
C  C46  1  0.29318541  0.24396534  0.96024743  1  0  -0.438308  0  3.717407  0  0  -0.455644  0  3.963772  0  0  -0.46462  0  3.972473  0  0  -0.176813  -0.44925  0  3.958404  0
C  C47  1  0.70681518  0.75603467  0.03975298  1  0  -0.438306  0  3.717367  0  0  -0.455639  0  3.96372  0  0  -0.464618  0  3.972417  0  0  -0.176809  -0.449245  0  3.958351  0
C  C48  1  0.42368412  0.81635261  0.79103229  1  0  -0.105144  0  3.691097  0  0  -0.118662  0  3.945988  0  0  -0.125458  0  3.966028  0  0  -0.073034  -0.113649  0  3.931751  0
C  C49  1  0.57631770  0.18364742  0.20896737  1  0  -0.105151  0  3.691079  0  0  -0.118684  0  3.945995  0  0  -0.125474  0  3.966024  0  0  -0.073066  -0.11367  0  3.931757  0
C  C50  1  0.43742982  0.74344037  0.67457172  1  0  -0.029193  0  3.663808  0  0  -0.055129  0  3.91134  0  0  -0.052553  0  3.929413  0  0  -0.056077  -0.056277  0  3.898265  0
C  C51  1  0.56257013  0.25656084  0.32542883  1  0  -0.02923  0  3.663787  0  0  -0.055167  0  3.911332  0  0  -0.052591  0  3.929407  0  0  -0.056077  -0.056316  0  3.898257  0
C  C52  1  0.15662194  0.50766020  0.65483458  1  0  0.125153  0  3.76152  0  0  0.118915  0  3.998667  0  0  0.122856  0  4.021531  0  0  0.116887  0.116142  0  3.983362  0
C  C53  1  0.84337677  0.49233861  0.34516449  1  0  0.125186  0  3.761516  0  0  0.118941  0  3.998665  0  0  0.122883  0  4.021529  0  0  0.116889  0.116143  0  3.983391  0
C  C54  1  0.33203830  0.30543337  0.84620260  1  0  -0.197207  0  3.69138  0  0  -0.235977  0  3.939473  0  0  -0.240374  0  3.947916  0  0  -0.162178  -0.233108  0  3.933596  0
C  C55  1  0.66795670  0.69456300  0.15379650  1  0  -0.197277  0  3.691278  0  0  -0.236021  0  3.939353  0  0  -0.240407  0  3.947784  0  0  -0.162217  -0.233152  0  3.933479  0
C  C56  1  0.76432745  0.02779191  0.45994049  1  0  -0.131443  0  3.746244  0  0  -0.145932  0  4.004577  0  0  -0.153512  0  4.026866  0  0  -0.087053  -0.141813  0  3.991444  0
C  C57  1  0.23567192  0.97220809  0.54006157  1  0  -0.131407  0  3.74635  0  0  -0.145879  0  4.004687  0  0  -0.15346  0  4.026981  0  0  -0.087016  -0.141759  0  3.991548  0
C  C58  1  0.89857297  0.10450450  0.40313189  1  0  -0.036441  0  3.661336  0  0  -0.061883  0  3.908796  0  0  -0.059239  0  3.927551  0  0  -0.058103  -0.063517  0  3.897786  0
C  C59  1  0.10143070  0.89549914  0.59686863  1  0  -0.036478  0  3.661577  0  0  -0.061919  0  3.908998  0  0  -0.059276  0  3.927752  0  0  -0.058121  -0.063555  0  3.897991  0
N  N60  1  0.14426111  0.58143622  0.76892237  1  0  -0.365836  0  3.252353  0  0  -0.296338  0  3.521438  0  0  -0.316512  0  3.540618  0  0  -0.322031  -0.282279  0  3.508038  0
N  N61  1  0.85573948  0.41856380  0.23107804  1  0  -0.365878  0  3.252404  0  0  -0.296381  0  3.521502  0  0  -0.316557  0  3.540683  0  0  -0.322042  -0.282313  0  3.508106  0
N  N62  1  0.88574494  0.26651209  0.63870197  1  0  -0.364925  0  3.283269  0  0  -0.294909  0  3.552507  0  0  -0.314248  0  3.570144  0  0  -0.323801  -0.281738  0  3.540071  0
N  N63  1  0.11425256  0.73348670  0.36129876  1  0  -0.365057  0  3.283276  0  0  -0.295061  0  3.552548  0  0  -0.314401  0  3.570189  0  0  -0.323861  -0.28189  0  3.540109  0
O  O64  1  0.04531374  0.36720054  0.98587566  1  0  -0.876117  0  2.049807  0  0  -0.766495  0  2.340503  0  0  -0.798106  0  2.318118  0  0  -0.390266  -0.742534  0  2.356456  0
O  O65  1  0.95468375  0.63279825  0.01412417  1  0  -0.876127  0  2.049771  0  0  -0.766502  0  2.340469  0  0  -0.798114  0  2.318081  0  0  -0.390272  -0.74254  0  2.356421  0
O  O66  1  0.06190467  0.18035488  0.11168484  1  0  -0.785723  0  2.028812  0  0  -0.712295  0  2.264535  0  0  -0.733949  0  2.240337  0  0  -0.391082  -0.695544  0  2.281423  0
O  O67  1  0.93809467  0.81964513  0.88831542  1  0  -0.785692  0  2.02886  0  0  -0.712261  0  2.264584  0  0  -0.733914  0  2.240383  0  0  -0.391061  -0.695509  0  2.281469  0
O  O68  1  0.91848293  0.06829002  0.86515181  1  0  -0.842375  0  1.877172  0  0  -0.771977  0  2.119425  0  0  -0.796357  0  2.100578  0  0  -0.389739  -0.752714  0  2.131617  0
O  O69  1  0.08151580  0.93170878  0.13484817  1  0  -0.84237  0  1.877166  0  0  -0.771969  0  2.119414  0  0  -0.796349  0  2.100567  0  0  -0.389736  -0.752704  0  2.131606  0
O  O70  1  0.59611138  0.43233075  0.77145985  1  0  -0.662957  0  1.939269  0  0  -0.59922  0  2.180992  0  0  -0.627936  0  2.172172  0  0  -0.342626  -0.578969  0  2.186125  0
O  O71  1  0.40388672  0.56766924  0.22854026  1  0  -0.662947  0  1.939383  0  0  -0.599192  0  2.181132  0  0  -0.627908  0  2.172315  0  0  -0.342603  -0.57894  0  2.186266  0
O  O72  1  0.59281939  0.24207824  0.86365268  1  0  -0.647613  0  1.908373  0  0  -0.586841  0  2.140345  0  0  -0.614869  0  2.13208  0  0  -0.335065  -0.56712  0  2.145083  0
O  O73  1  0.40717874  0.75791935  0.13634790  1  0  -0.647584  0  1.908389  0  0  -0.586811  0  2.140402  0  0  -0.614837  0  2.132141  0  0  -0.335054  -0.56709  0  2.145142  0
