# generated using pymatgen
data_Al4H28C40O21
_symmetry_space_group_name_H-M   'P 1'
_cell_length_a   6.99422090
_cell_length_b   13.90425927
_cell_length_c   15.94424755
_cell_angle_alpha   90.54301156
_cell_angle_beta   89.89948453
_cell_angle_gamma   90.06498579
_symmetry_Int_Tables_number   1
_chemical_formula_structural   Al4H28C40O21
_chemical_formula_sum   'Al4 H28 C40 O21'
_cell_volume   1550.49648799
_cell_formula_units_Z   1
loop_
 _symmetry_equiv_pos_site_id
 _symmetry_equiv_pos_as_xyz
  1  'x, y, z'
loop_
 _atom_site_type_symbol
 _atom_site_label
 _atom_site_symmetry_multiplicity
 _atom_site_fract_x
 _atom_site_fract_y
 _atom_site_fract_z
 _atom_site_occupancy
 _atom_site_pbe_bader_charge
 _atom_site_pbe_bader_spin_density
 _atom_site_pbe_cm5_charge
 _atom_site_pbe_ddec_charge
 _atom_site_pbe_ddec_spin_density
 _atom_site_pbe_ddec_sum_bond_order
 _atom_site_pbe_magmom
Al  Al0  1  0.90114367  0.49973139  0.50045514  1  2.508268  0  0.409519  1.64568  0  2.542697  0
Al  Al1  1  0.40149757  0.50232546  0.50046069  1  2.496961  0  0.4079  1.640138  0  2.553492  0
Al  Al2  1  0.37035325  0.99633505  0.99665965  1  2.504356  0  0.409126  1.632187  0  2.554416  0
Al  Al3  1  0.86966413  0.99453468  0.99798015  1  2.506933  0  0.410002  1.636513  0  2.551327  0
H  H4  1  0.17897801  0.67300910  0.88561796  1  0.075584  0  0.10317  0.089788  0  0.985308  0
H  H5  1  0.88467457  0.62450364  0.76903598  1  0.086649  0  0.102819  0.103478  0  0.990873  0
H  H6  1  0.08766099  0.82286527  0.61163174  1  0.090118  0  0.102531  0.102312  0  0.986721  0
H  H7  1  0.38021305  0.87108845  0.72928261  1  0.053847  0  0.102301  0.09429  0  0.995573  0
H  H8  1  0.44768525  0.66862190  0.75121729  1  0.037869  0  0.098045  0.08286  0  1.003305  0
H  H9  1  0.82800932  0.80222474  0.19448530  1  0.109684  0  0.102295  0.101171  0  1.087652  0
H  H10  1  0.84525016  0.68724660  0.31384754  1  0.110711  0  0.100042  0.094442  0  1.08107  0
H  H11  1  0.58952182  0.64969877  0.26530007  1  0.071127  0  0.10352  0.118094  0  0.972356  0
H  H12  1  0.59117494  0.74769132  0.33868445  1  0.050378  0  0.098322  0.107047  0  0.984605  0
H  H13  1  0.57289725  0.76901539  0.14538193  1  0.054988  0  0.104873  0.119715  0  0.971944  0
H  H14  1  0.57107181  0.86575939  0.21923510  1  0.065706  0  0.105685  0.120228  0  0.96632  0
H  H15  1  0.94320776  0.30510964  0.69440580  1  0.121381  0  0.099904  0.096345  0  1.093716  0
H  H16  1  0.92846513  0.18692255  0.81139944  1  0.091582  0  0.100285  0.094106  0  1.083791  0
H  H17  1  0.18305747  0.24548182  0.84081825  1  0.031071  0  0.099764  0.109221  0  0.981943  0
H  H18  1  0.18418471  0.14844526  0.76638665  1  0.051586  0  0.104156  0.118836  0  0.971515  0
H  H19  1  0.19920506  0.36510733  0.72210004  1  0.070164  0  0.104227  0.118524  0  0.969385  0
H  H20  1  0.19862760  0.26837004  0.64797071  1  0.066999  0  0.101435  0.111137  0  0.979284  0
H  H21  1  0.94264164  0.30438042  0.30175376  1  0.096506  0  0.100126  0.097515  0  1.093019  0
H  H22  1  0.92563582  0.18407926  0.18427383  1  0.107203  0  0.103167  0.102498  0  1.071419  0
H  H23  1  0.18106988  0.14837667  0.23137919  1  0.056774  0  0.104133  0.118397  0  0.972533  0
H  H24  1  0.18118194  0.24367011  0.15713583  1  0.029276  0  0.101941  0.114042  0  0.977227  0
H  H25  1  0.19757494  0.27034173  0.35021225  1  0.038749  0  0.100417  0.109677  0  0.981035  0
H  H26  1  0.19827229  0.36584351  0.27651344  1  0.067644  0  0.104921  0.119559  0  0.968862  0
H  H27  1  0.69067366  0.79653375  0.71732906  1  0.600829  0  0.321288  0.34881  0  0.919428  0
H  H28  1  0.65502636  0.62779495  0.48918126  1  0.590931  0  0.339132  0.41497  0  0.876019  0
H  H29  1  0.15416186  0.37311823  0.49953726  1  0.602691  0  0.340141  0.413889  0  0.879433  0
H  H30  1  0.62017177  0.88247640  0.95322341  1  0.610486  0  0.337925  0.412149  0  0.88245  0
H  H31  1  0.11823798  0.12072177  0.97944900  1  0.619493  0  0.337346  0.411568  0  0.882834  0
C  C32  1  0.64836659  0.38740352  0.61137765  1  1.573405  0  0.270285  0.653142  0  4.088027  0
C  C33  1  0.64932341  0.38798262  0.38675155  1  1.537916  0  0.2687  0.6525  0  4.086364  0
C  C34  1  0.15238976  0.61533977  0.38976530  1  1.565654  0  0.270785  0.655522  0  4.084658  0
C  C35  1  0.14934267  0.61107278  0.61583680  1  1.568417  0  0.266081  0.646778  0  4.099639  0
C  C36  1  0.99491041  0.67955339  0.76075072  1  -0.067274  0  -0.085368  -0.156594  0  3.655151  0
C  C37  1  0.15924921  0.70479794  0.82373266  1  -0.039726  0  -0.066669  -0.042785  0  3.624596  0
C  C38  1  0.12228288  0.81617788  0.81032616  1  0.011775  0  -0.006945  -0.098848  0  3.629768  0
C  C39  1  0.95766484  0.78973135  0.74730278  1  0.591614  0  0.08392  0.291639  0  3.738817  0
C  C40  1  0.10813625  0.79058402  0.67332966  1  -0.073914  0  -0.079559  -0.145551  0  3.612192  0
C  C41  1  0.27183234  0.81502876  0.73692559  1  -0.019424  0  -0.077014  -0.062146  0  3.655307  0
C  C42  1  0.30895905  0.70495222  0.75050234  1  -0.009742  0  -0.078561  -0.073019  0  3.648107  0
C  C43  1  0.14478509  0.67951644  0.68762751  1  0.002746  0  -0.007667  -0.024926  0  3.67565  0
C  C44  1  0.30115072  0.78500066  0.21392762  1  0.038752  0  -0.002976  0.06825  0  3.910364  0
C  C45  1  0.12946654  0.81641070  0.18059736  1  -0.054888  0  -0.01119  -0.085237  0  3.995092  0
C  C46  1  0.96441144  0.77930719  0.21895729  1  -0.048963  0  -0.087679  -0.104998  0  3.988284  0
C  C47  1  0.97405232  0.71536799  0.28549164  1  -0.089711  0  -0.090983  -0.108078  0  4.00357  0
C  C48  1  0.14879545  0.68361333  0.31873467  1  -0.008816  0  -0.015971  -0.092276  0  4.003046  0
C  C49  1  0.31100444  0.72068108  0.28047327  1  -0.062623  0  -0.005735  0.062631  0  3.909615  0
C  C50  1  0.52588106  0.71978321  0.28078767  1  -0.038586  0  -0.151162  -0.204686  0  3.890309  0
C  C51  1  0.51438266  0.79354367  0.20582953  1  -0.006532  0  -0.150025  -0.204347  0  3.882903  0
C  C52  1  0.47065878  0.28575258  0.71543361  1  0.008513  0  -0.004836  0.065549  0  3.916292  0
C  C53  1  0.64142293  0.31852868  0.68185908  1  -0.055872  0  -0.014269  -0.090422  0  4.00494  0
C  C54  1  0.80730442  0.28105646  0.71883949  1  -0.042758  0  -0.089149  -0.105046  0  3.995607  0
C  C55  1  0.79915068  0.21539974  0.78414204  1  -0.079573  0  -0.089675  -0.104737  0  3.998388  0
C  C56  1  0.62540693  0.18239785  0.81765266  1  -0.006762  0  -0.012608  -0.083619  0  3.988771  0
C  C57  1  0.46241738  0.22007218  0.78097183  1  0.054929  0  -0.004341  0.064524  0  3.908314  0
C  C58  1  0.24761657  0.21847071  0.78238170  1  -0.050297  0  -0.150555  -0.203887  0  3.886614  0
C  C59  1  0.25726039  0.29335020  0.70821833  1  -0.0731  0  -0.151079  -0.203771  0  3.892447  0
C  C60  1  0.46942865  0.28602531  0.28215573  1  -0.024884  0  -0.004267  0.066185  0  3.910656  0
C  C61  1  0.64106215  0.31872413  0.31536421  1  -0.031549  0  -0.014153  -0.088259  0  3.996667  0
C  C62  1  0.80628266  0.28019265  0.27772457  1  -0.006869  0  -0.089238  -0.105763  0  3.993158  0
C  C63  1  0.79695764  0.21326422  0.21234271  1  -0.074883  0  -0.089035  -0.10854  0  3.995329  0
C  C64  1  0.62221722  0.17977955  0.17975645  1  -0.004223  0  -0.013094  -0.088651  0  4.001524  0
C  C65  1  0.45994648  0.21892846  0.21666597  1  -0.066804  0  -0.003795  0.065158  0  3.911254  0
C  C66  1  0.24522776  0.21795824  0.21557021  1  0.046057  0  -0.149574  -0.203181  0  3.883763  0
C  C67  1  0.25601016  0.29421145  0.28989097  1  -0.004817  0  -0.151467  -0.204974  0  3.894858  0
C  C68  1  0.61856013  0.10754713  0.11058445  1  1.570113  0  0.271377  0.652085  0  4.091288  0
C  C69  1  0.62295468  0.11240572  0.88757768  1  1.569772  0  0.269084  0.653656  0  4.087756  0
C  C70  1  0.12117826  0.88470438  0.88208035  1  1.57487  0  0.270433  0.665345  0  4.076849  0
C  C71  1  0.12052586  0.88364510  0.10882624  1  1.581184  0  0.270944  0.649772  0  4.092423  0
O  O72  1  0.48708538  0.41493726  0.41544442  1  -1.251886  0  -0.23323  -0.595138  0  2.349109  0
O  O73  1  0.81265674  0.41143235  0.58356147  1  -1.265279  0  -0.235479  -0.593868  0  2.333963  0
O  O74  1  0.98614347  0.58459859  0.58826804  1  -1.262947  0  -0.239699  -0.599271  0  2.33206  0
O  O75  1  0.81415127  0.41315618  0.41353638  1  -1.250281  0  -0.237692  -0.597266  0  2.326672  0
O  O76  1  0.99034812  0.58851737  0.41836341  1  -1.259876  0  -0.237452  -0.600586  0  2.348966  0
O  O77  1  0.48619997  0.41561555  0.58445415  1  -1.253745  0  -0.231621  -0.589843  0  2.34681  0
O  O78  1  0.65255428  0.55962958  0.50115006  1  -1.403588  0  -0.452516  -0.983407  0  2.11741  0
O  O79  1  0.31698590  0.59015528  0.41641962  1  -1.254511  0  -0.234564  -0.593378  0  2.322456  0
O  O80  1  0.31368345  0.58850918  0.58684748  1  -1.261157  0  -0.238981  -0.597608  0  2.323654  0
O  O81  1  0.15149128  0.44275899  0.49948444  1  -1.413322  0  -0.453345  -0.983615  0  2.123969  0
O  O82  1  0.78555141  0.08397424  0.91380120  1  -1.254457  0  -0.237685  -0.6002  0  2.344474  0
O  O83  1  0.45457706  0.07996207  0.08489082  1  -1.2585  0  -0.230069  -0.582052  0  2.324374  0
O  O84  1  0.28176193  0.90812306  0.07808344  1  -1.253274  0  -0.229058  -0.584148  0  2.347287  0
O  O85  1  0.45800732  0.08833188  0.91512158  1  -1.252109  0  -0.236692  -0.599188  0  2.324945  0
O  O86  1  0.28589893  0.91266928  0.90717335  1  -1.255174  0  -0.239603  -0.605557  0  2.316439  0
O  O87  1  0.78037624  0.07990930  0.08258437  1  -1.265589  0  -0.23248  -0.589036  0  2.360145  0
O  O88  1  0.61955973  0.93586994  0.99303540  1  -1.419504  0  -0.452709  -0.973087  0  2.084938  0
O  O89  1  0.95881491  0.90630611  0.91352645  1  -1.259621  0  -0.235006  -0.593465  0  2.325679  0
O  O90  1  0.95570896  0.90986447  0.08390293  1  -1.259504  0  -0.231876  -0.583688  0  2.332208  0
O  O91  1  0.11946120  0.05441691  0.99762768  1  -1.430642  0  -0.453811  -0.979626  0  2.112741  0
O  O92  1  0.78135638  0.83537338  0.74943342  1  -1.144709  0  -0.379858  -0.493549  0  2.247727  0
