# generated using pymatgen
data_CuH5C5S(N2Cl)2
_symmetry_space_group_name_H-M   'P 1'
_cell_length_a   5.86921035
_cell_length_b   9.58066928
_cell_length_c   16.40963778
_cell_angle_alpha   95.30680317
_cell_angle_beta   90.00016763
_cell_angle_gamma   89.99973486
_symmetry_Int_Tables_number   1
_chemical_formula_structural   CuH5C5S(N2Cl)2
_chemical_formula_sum   'Cu4 H20 C20 S4 N16 Cl8'
_cell_volume   918.77466421
_cell_formula_units_Z   4
loop_
 _symmetry_equiv_pos_site_id
 _symmetry_equiv_pos_as_xyz
  1  'x, y, z'
loop_
 _atom_site_type_symbol
 _atom_site_label
 _atom_site_symmetry_multiplicity
 _atom_site_fract_x
 _atom_site_fract_y
 _atom_site_fract_z
 _atom_site_occupancy
 _atom_site_pbe_bader_spin_density
 _atom_site_pbe_cm5_charge
 _atom_site_pbe_ddec_charge
 _atom_site_pbe_ddec_spin_density
 _atom_site_pbe_ddec_sum_bond_order
 _atom_site_pbe_magmom
Cu  Cu0  1  0.92190318  0.73404632  0.16807743  1  0  0.300163  0.331669  0  2.737609  0
Cu  Cu1  1  0.42190293  0.76594557  0.33191960  1  0  0.30014  0.331652  0  2.737538  0
Cu  Cu2  1  0.07809978  0.26594597  0.83191736  1  0  0.300145  0.331617  0  2.737604  0
Cu  Cu3  1  0.57808470  0.23404987  0.66807475  1  0  0.300163  0.331643  0  2.73762  0
H  H4  1  0.78310011  0.12750439  0.49732663  1  0  0.281949  0.268898  0  0.998108  0
H  H5  1  0.28310786  0.37248855  0.00267359  1  0  0.281952  0.268873  0  0.998168  0
H  H6  1  0.21688070  0.87249723  0.50267662  1  0  0.281949  0.268834  0  0.998165  0
H  H7  1  0.71688999  0.62750365  0.99732789  1  0  0.281959  0.268886  0  0.998134  0
H  H8  1  0.48997002  0.11508466  0.39901087  1  0  0.115773  0.077411  0  1.052314  0
H  H9  1  0.98998697  0.38492781  0.10098947  1  0  0.115793  0.077427  0  1.052324  0
H  H10  1  0.51000228  0.88492009  0.60099317  1  0  0.115804  0.077473  0  1.052287  0
H  H11  1  0.01002962  0.61508114  0.89901482  1  0  0.115765  0.077376  0  1.052313  0
H  H12  1  0.10353611  0.27449902  0.49961539  1  0  0.11605  0.129721  0  1.034296  0
H  H13  1  0.60354860  0.22549223  0.00038090  1  0  0.116013  0.129665  0  1.03424  0
H  H14  1  0.89645152  0.72550049  0.50038896  1  0  0.116068  0.129711  0  1.034281  0
H  H15  1  0.39644926  0.77450010  0.99961145  1  0  0.116067  0.129772  0  1.034213  0
H  H16  1  0.28217698  0.50482626  0.39565973  1  0  0.281982  0.288051  0  0.993746  0
H  H17  1  0.78218609  0.99516587  0.10434022  1  0  0.281984  0.288181  0  0.993568  0
H  H18  1  0.71781917  0.49516702  0.60433998  1  0  0.282004  0.288125  0  0.993701  0
H  H19  1  0.21781858  0.00483375  0.89565560  1  0  0.282023  0.288193  0  0.993616  0
H  H20  1  0.75586700  0.47665372  0.22647086  1  0  0.295804  0.299302  0  0.964034  0
H  H21  1  0.25587538  0.02335394  0.27353080  1  0  0.295809  0.299381  0  0.964056  0
H  H22  1  0.24413085  0.52334168  0.77352654  1  0  0.295824  0.299381  0  0.96404  0
H  H23  1  0.74413610  0.97665084  0.72647142  1  0  0.295772  0.299282  0  0.964144  0
C  C24  1  0.62861861  0.18965395  0.39288049  1  0  0.187834  0.242723  0  3.907658  0
C  C25  1  0.12863128  0.31035398  0.10711924  1  0  0.187768  0.242662  0  3.907877  0
C  C26  1  0.37135198  0.81035818  0.60712155  1  0  0.187779  0.242646  0  3.907801  0
C  C27  1  0.87138020  0.68964871  0.89288225  1  0  0.187851  0.24276  0  3.907687  0
C  C28  1  0.80362573  0.35858578  0.33110221  1  0  0.253732  0.335502  0  4.049601  0
C  C29  1  0.30364739  0.14141025  0.16889943  1  0  0.25375  0.335468  0  4.049555  0
C  C30  1  0.19635678  0.64141897  0.66890244  1  0  0.253799  0.335561  0  4.049561  0
C  C31  1  0.69638113  0.85858723  0.83109992  1  0  0.253705  0.335372  0  4.049416  0
C  C32  1  0.98509670  0.36666663  0.38909207  1  0  0.115677  0.091425  0  4.015866  0
C  C33  1  0.48510599  0.13334167  0.11090681  1  0  0.115654  0.091452  0  4.016067  0
C  C34  1  0.01488752  0.63333924  0.61090716  1  0  0.115628  0.091459  0  4.016095  0
C  C35  1  0.51490890  0.86667154  0.88909225  1  0  0.115641  0.091538  0  4.01584  0
C  C36  1  0.97815779  0.27878364  0.45078946  1  0  0.06189  0.035064  0  3.803561  0
C  C37  1  0.47814866  0.22121208  0.04921051  1  0  0.062008  0.035202  0  3.803755  0
C  C38  1  0.02184177  0.72121485  0.54921300  1  0  0.061969  0.035169  0  3.80378  0
C  C39  1  0.52185430  0.77878958  0.95078970  1  0  0.061936  0.034988  0  3.803594  0
C  C40  1  0.05400949  0.52020230  0.29715376  1  0  0.229594  0.357738  0  4.018596  0
C  C41  1  0.55401962  0.97979755  0.20285069  1  0  0.229516  0.357767  0  4.018718  0
C  C42  1  0.94598325  0.47980037  0.70284955  1  0  0.229572  0.357832  0  4.018624  0
C  C43  1  0.44599186  0.02020097  0.79714934  1  0  0.229534  0.357655  0  4.018701  0
S  S44  1  0.18818859  0.63557221  0.24314069  1  0  -0.19683  -0.311324  0  3.273344  0
S  S45  1  0.68818496  0.86441384  0.25685638  1  0  -0.196812  -0.311323  0  3.273417  0
S  S46  1  0.81181608  0.36441485  0.75685318  1  0  -0.19678  -0.311267  0  3.273393  0
S  S47  1  0.31181459  0.13556797  0.74313779  1  0  -0.196809  -0.311259  0  3.273484  0
N  N48  1  0.79521195  0.19183203  0.44927225  1  0  -0.347982  -0.167233  0  3.725084  0
N  N49  1  0.29522245  0.30816612  0.05072889  1  0  -0.347954  -0.167197  0  3.725466  0
N  N50  1  0.20476886  0.80816957  0.55073221  1  0  -0.347944  -0.167128  0  3.725318  0
N  N51  1  0.70478733  0.69182923  0.94927216  1  0  -0.348004  -0.16722  0  3.725318  0
N  N52  1  0.62607927  0.27180350  0.33169191  1  0  -0.313986  -0.33771  0  3.237263  0
N  N53  1  0.12610349  0.22820656  0.16830550  1  0  -0.313971  -0.337664  0  3.237099  0
N  N54  1  0.37390495  0.72820341  0.66830799  1  0  -0.314039  -0.33775  0  3.237028  0
N  N55  1  0.87394206  0.77181183  0.83169873  1  0  -0.313967  -0.337653  0  3.237084  0
N  N56  1  0.13321832  0.46704231  0.36655326  1  0  -0.363995  -0.281712  0  3.571033  0
N  N57  1  0.63320145  0.03295716  0.13345146  1  0  -0.363982  -0.281942  0  3.571101  0
N  N58  1  0.86679146  0.53295517  0.63344609  1  0  -0.364046  -0.281921  0  3.571201  0
N  N59  1  0.36680151  0.96704136  0.86654856  1  0  -0.364028  -0.281984  0  3.571159  0
N  N60  1  0.85038431  0.45363394  0.27691495  1  0  -0.359061  -0.317927  0  3.565705  0
N  N61  1  0.35039713  0.04636723  0.22308764  1  0  -0.359133  -0.318075  0  3.565978  0
N  N62  1  0.14961524  0.54636351  0.72308623  1  0  -0.359156  -0.318174  0  3.565951  0
N  N63  1  0.64962798  0.95363754  0.77691518  1  0  -0.359027  -0.317803  0  3.5658  0
Cl  Cl64  1  0.06130424  0.86559866  0.07024052  1  0  -0.34816  -0.526819  0  1.390742  0
Cl  Cl65  1  0.56129242  0.63439909  0.42976260  1  0  -0.348154  -0.526801  0  1.390658  0
Cl  Cl66  1  0.93870554  0.13440406  0.92975914  1  0  -0.348162  -0.52679  0  1.390802  0
Cl  Cl67  1  0.43869010  0.36560048  0.57023688  1  0  -0.348155  -0.52679  0  1.390771  0
Cl  Cl68  1  0.67814869  0.55168258  0.10932373  1  0  -0.310403  -0.514752  0  1.336192  0
Cl  Cl69  1  0.17814209  0.94831399  0.39067273  1  0  -0.310423  -0.514762  0  1.336104  0
Cl  Cl70  1  0.32185598  0.44831076  0.89067111  1  0  -0.310428  -0.514748  0  1.336148  0
Cl  Cl71  1  0.82184724  0.05167935  0.60932212  1  0  -0.310398  -0.514783  0  1.336152  0
