# generated using pymatgen
data_Na2H16C12S4O7
_symmetry_space_group_name_H-M   'P 1'
_cell_length_a   6.42478425
_cell_length_b   10.95782497
_cell_length_c   13.71715525
_cell_angle_alpha   103.13619683
_cell_angle_beta   103.54630648
_cell_angle_gamma   89.98750866
_symmetry_Int_Tables_number   1
_chemical_formula_structural   Na2H16C12S4O7
_chemical_formula_sum   'Na4 H32 C24 S8 O14'
_cell_volume   912.84362381
_cell_formula_units_Z   2
loop_
 _symmetry_equiv_pos_site_id
 _symmetry_equiv_pos_as_xyz
  1  'x, y, z'
loop_
 _atom_site_type_symbol
 _atom_site_label
 _atom_site_symmetry_multiplicity
 _atom_site_fract_x
 _atom_site_fract_y
 _atom_site_fract_z
 _atom_site_occupancy
 _atom_site_hle17_bader_spin_density
 _atom_site_hle17_ddec_charge
 _atom_site_hle17_ddec_spin_density
 _atom_site_hle17_ddec_sum_bond_order
 _atom_site_hle17_magmom
 _atom_site_hse06_10hf_bader_spin_density
 _atom_site_hse06_10hf_ddec_charge
 _atom_site_hse06_10hf_ddec_spin_density
 _atom_site_hse06_10hf_ddec_sum_bond_order
 _atom_site_hse06_10hf_magmom
 _atom_site_hse06_bader_spin_density
 _atom_site_hse06_ddec_charge
 _atom_site_hse06_ddec_spin_density
 _atom_site_hse06_ddec_sum_bond_order
 _atom_site_hse06_magmom
 _atom_site_pbe_bader_spin_density
 _atom_site_pbe_cm5_charge
 _atom_site_pbe_ddec_charge
 _atom_site_pbe_ddec_spin_density
 _atom_site_pbe_ddec_sum_bond_order
 _atom_site_pbe_magmom
Na  Na0  1  0.26539867  0.43978855  0.01891312  1  0  0.915401  0  0.367253  0  0  0.883062  0  0.506125  0  0  0.891408  0  0.486174  0  0  0.665121  0.876666  0  0.520949  0
Na  Na1  1  0.24646463  0.06024328  0.98101388  1  0  0.915238  0  0.367478  0  0  0.882869  0  0.506424  0  0  0.891252  0  0.486338  0  0  0.6651  0.876451  0  0.521263  0
Na  Na2  1  0.73460057  0.56021324  0.98108621  1  0  0.915418  0  0.367227  0  0  0.883078  0  0.506115  0  0  0.891417  0  0.486157  0  0  0.665132  0.876676  0  0.520932  0
Na  Na3  1  0.75353611  0.93975756  0.01898690  1  0  0.91524  0  0.367469  0  0  0.882879  0  0.506405  0  0  0.891252  0  0.486332  0  0  0.665099  0.87646  0  0.521246  0
H  H4  1  0.32430147  0.46175475  0.74913555  1  0  0.105698  0  0.991607  0  0  0.111601  0  1.060934  0  0  0.115157  0  1.058551  0  0  0.104928  0.108833  0  1.063133  0
H  H5  1  0.57508213  0.03829225  0.25125538  1  0  0.106298  0  0.990446  0  0  0.111962  0  1.059984  0  0  0.115525  0  1.057549  0  0  0.105463  0.109274  0  1.06211  0
H  H6  1  0.67569918  0.53824516  0.25086433  1  0  0.105708  0  0.991602  0  0  0.111608  0  1.060931  0  0  0.115165  0  1.058546  0  0  0.104925  0.108842  0  1.063127  0
H  H7  1  0.42491505  0.96170485  0.74874286  1  0  0.106264  0  0.990531  0  0  0.111936  0  1.060062  0  0  0.115499  0  1.057628  0  0  0.105441  0.109248  0  1.062185  0
H  H8  1  0.04697807  0.48398272  0.59433594  1  0  0.0857  0  0.963692  0  0  0.094278  0  1.029221  0  0  0.096983  0  1.028693  0  0  0.09425  0.092244  0  1.029884  0
H  H9  1  0.45259038  0.01652856  0.40615830  1  0  0.084784  0  0.963388  0  0  0.093408  0  1.028926  0  0  0.096076  0  1.028417  0  0  0.094241  0.091383  0  1.0296  0
H  H10  1  0.95302249  0.51601626  0.40566230  1  0  0.085616  0  0.963759  0  0  0.0942  0  1.029298  0  0  0.096905  0  1.028771  0  0  0.0942  0.092164  0  1.029963  0
H  H11  1  0.54740679  0.98346853  0.59384212  1  0  0.08481  0  0.963418  0  0  0.093435  0  1.028936  0  0  0.096103  0  1.028425  0  0  0.094239  0.091412  0  1.029606  0
H  H12  1  0.82860170  0.29450584  0.47851129  1  0  0.083835  0  0.993302  0  0  0.092792  0  1.058215  0  0  0.094129  0  1.059869  0  0  0.094536  0.091833  0  1.057105  0
H  H13  1  0.35004528  0.20622818  0.52175449  1  0  0.082622  0  0.993192  0  0  0.091515  0  1.058305  0  0  0.092826  0  1.059994  0  0  0.094314  0.090582  0  1.05713  0
H  H14  1  0.17140037  0.70549220  0.52148839  1  0  0.0839  0  0.993271  0  0  0.092807  0  1.058246  0  0  0.094144  0  1.0599  0  0  0.094538  0.091855  0  1.057121  0
H  H15  1  0.64995376  0.79377172  0.47824666  1  0  0.082574  0  0.993225  0  0  0.091474  0  1.058324  0  0  0.092791  0  1.060007  0  0  0.094304  0.090542  0  1.057149  0
H  H16  1  0.87485236  0.08746440  0.52330026  1  0  0.086147  0  0.95998  0  0  0.098546  0  1.019212  0  0  0.100431  0  1.019796  0  0  0.099213  0.097152  0  1.018977  0
H  H17  1  0.35162811  0.41313755  0.47670637  1  0  0.086398  0  0.960092  0  0  0.098702  0  1.019373  0  0  0.100649  0  1.019897  0  0  0.098925  0.097279  0  1.019155  0
H  H18  1  0.12514988  0.91253550  0.47670125  1  0  0.086151  0  0.959969  0  0  0.098552  0  1.019203  0  0  0.100438  0  1.019784  0  0  0.099204  0.097159  0  1.018967  0
H  H19  1  0.64837244  0.58686142  0.52329477  1  0  0.086394  0  0.960109  0  0  0.09868  0  1.01941  0  0  0.100626  0  1.019937  0  0  0.098923  0.097259  0  1.019192  0
H  H20  1  0.15157226  0.06606744  0.67897486  1  0  0.101975  0  0.9505  0  0  0.113757  0  1.009045  0  0  0.116677  0  1.00755  0  0  0.106697  0.111343  0  1.010832  0
H  H21  1  0.47278143  0.43408702  0.32094905  1  0  0.102156  0  0.951036  0  0  0.11443  0  1.008969  0  0  0.117347  0  1.007453  0  0  0.107026  0.11202  0  1.01075  0
H  H22  1  0.84843007  0.93393340  0.32102610  1  0  0.10194  0  0.95052  0  0  0.113742  0  1.009043  0  0  0.116664  0  1.007547  0  0  0.106695  0.111329  0  1.010826  0
H  H23  1  0.52721459  0.56591476  0.67905284  1  0  0.102219  0  0.951067  0  0  0.114499  0  1.008985  0  0  0.117414  0  1.007472  0  0  0.107049  0.112089  0  1.010763  0
H  H24  1  0.00839514  0.53144828  0.83612119  1  0  0.390949  0  0.917026  0  0  0.363559  0  0.980275  0  0  0.372504  0  0.967245  0  0  0.271247  0.35709  0  0.989738  0
H  H25  1  0.17234632  0.96861025  0.16380610  1  0  0.3916  0  0.915635  0  0  0.363894  0  0.979726  0  0  0.372836  0  0.966718  0  0  0.271689  0.357417  0  0.989198  0
H  H26  1  0.99160391  0.46855164  0.16387778  1  0  0.390953  0  0.917057  0  0  0.363538  0  0.98031  0  0  0.372488  0  0.967285  0  0  0.271228  0.357068  0  0.989773  0
H  H27  1  0.82765441  0.03139060  0.83619469  1  0  0.391624  0  0.91562  0  0  0.36392  0  0.979693  0  0  0.372863  0  0.966683  0  0  0.27168  0.357444  0  0.989165  0
H  H28  1  0.90714708  0.39750478  0.83076845  1  0  0.386637  0  0.927264  0  0  0.35744  0  0.99125  0  0  0.366602  0  0.97807  0  0  0.266297  0.350774  0  1.000904  0
H  H29  1  0.07621399  0.10253336  0.16912177  1  0  0.386715  0  0.927482  0  0  0.357375  0  0.991681  0  0  0.366541  0  0.978496  0  0  0.266247  0.350711  0  1.001336  0
H  H30  1  0.09285357  0.60249513  0.16923142  1  0  0.386617  0  0.927296  0  0  0.35741  0  0.991299  0  0  0.366574  0  0.978116  0  0  0.266291  0.350745  0  1.000952  0
H  H31  1  0.92378834  0.89746748  0.83087992  1  0  0.38675  0  0.927437  0  0  0.357411  0  0.991635  0  0  0.366577  0  0.97845  0  0  0.266256  0.350747  0  1.00129  0
H  H32  1  0.93323508  0.23880220  0.93905243  1  0  0.384991  0  0.921341  0  0  0.35649  0  0.99013  0  0  0.365719  0  0.976607  0  0  0.273782  0.349984  0  0.99964  0
H  H33  1  0.99404570  0.26126518  0.06080038  1  0  0.386296  0  0.920234  0  0  0.357641  0  0.988488  0  0  0.36687  0  0.974965  0  0  0.274644  0.351159  0  0.99798  0
H  H34  1  0.06676558  0.76119772  0.06094672  1  0  0.385008  0  0.92134  0  0  0.356492  0  0.990131  0  0  0.36572  0  0.976608  0  0  0.273777  0.349988  0  0.999641  0
H  H35  1  0.00595345  0.73873567  0.93919877  1  0  0.386293  0  0.920231  0  0  0.357638  0  0.988492  0  0  0.366865  0  0.974972  0  0  0.274635  0.351156  0  0.997982  0
C  C36  1  0.25790995  0.26236388  0.71975526  1  0  -0.09956  0  3.746322  0  0  -0.072722  0  3.992346  0  0  -0.079525  0  4.015475  0  0  -0.022244  -0.068455  0  3.976924  0
C  C37  1  0.53809061  0.23770130  0.28041070  1  0  -0.096791  0  3.743538  0  0  -0.070608  0  3.990286  0  0  -0.077291  0  4.013258  0  0  -0.021687  -0.066372  0  3.974898  0
C  C38  1  0.74209390  0.73763604  0.28024424  1  0  -0.099456  0  3.7462  0  0  -0.07265  0  3.992261  0  0  -0.079446  0  4.015385  0  0  -0.022261  -0.068385  0  3.976843  0
C  C39  1  0.46190959  0.76229392  0.71958679  1  0  -0.096878  0  3.743829  0  0  -0.070613  0  3.990457  0  0  -0.077295  0  4.013427  0  0  -0.02172  -0.066379  0  3.975074  0
C  C40  1  0.22880566  0.38014192  0.69741011  1  0  -0.082237  0  3.753253  0  0  -0.105115  0  3.998262  0  0  -0.104985  0  4.018797  0  0  -0.087142  -0.104859  0  3.984564  0
C  C41  1  0.53138155  0.12002894  0.30290142  1  0  -0.085466  0  3.751493  0  0  -0.108252  0  3.997197  0  0  -0.108126  0  4.017642  0  0  -0.088819  -0.108067  0  3.983501  0
C  C42  1  0.77119499  0.61985799  0.30258904  1  0  -0.082296  0  3.753235  0  0  -0.105156  0  3.998233  0  0  -0.105026  0  4.018762  0  0  -0.087104  -0.104899  0  3.984535  0
C  C43  1  0.46861561  0.87996814  0.69709973  1  0  -0.08531  0  3.751519  0  0  -0.108117  0  3.997165  0  0  -0.107991  0  4.017612  0  0  -0.088754  -0.10793  0  3.98347  0
C  C44  1  0.07229745  0.39144306  0.61064786  1  0  -0.072606  0  3.758231  0  0  -0.08161  0  4.004176  0  0  -0.085118  0  4.024991  0  0  -0.090754  -0.079126  0  3.990065  0
C  C45  1  0.46160053  0.10900760  0.38972271  1  0  -0.069449  0  3.752608  0  0  -0.078326  0  3.998241  0  0  -0.081799  0  4.01905  0  0  -0.089729  -0.075874  0  3.984175  0
C  C46  1  0.92770489  0.60855780  0.38935164  1  0  -0.072477  0  3.758278  0  0  -0.081483  0  4.004189  0  0  -0.084992  0  4.025007  0  0  -0.090715  -0.078997  0  3.990076  0
C  C47  1  0.53839683  0.89099138  0.61027589  1  0  -0.069534  0  3.7528  0  0  -0.07842  0  3.998452  0  0  -0.081893  0  4.01926  0  0  -0.089727  -0.075969  0  3.984388  0
C  C48  1  0.94795630  0.28591293  0.54707614  1  0  -0.056173  0  3.745974  0  0  -0.071661  0  3.99087  0  0  -0.071279  0  4.011494  0  0  -0.08782  -0.071829  0  3.976582  0
C  C49  1  0.40085910  0.21468739  0.45317518  1  0  -0.055212  0  3.743365  0  0  -0.070599  0  3.988142  0  0  -0.070243  0  4.008855  0  0  -0.087804  -0.070735  0  3.973783  0
C  C50  1  0.05204416  0.71408510  0.45292482  1  0  -0.056223  0  3.745893  0  0  -0.07168  0  3.990795  0  0  -0.071299  0  4.011421  0  0  -0.087803  -0.071847  0  3.976509  0
C  C51  1  0.59913692  0.78531439  0.54682598  1  0  -0.055176  0  3.7437  0  0  -0.070559  0  3.98846  0  0  -0.070207  0  4.009169  0  0  -0.087813  -0.070697  0  3.974108  0
C  C52  1  0.97571911  0.16903587  0.57166589  1  0  -0.065691  0  3.753985  0  0  -0.076781  0  4.001502  0  0  -0.079718  0  4.022079  0  0  -0.090177  -0.074723  0  3.98727  0
C  C53  1  0.40411482  0.33145528  0.42844334  1  0  -0.065148  0  3.753764  0  0  -0.076206  0  4.001098  0  0  -0.079215  0  4.021679  0  0  -0.089114  -0.074096  0  3.986874  0
C  C54  1  0.02428466  0.83096310  0.42833342  1  0  -0.065776  0  3.753929  0  0  -0.076871  0  4.001456  0  0  -0.079809  0  4.022034  0  0  -0.090208  -0.074813  0  3.987222  0
C  C55  1  0.59588274  0.66854559  0.57155272  1  0  -0.065075  0  3.753699  0  0  -0.076122  0  4.001046  0  0  -0.07913  0  4.021626  0  0  -0.08907  -0.074015  0  3.986829  0
C  C56  1  0.13081470  0.15637786  0.65842010  1  0  -0.07101  0  3.737492  0  0  -0.093563  0  3.984149  0  0  -0.092876  0  4.002937  0  0  -0.087096  -0.093672  0  3.971707  0
C  C57  1  0.47253499  0.34386448  0.34164359  1  0  -0.072993  0  3.736628  0  0  -0.095609  0  3.9831  0  0  -0.094945  0  4.001905  0  0  -0.088025  -0.095708  0  3.970647  0
C  C58  1  0.86918594  0.84362205  0.34158123  1  0  -0.070966  0  3.737425  0  0  -0.093523  0  3.98408  0  0  -0.092838  0  4.002864  0  0  -0.087075  -0.093629  0  3.971632  0
C  C59  1  0.52746236  0.65613448  0.65835793  1  0  -0.073116  0  3.736617  0  0  -0.095761  0  3.983073  0  0  -0.095096  0  4.001876  0  0  -0.088063  -0.095859  0  3.970622  0
S  S60  1  0.72350644  0.20771714  0.77307074  1  0  -0.532276  0  1.819383  0  0  -0.493108  0  2.124352  0  0  -0.509087  0  2.113007  0  0  -0.160335  -0.481067  0  2.13239  0
S  S61  1  0.95021453  0.29209428  0.22683568  1  0  -0.532412  0  1.819452  0  0  -0.49332  0  2.124003  0  0  -0.5093  0  2.112711  0  0  -0.160515  -0.481375  0  2.132124  0
S  S62  1  0.27649590  0.79228370  0.22693022  1  0  -0.532251  0  1.81938  0  0  -0.493071  0  2.124331  0  0  -0.509052  0  2.112987  0  0  -0.160311  -0.481032  0  2.132384  0
S  S63  1  0.04977962  0.70790469  0.77316476  1  0  -0.532411  0  1.81937  0  0  -0.493311  0  2.123905  0  0  -0.509293  0  2.112603  0  0  -0.160512  -0.481366  0  2.132025  0
S  S64  1  0.46397649  0.24695254  0.82851563  1  0  1.087613  0  5.349198  0  0  1.022214  0  5.862064  0  0  1.062857  0  5.846371  0  0  0.442411  0.993609  0  5.872463  0
S  S65  1  0.63514248  0.25293732  0.17154032  1  0  1.087962  0  5.349522  0  0  1.023314  0  5.861781  0  0  1.063855  0  5.846265  0  0  0.443871  0.994727  0  5.872174  0
S  S66  1  0.53602425  0.75304830  0.17148515  1  0  1.08758  0  5.349085  0  0  1.022181  0  5.861952  0  0  1.06282  0  5.846263  0  0  0.442429  0.993579  0  5.872346  0
S  S67  1  0.36485505  0.74706353  0.82845938  1  0  1.087964  0  5.349283  0  0  1.023296  0  5.861527  0  0  1.063838  0  5.846011  0  0  0.443877  0.994711  0  5.871916  0
O  O68  1  0.39092943  0.14174198  0.86370025  1  0  -0.642488  0  1.995277  0  0  -0.598097  0  2.256669  0  0  -0.618019  0  2.243619  0  0  -0.366916  -0.583746  0  2.265601  0
O  O69  1  0.52681128  0.35813587  0.13634115  1  0  -0.642645  0  1.99577  0  0  -0.598875  0  2.257514  0  0  -0.618816  0  2.244529  0  0  -0.367658  -0.584541  0  2.266482  0
O  O70  1  0.60907121  0.85825792  0.13630035  1  0  -0.642502  0  1.995307  0  0  -0.598097  0  2.256689  0  0  -0.618019  0  2.24364  0  0  -0.36691  -0.583743  0  2.265618  0
O  O71  1  0.47318626  0.64186498  0.86365855  1  0  -0.64262  0  1.995678  0  0  -0.598855  0  2.257443  0  0  -0.618798  0  2.244457  0  0  -0.367643  -0.584519  0  2.266404  0
O  O72  1  0.49493361  0.36908186  0.90351484  1  0  -0.684703  0  1.980273  0  0  -0.64124  0  2.245047  0  0  -0.659589  0  2.229549  0  0  -0.405556  -0.628029  0  2.255608  0
O  O73  1  0.59087202  0.13079355  0.09658340  1  0  -0.685112  0  1.981763  0  0  -0.641528  0  2.24613  0  0  -0.659852  0  2.230571  0  0  -0.405976  -0.628343  0  2.25677  0
O  O74  1  0.50506713  0.63091900  0.09648449  1  0  -0.68471  0  1.980166  0  0  -0.64124  0  2.244913  0  0  -0.659598  0  2.229441  0  0  -0.405606  -0.628027  0  2.255471  0
O  O75  1  0.40912570  0.86920917  0.90341740  1  0  -0.685127  0  1.981666  0  0  -0.641547  0  2.246039  0  0  -0.65987  0  2.230481  0  0  -0.406004  -0.628362  0  2.256679  0
O  O76  1  0.97825574  0.47550839  0.87880241  1  0  -0.888202  0  1.878683  0  0  -0.846812  0  2.043815  0  0  -0.861751  0  2.013484  0  0  -0.681009  -0.836343  0  2.065776  0
O  O77  1  0.09948129  0.02453773  0.12111845  1  0  -0.889238  0  1.875866  0  0  -0.847529  0  2.042375  0  0  -0.862477  0  2.011947  0  0  -0.681775  -0.837046  0  2.064343  0
O  O78  1  0.02174331  0.52449152  0.12119729  1  0  -0.888214  0  1.878726  0  0  -0.846794  0  2.043893  0  0  -0.861746  0  2.013522  0  0  -0.680993  -0.836321  0  2.065853  0
O  O79  1  0.90051944  0.97546312  0.87888234  1  0  -0.889295  0  1.875804  0  0  -0.847593  0  2.042294  0  0  -0.862545  0  2.011866  0  0  -0.681769  -0.837114  0  2.064264  0
O  O80  1  0.05537486  0.25007072  0.99994023  1  0  -0.869596  0  1.865249  0  0  -0.82729  0  2.040378  0  0  -0.842222  0  2.010516  0  0  -0.679863  -0.816536  0  2.061477  0
O  O81  1  0.94462739  0.74992919  0.00005982  1  0  -0.869622  0  1.865218  0  0  -0.827312  0  2.040416  0  0  -0.842231  0  2.010532  0  0  -0.679848  -0.816561  0  2.061499  0
