# generated using pymatgen
data_AgH9C14(N2O3)2
_symmetry_space_group_name_H-M   'P 1'
_cell_length_a   6.42574131
_cell_length_b   10.35252814
_cell_length_c   22.76795975
_cell_angle_alpha   99.57723472
_cell_angle_beta   89.99969485
_cell_angle_gamma   90.00028148
_symmetry_Int_Tables_number   1
_chemical_formula_structural   AgH9C14(N2O3)2
_chemical_formula_sum   'Ag4 H36 C56 N16 O24'
_cell_volume   1493.47546372
_cell_formula_units_Z   4
loop_
 _symmetry_equiv_pos_site_id
 _symmetry_equiv_pos_as_xyz
  1  'x, y, z'
loop_
 _atom_site_type_symbol
 _atom_site_label
 _atom_site_symmetry_multiplicity
 _atom_site_fract_x
 _atom_site_fract_y
 _atom_site_fract_z
 _atom_site_occupancy
 _atom_site_hle17_bader_spin_density
 _atom_site_hle17_ddec_charge
 _atom_site_hle17_ddec_spin_density
 _atom_site_hle17_ddec_sum_bond_order
 _atom_site_hle17_magmom
 _atom_site_hse06_10hf_bader_spin_density
 _atom_site_hse06_10hf_ddec_charge
 _atom_site_hse06_10hf_ddec_spin_density
 _atom_site_hse06_10hf_ddec_sum_bond_order
 _atom_site_hse06_10hf_magmom
 _atom_site_hse06_bader_spin_density
 _atom_site_hse06_ddec_charge
 _atom_site_hse06_ddec_spin_density
 _atom_site_hse06_ddec_sum_bond_order
 _atom_site_hse06_magmom
 _atom_site_pbe_bader_spin_density
 _atom_site_pbe_cm5_charge
 _atom_site_pbe_ddec_charge
 _atom_site_pbe_ddec_spin_density
 _atom_site_pbe_ddec_sum_bond_order
 _atom_site_pbe_magmom
Ag  Ag0  1  0.06983800  0.57114657  0.55559267  1  0  0.568843  0  1.478871  0  0  0.442809  0  1.97178  0  0  0.475684  0  1.908506  0  0  0.421373  0.422629  0  2.015183  0
Ag  Ag1  1  0.56983988  0.42884952  0.94440641  1  0  0.568775  0  1.478777  0  0  0.442699  0  1.971689  0  0  0.475582  0  1.908409  0  0  0.421362  0.42252  0  2.015079  0
Ag  Ag2  1  0.93016879  0.42885066  0.44440883  1  0  0.568802  0  1.478762  0  0  0.442747  0  1.971646  0  0  0.475624  0  1.908371  0  0  0.421356  0.422571  0  2.015054  0
Ag  Ag3  1  0.43016691  0.57114967  0.05559392  1  0  0.568829  0  1.47894  0  0  0.442778  0  1.971887  0  0  0.475649  0  1.908597  0  0  0.421389  0.422598  0  2.015273  0
H  H4  1  0.03316323  0.72588344  0.33363316  1  0  0.13382  0  0.942921  0  0  0.135314  0  1.015374  0  0  0.139799  0  1.011124  0  0  0.122025  0.131659  0  1.019085  0
H  H5  1  0.53316602  0.27411980  0.16636382  1  0  0.133822  0  0.942938  0  0  0.135304  0  1.015404  0  0  0.139794  0  1.011145  0  0  0.122024  0.131649  0  1.019112  0
H  H6  1  0.96683889  0.27411967  0.66636747  1  0  0.133773  0  0.942972  0  0  0.135258  0  1.015447  0  0  0.139748  0  1.011187  0  0  0.122006  0.131597  0  1.019173  0
H  H7  1  0.46683143  0.72588037  0.83363131  1  0  0.133861  0  0.942851  0  0  0.135374  0  1.015308  0  0  0.139869  0  1.01104  0  0  0.122043  0.131712  0  1.019027  0
H  H8  1  0.43623250  0.38434091  0.53839579  1  0  0.305619  0  0.926578  0  0  0.287397  0  0.996582  0  0  0.294776  0  0.990054  0  0  0.293105  0.282257  0  1.001192  0
H  H9  1  0.93623243  0.61565710  0.96160727  1  0  0.305678  0  0.926536  0  0  0.287528  0  0.996549  0  0  0.294878  0  0.989973  0  0  0.293188  0.2824  0  1.001079  0
H  H10  1  0.56377118  0.61566415  0.46160234  1  0  0.305579  0  0.926618  0  0  0.287413  0  0.996544  0  0  0.294774  0  0.990032  0  0  0.293118  0.282275  0  1.001146  0
H  H11  1  0.06376969  0.38434504  0.03839680  1  0  0.305592  0  0.926692  0  0  0.287327  0  0.996729  0  0  0.294704  0  0.990199  0  0  0.293091  0.282192  0  1.001322  0
H  H12  1  0.53316021  0.53833016  0.56418763  1  0  0.308451  0  0.925978  0  0  0.294171  0  0.990342  0  0  0.300812  0  0.984612  0  0  0.295801  0.28942  0  0.994727  0
H  H13  1  0.03316272  0.46166682  0.93581509  1  0  0.308466  0  0.925888  0  0  0.294219  0  0.99023  0  0  0.30086  0  0.9845  0  0  0.29581  0.28947  0  0.99461  0
H  H14  1  0.46683569  0.46166413  0.43580794  1  0  0.308514  0  0.925836  0  0  0.294237  0  0.990218  0  0  0.300881  0  0.984482  0  0  0.295806  0.289488  0  0.994601  0
H  H15  1  0.96684252  0.53832747  0.06418707  1  0  0.308497  0  0.925914  0  0  0.294218  0  0.990389  0  0  0.300864  0  0.984564  0  0  0.295808  0.28947  0  0.994687  0
H  H16  1  0.34838304  0.23219984  0.60372752  1  0  0.109813  0  0.963208  0  0  0.122141  0  1.01968  0  0  0.124964  0  1.019493  0  0  0.10185  0.12058  0  1.019502  0
H  H17  1  0.84838387  0.76779402  0.89627273  1  0  0.109831  0  0.963146  0  0  0.122181  0  1.019649  0  0  0.124996  0  1.019429  0  0  0.101825  0.12062  0  1.019423  0
H  H18  1  0.65162219  0.76779935  0.39627500  1  0  0.109884  0  0.963226  0  0  0.1222  0  1.019701  0  0  0.125017  0  1.019531  0  0  0.101859  0.120637  0  1.019526  0
H  H19  1  0.15162136  0.23220419  0.10373017  1  0  0.109825  0  0.963138  0  0  0.122135  0  1.019638  0  0  0.12496  0  1.019438  0  0  0.101835  0.120575  0  1.019451  0
H  H20  1  0.25066415  0.12062919  0.33122810  1  0  0.143863  0  0.956281  0  0  0.139289  0  1.036275  0  0  0.144296  0  1.030918  0  0  0.12459  0.135751  0  1.039864  0
H  H21  1  0.75066550  0.87937166  0.16877145  1  0  0.143866  0  0.95623  0  0  0.139303  0  1.036246  0  0  0.144287  0  1.030879  0  0  0.124594  0.135744  0  1.039826  0
H  H22  1  0.74933641  0.87937196  0.66877150  1  0  0.143828  0  0.956265  0  0  0.139263  0  1.036257  0  0  0.14427  0  1.030901  0  0  0.124586  0.135724  0  1.039844  0
H  H23  1  0.24933351  0.12062655  0.83122925  1  0  0.143877  0  0.956271  0  0  0.1393  0  1.036278  0  0  0.144304  0  1.030926  0  0  0.124603  0.135761  0  1.039867  0
H  H24  1  0.64038023  0.55853754  0.76762051  1  0  0.09362  0  0.979234  0  0  0.104559  0  1.041474  0  0  0.106419  0  1.041444  0  0  0.102695  0.103149  0  1.041689  0
H  H25  1  0.14037242  0.44145384  0.73238382  1  0  0.09364  0  0.97902  0  0  0.104594  0  1.041272  0  0  0.106455  0  1.041239  0  0  0.102657  0.10318  0  1.041493  0
H  H26  1  0.35962344  0.44147145  0.23238056  1  0  0.093716  0  0.979133  0  0  0.104649  0  1.041386  0  0  0.106511  0  1.041353  0  0  0.102698  0.103219  0  1.041622  0
H  H27  1  0.85961258  0.55854830  0.26762069  1  0  0.093613  0  0.979027  0  0  0.10453  0  1.041342  0  0  0.106388  0  1.041315  0  0  0.102678  0.103154  0  1.04152  0
H  H28  1  0.23872493  0.96441504  0.49607821  1  0  0.132103  0  0.931145  0  0  0.135057  0  0.999201  0  0  0.139653  0  0.995008  0  0  0.119787  0.131907  0  1.002136  0
H  H29  1  0.73873044  0.03558578  0.00392179  1  0  0.132083  0  0.931155  0  0  0.135076  0  0.999221  0  0  0.139657  0  0.995004  0  0  0.11977  0.131908  0  1.002138  0
H  H30  1  0.76128498  0.03558709  0.50392278  1  0  0.13208  0  0.931133  0  0  0.135075  0  0.99918  0  0  0.139673  0  0.994981  0  0  0.119774  0.131926  0  1.00212  0
H  H31  1  0.26127480  0.96441145  0.99607707  1  0  0.132074  0  0.931148  0  0  0.135016  0  0.99925  0  0  0.139612  0  0.995024  0  0  0.119773  0.131868  0  1.002153  0
H  H32  1  0.39850993  0.17216662  0.70317131  1  0  0.103663  0  0.98246  0  0  0.111835  0  1.048142  0  0  0.114645  0  1.046109  0  0  0.099626  0.109848  0  1.049665  0
H  H33  1  0.89850534  0.82783129  0.79682917  1  0  0.103585  0  0.982546  0  0  0.111804  0  1.048165  0  0  0.114619  0  1.046129  0  0  0.099599  0.109816  0  1.04969  0
H  H34  1  0.60148752  0.82782767  0.29682646  1  0  0.103594  0  0.982512  0  0  0.111828  0  1.048119  0  0  0.114636  0  1.046096  0  0  0.099614  0.109839  0  1.049649  0
H  H35  1  0.10148278  0.17216301  0.20317254  1  0  0.103654  0  0.982351  0  0  0.111799  0  1.048093  0  0  0.114604  0  1.046073  0  0  0.099612  0.109811  0  1.049616  0
H  H36  1  0.59304057  0.61769769  0.66774317  1  0  0.120073  0  0.95897  0  0  0.130595  0  1.017706  0  0  0.133635  0  1.016661  0  0  0.10704  0.128732  0  1.018423  0
H  H37  1  0.09304129  0.38228769  0.83226077  1  0  0.120157  0  0.958907  0  0  0.130532  0  1.017793  0  0  0.133571  0  1.016751  0  0  0.10703  0.12868  0  1.018501  0
H  H38  1  0.40695377  0.38229268  0.33225737  1  0  0.120167  0  0.958926  0  0  0.130561  0  1.017796  0  0  0.133603  0  1.016751  0  0  0.107054  0.128709  0  1.018504  0
H  H39  1  0.90696238  0.61770661  0.16774226  1  0  0.120185  0  0.958898  0  0  0.130578  0  1.017814  0  0  0.133618  0  1.016733  0  0  0.107063  0.128729  0  1.018487  0
C  C40  1  0.09134966  0.81881669  0.35720455  1  0  -0.051635  0  3.639131  0  0  -0.093724  0  3.89406  0  0  -0.08822  0  3.91058  0  0  -0.048263  -0.097342  0  3.884283  0
C  C41  1  0.59135683  0.18118767  0.14279287  1  0  -0.051576  0  3.639225  0  0  -0.093593  0  3.894179  0  0  -0.088078  0  3.910592  0  0  -0.048218  -0.097214  0  3.884303  0
C  C42  1  0.90865401  0.18118642  0.64279608  1  0  -0.051488  0  3.639263  0  0  -0.093588  0  3.894157  0  0  -0.088059  0  3.910692  0  0  -0.048185  -0.097208  0  3.884376  0
C  C43  1  0.40864841  0.81881348  0.85720322  1  0  -0.051692  0  3.639035  0  0  -0.093817  0  3.894001  0  0  -0.088315  0  3.910518  0  0  -0.048254  -0.097429  0  3.884212  0
C  C44  1  0.41284559  0.30338558  0.63961177  1  0  -0.190494  0  3.719366  0  0  -0.205489  0  3.969464  0  0  -0.214365  0  3.991256  0  0  -0.104793  -0.198817  0  3.953363  0
C  C45  1  0.91283563  0.69660747  0.86038788  1  0  -0.190485  0  3.719425  0  0  -0.205512  0  3.969587  0  0  -0.214389  0  3.991334  0  0  -0.104779  -0.198837  0  3.953445  0
C  C46  1  0.58715965  0.69661361  0.36039032  1  0  -0.190603  0  3.719412  0  0  -0.205585  0  3.969588  0  0  -0.21447  0  3.991382  0  0  -0.104808  -0.198907  0  3.953484  0
C  C47  1  0.08716026  0.30338879  0.13961442  1  0  -0.190461  0  3.719375  0  0  -0.20548  0  3.969496  0  0  -0.214351  0  3.991269  0  0  -0.104777  -0.198803  0  3.953378  0
C  C48  1  0.21470200  0.04122340  0.35534381  1  0  -0.081492  0  3.632161  0  0  -0.124777  0  3.896971  0  0  -0.118364  0  3.90923  0  0  -0.051211  -0.127878  0  3.8875  0
C  C49  1  0.71470288  0.95878029  0.14465513  1  0  -0.081447  0  3.632201  0  0  -0.124424  0  3.895844  0  0  -0.118287  0  3.909218  0  0  -0.051162  -0.127805  0  3.88749  0
C  C50  1  0.78530168  0.95877873  0.64465543  1  0  -0.08141  0  3.632159  0  0  -0.124747  0  3.896924  0  0  -0.118324  0  3.909204  0  0  -0.051178  -0.127855  0  3.887437  0
C  C51  1  0.28528835  0.04121890  0.85534388  1  0  -0.081608  0  3.632204  0  0  -0.124889  0  3.897056  0  0  -0.118476  0  3.909318  0  0  -0.051259  -0.127997  0  3.887595  0
C  C52  1  0.57933519  0.48690977  0.73135546  1  0  -0.055944  0  3.752158  0  0  -0.079832  0  3.999368  0  0  -0.076662  0  4.019452  0  0  -0.076017  -0.081458  0  3.985336  0
C  C53  1  0.07932882  0.51308635  0.76864887  1  0  -0.055923  0  3.751862  0  0  -0.079792  0  3.999016  0  0  -0.076612  0  4.019099  0  0  -0.07599  -0.081421  0  3.984993  0
C  C54  1  0.42066537  0.51309236  0.26864729  1  0  -0.056125  0  3.752034  0  0  -0.079982  0  3.999164  0  0  -0.07682  0  4.019258  0  0  -0.076085  -0.081594  0  3.985145  0
C  C55  1  0.92067019  0.48691481  0.23135600  1  0  -0.055906  0  3.751814  0  0  -0.079774  0  3.999034  0  0  -0.076607  0  4.019135  0  0  -0.076002  -0.081428  0  3.984992  0
C  C56  1  0.20875991  0.95200725  0.44848577  1  0  -0.054688  0  3.627974  0  0  -0.099658  0  3.890067  0  0  -0.093519  0  3.903874  0  0  -0.053548  -0.103796  0  3.880563  0
C  C57  1  0.70876618  0.04799447  0.05151303  1  0  -0.054575  0  3.62777  0  0  -0.099326  0  3.888864  0  0  -0.093437  0  3.90373  0  0  -0.053461  -0.103723  0  3.880426  0
C  C58  1  0.79125155  0.04799978  0.55151471  1  0  -0.054581  0  3.627799  0  0  -0.099712  0  3.889921  0  0  -0.093538  0  3.903765  0  0  -0.053528  -0.103865  0  3.88042  0
C  C59  1  0.29123906  0.95200178  0.94848445  1  0  -0.054699  0  3.627879  0  0  -0.099663  0  3.89005  0  0  -0.093522  0  3.903797  0  0  -0.053527  -0.103805  0  3.880502  0
C  C60  1  0.09163785  0.71859883  0.45017476  1  0  0.623213  0  3.951181  0  0  0.570466  0  4.239349  0  0  0.605753  0  4.237224  0  0  0.196659  0.547146  0  4.238707  0
C  C61  1  0.59164445  0.28140357  0.04982163  1  0  0.62322  0  3.950871  0  0  0.570474  0  4.23911  0  0  0.605763  0  4.236949  0  0  0.196597  0.547155  0  4.238439  0
C  C62  1  0.90836583  0.28140525  0.54982594  1  0  0.623273  0  3.951102  0  0  0.570495  0  4.239269  0  0  0.605804  0  4.237139  0  0  0.19665  0.547178  0  4.23863  0
C  C63  1  0.40835923  0.71859268  0.95017233  1  0  0.623344  0  3.950675  0  0  0.570592  0  4.238899  0  0  0.605873  0  4.236731  0  0  0.196644  0.547271  0  4.238215  0
C  C64  1  0.52767518  0.36035301  0.74201287  1  0  -0.030525  0  3.919935  0  0  -0.009281  0  4.154635  0  0  -0.016722  0  4.178064  0  0  -0.023477  -0.004509  0  4.138713  0
C  C65  1  0.02767002  0.63964200  0.75798794  1  0  -0.030775  0  3.920282  0  0  -0.009498  0  4.154905  0  0  -0.017011  0  4.178456  0  0  -0.023639  -0.004716  0  4.138976  0
C  C66  1  0.47232227  0.63964912  0.25798285  1  0  -0.03046  0  3.919867  0  0  -0.009224  0  4.154585  0  0  -0.016655  0  4.177985  0  0  -0.023405  -0.004448  0  4.138658  0
C  C67  1  0.97232588  0.36035524  0.24201443  1  0  -0.030596  0  3.920071  0  0  -0.009322  0  4.154734  0  0  -0.01678  0  4.178192  0  0  -0.023504  -0.004554  0  4.138817  0
C  C68  1  0.44182368  0.26939752  0.69533932  1  0  -0.083505  0  3.780306  0  0  -0.107421  0  4.031645  0  0  -0.104808  0  4.051306  0  0  -0.089357  -0.108217  0  4.017187  0
C  C69  1  0.94181661  0.73059756  0.80466264  1  0  -0.083376  0  3.780331  0  0  -0.107319  0  4.031639  0  0  -0.104696  0  4.051283  0  0  -0.089314  -0.108118  0  4.01718  0
C  C70  1  0.55817844  0.73059677  0.30466064  1  0  -0.083405  0  3.780237  0  0  -0.107359  0  4.031533  0  0  -0.104746  0  4.051192  0  0  -0.089346  -0.108159  0  4.017081  0
C  C71  1  0.05817617  0.26940065  0.19534114  1  0  -0.083483  0  3.780406  0  0  -0.107394  0  4.031784  0  0  -0.104776  0  4.051424  0  0  -0.089368  -0.108192  0  4.017317  0
C  C72  1  0.47096712  0.42843242  0.62828736  1  0  0.349856  0  3.781326  0  0  0.343034  0  4.024727  0  0  0.356703  0  4.04394  0  0  0.110122  0.333685  0  4.010876  0
C  C73  1  0.97096217  0.57156078  0.87171441  1  0  0.34984  0  3.781292  0  0  0.342998  0  4.024775  0  0  0.356674  0  4.043964  0  0  0.110181  0.333647  0  4.010917  0
C  C74  1  0.52903189  0.57156678  0.37171385  1  0  0.34999  0  3.781261  0  0  0.343075  0  4.024819  0  0  0.356749  0  4.04403  0  0  0.110139  0.333724  0  4.01097  0
C  C75  1  0.02903684  0.42843645  0.12828841  1  0  0.349844  0  3.781157  0  0  0.343095  0  4.024476  0  0  0.356768  0  4.043673  0  0  0.110218  0.333745  0  4.010617  0
C  C76  1  0.55201449  0.52010923  0.67552751  1  0  -0.177132  0  3.689537  0  0  -0.193666  0  3.938209  0  0  -0.202278  0  3.959416  0  0  -0.097703  -0.18778  0  3.923553  0
C  C77  1  0.05201458  0.47987702  0.82447437  1  0  -0.177158  0  3.689553  0  0  -0.193603  0  3.938288  0  0  -0.202216  0  3.959492  0  0  -0.097689  -0.187726  0  3.923643  0
C  C78  1  0.44797829  0.47988213  0.32447355  1  0  -0.177188  0  3.689413  0  0  -0.193606  0  3.938136  0  0  -0.202224  0  3.959351  0  0  -0.09768  -0.187728  0  3.923485  0
C  C79  1  0.94798909  0.52011923  0.17552970  1  0  -0.177212  0  3.689327  0  0  -0.19369  0  3.938071  0  0  -0.202306  0  3.959258  0  0  -0.097747  -0.187819  0  3.923417  0
C  C80  1  0.24887807  0.05327102  0.41643902  1  0  0.089741  0  3.674707  0  0  0.079683  0  3.922435  0  0  0.078867  0  3.948496  0  0  0.089367  0.083746  0  3.907278  0
C  C81  1  0.74888001  0.94672983  0.08356141  1  0  0.089763  0  3.674737  0  0  0.085179  0  3.925537  0  0  0.078882  0  3.948487  0  0  0.089308  0.083753  0  3.907265  0
C  C82  1  0.75112250  0.94673601  0.58356190  1  0  0.089822  0  3.674502  0  0  0.079894  0  3.922121  0  0  0.078968  0  3.948177  0  0  0.089475  0.083986  0  3.906926  0
C  C83  1  0.25111900  0.05326642  0.91643870  1  0  0.089962  0  3.674464  0  0  0.079865  0  3.922222  0  0  0.07907  0  3.948281  0  0  0.089452  0.083927  0  3.907061  0
C  C84  1  0.13037810  0.83342589  0.41837637  1  0  -0.031094  0  3.69594  0  0  -0.004143  0  3.930791  0  0  -0.015001  0  3.953442  0  0  -0.000586  0.001751  0  3.917608  0
C  C85  1  0.63038942  0.16657760  0.08162268  1  0  -0.031263  0  3.695994  0  0  -0.004357  0  3.931016  0  0  -0.015256  0  3.953641  0  0  -0.000698  0.001535  0  3.917732  0
C  C86  1  0.86963024  0.16657918  0.58162485  1  0  -0.031229  0  3.696084  0  0  -0.004183  0  3.930876  0  0  -0.015136  0  3.953662  0  0  -0.000691  0.001706  0  3.917697  0
C  C87  1  0.36961582  0.83342159  0.91837589  1  0  -0.031038  0  3.69584  0  0  -0.004051  0  3.93071  0  0  -0.014898  0  3.953318  0  0  -0.000574  0.001842  0  3.917503  0
C  C88  1  0.13405361  0.92228208  0.32707013  1  0  0.080217  0  3.689769  0  0  0.070167  0  3.938703  0  0  0.063822  0  3.961329  0  0  0.084493  0.073752  0  3.923839  0
C  C89  1  0.63405626  0.07772337  0.17292906  1  0  0.080012  0  3.689905  0  0  0.070017  0  3.938948  0  0  0.063673  0  3.961457  0  0  0.084457  0.0736  0  3.923974  0
C  C90  1  0.86595007  0.07772103  0.67293049  1  0  0.080127  0  3.689914  0  0  0.070083  0  3.93886  0  0  0.06374  0  3.961476  0  0  0.084462  0.073668  0  3.923991  0
C  C91  1  0.36593652  0.92227778  0.82706966  1  0  0.080245  0  3.689952  0  0  0.070178  0  3.938944  0  0  0.063832  0  3.961572  0  0  0.084522  0.073766  0  3.924074  0
C  C92  1  0.55672330  0.32907854  0.79953837  1  0  0.304939  0  3.737888  0  0  0.286285  0  4.005325  0  0  0.300071  0  4.024641  0  0  0.192239  0.276934  0  3.99202  0
C  C93  1  0.05671481  0.67092439  0.70047090  1  0  0.305086  0  3.737217  0  0  0.286436  0  4.00467  0  0  0.300239  0  4.023985  0  0  0.19234  0.277075  0  3.99136  0
C  C94  1  0.44327104  0.67092751  0.20046072  1  0  0.304699  0  3.737286  0  0  0.286036  0  4.004759  0  0  0.299824  0  4.024066  0  0  0.192045  0.276681  0  3.991434  0
C  C95  1  0.94325308  0.32907481  0.29953602  1  0  0.304934  0  3.737752  0  0  0.286276  0  4.005209  0  0  0.300065  0  4.024528  0  0  0.192241  0.276927  0  3.991909  0
N  N96  1  0.09567413  0.90330869  0.26255135  1  0  0.472325  0  3.954819  0  0  0.52729  0  4.208723  0  0  0.549024  0  4.217064  0  0  0.059388  0.512688  0  4.20328  0
N  N97  1  0.59567105  0.09669667  0.23744657  1  0  0.472651  0  3.954487  0  0  0.527374  0  4.208746  0  0  0.549113  0  4.217064  0  0  0.059392  0.512773  0  4.203288  0
N  N98  1  0.90432643  0.09669149  0.73744905  1  0  0.472392  0  3.955051  0  0  0.527331  0  4.20895  0  0  0.549064  0  4.217301  0  0  0.05939  0.512729  0  4.203514  0
N  N99  1  0.40431862  0.90330742  0.76255105  1  0  0.472292  0  3.954977  0  0  0.527253  0  4.208899  0  0  0.54899  0  4.217243  0  0  0.059379  0.512651  0  4.203462  0
N  N100  1  0.44472956  0.46172299  0.57249088  1  0  -0.652143  0  3.15713  0  0  -0.605139  0  3.393917  0  0  -0.627047  0  3.391849  0  0  -0.591239  -0.588631  0  3.394025  0
N  N101  1  0.94472485  0.53827504  0.92751261  1  0  -0.652162  0  3.156973  0  0  -0.605184  0  3.39363  0  0  -0.627055  0  3.391545  0  0  -0.59129  -0.5887  0  3.393631  0
N  N102  1  0.55527723  0.53827522  0.42750981  1  0  -0.652235  0  3.157022  0  0  -0.605193  0  3.393683  0  0  -0.627074  0  3.391644  0  0  -0.591255  -0.588684  0  3.393785  0
N  N103  1  0.05528505  0.46172416  0.07249167  1  0  -0.652218  0  3.157258  0  0  -0.605143  0  3.394031  0  0  -0.627043  0  3.391899  0  0  -0.591277  -0.588634  0  3.394065  0
N  N104  1  0.32987748  0.17754069  0.44807953  1  0  0.485511  0  3.922364  0  0  0.541553  0  4.171331  0  0  0.543518  0  4.211583  0  0  0.063285  0.525583  0  4.167549  0
N  N105  1  0.82987747  0.82245938  0.05191896  1  0  0.485208  0  3.922485  0  0  0.521856  0  4.201549  0  0  0.54333  0  4.21158  0  0  0.063212  0.525419  0  4.167503  0
N  N106  1  0.67012775  0.82246438  0.55191993  1  0  0.485291  0  3.922273  0  0  0.541267  0  4.171304  0  0  0.543519  0  4.211158  0  0  0.063103  0.525292  0  4.167515  0
N  N107  1  0.17012776  0.17753687  0.94807851  1  0  0.48531  0  3.922264  0  0  0.541384  0  4.171244  0  0  0.543283  0  4.211593  0  0  0.063159  0.525417  0  4.167457  0
N  N108  1  0.58285203  0.30580064  0.84763566  1  0  -0.429621  0  2.769733  0  0  -0.389787  0  3.047738  0  0  -0.404206  0  3.052187  0  0  -0.347623  -0.379903  0  3.044809  0
N  N109  1  0.08285709  0.69419255  0.65236011  1  0  -0.429749  0  2.768674  0  0  -0.389939  0  3.046719  0  0  -0.404359  0  3.05115  0  0  -0.347676  -0.380055  0  3.043791  0
N  N110  1  0.41714386  0.69419659  0.15235398  1  0  -0.429479  0  2.769044  0  0  -0.389636  0  3.047113  0  0  -0.404054  0  3.051529  0  0  -0.347514  -0.379749  0  3.044148  0
N  N111  1  0.91713414  0.30580664  0.34763759  1  0  -0.429619  0  2.769561  0  0  -0.389783  0  3.047573  0  0  -0.404202  0  3.052017  0  0  -0.347625  -0.3799  0  3.044648  0
O  O112  1  0.11276803  0.73922113  0.50648267  1  0  -0.610298  0  2.065279  0  0  -0.544356  0  2.332602  0  0  -0.576788  0  2.323135  0  0  -0.331353  -0.520912  0  2.336898  0
O  O113  1  0.61276920  0.26077801  0.99351525  1  0  -0.610199  0  2.065119  0  0  -0.54426  0  2.33248  0  0  -0.576674  0  2.322986  0  0  -0.331306  -0.520818  0  2.336769  0
O  O114  1  0.88722631  0.26078100  0.49351832  1  0  -0.610344  0  2.065128  0  0  -0.544394  0  2.332478  0  0  -0.576816  0  2.322986  0  0  -0.331401  -0.520955  0  2.336785  0
O  O115  1  0.38722825  0.73921530  0.00648068  1  0  -0.610462  0  2.06488  0  0  -0.544481  0  2.332093  0  0  -0.576943  0  2.322749  0  0  -0.331441  -0.521077  0  2.336532  0
O  O116  1  0.38088746  0.18359397  0.50119702  1  0  -0.351554  0  1.808022  0  0  -0.338437  0  2.005853  0  0  -0.344435  0  2.012609  0  0  -0.114857  -0.33168  0  2.009386  0
O  O117  1  0.88088674  0.81640488  0.99880180  1  0  -0.351417  0  1.808034  0  0  -0.331655  0  2.015246  0  0  -0.344358  0  2.012576  0  0  -0.114803  -0.331616  0  2.009362  0
O  O118  1  0.61912089  0.81640718  0.49880039  1  0  -0.351514  0  1.807974  0  0  -0.338322  0  2.005727  0  0  -0.344409  0  2.012341  0  0  -0.11481  -0.331579  0  2.009275  0
O  O119  1  0.11912316  0.18359235  0.00119794  1  0  -0.35149  0  1.807911  0  0  -0.338321  0  2.005644  0  0  -0.344303  0  2.012438  0  0  -0.114785  -0.331569  0  2.009166  0
O  O120  1  0.04247765  0.61261618  0.41669135  1  0  -0.599755  0  2.115264  0  0  -0.526667  0  2.383565  0  0  -0.559448  0  2.376277  0  0  -0.318422  -0.503148  0  2.387132  0
O  O121  1  0.54248447  0.38738708  0.08330517  1  0  -0.599807  0  2.115243  0  0  -0.526688  0  2.383513  0  0  -0.559488  0  2.376266  0  0  -0.318413  -0.503178  0  2.38709  0
O  O122  1  0.95752136  0.38738987  0.58330774  1  0  -0.599788  0  2.115449  0  0  -0.526682  0  2.383751  0  0  -0.559462  0  2.376455  0  0  -0.318377  -0.503155  0  2.387305  0
O  O123  1  0.45752232  0.61261015  0.91668930  1  0  -0.599765  0  2.115254  0  0  -0.526651  0  2.383522  0  0  -0.559451  0  2.376264  0  0  -0.318363  -0.503129  0  2.387074  0
O  O124  1  0.99378667  0.80602144  0.24025885  1  0  -0.331452  0  1.828556  0  0  -0.321514  0  2.036274  0  0  -0.334616  0  2.033517  0  0  -0.100918  -0.313065  0  2.038615  0
O  O125  1  0.49378104  0.19398492  0.25974075  1  0  -0.331644  0  1.828231  0  0  -0.321594  0  2.036065  0  0  -0.334707  0  2.033321  0  0  -0.10095  -0.313148  0  2.038411  0
O  O126  1  0.00621233  0.19397971  0.75974294  1  0  -0.331505  0  1.828587  0  0  -0.321569  0  2.036316  0  0  -0.334663  0  2.03355  0  0  -0.10095  -0.313122  0  2.038664  0
O  O127  1  0.50621175  0.80602112  0.74025747  1  0  -0.331451  0  1.828566  0  0  -0.321504  0  2.036342  0  0  -0.334598  0  2.033566  0  0  -0.100918  -0.313056  0  2.038686  0
O  O128  1  0.16724779  0.98573159  0.23415493  1  0  -0.349141  0  1.795747  0  0  -0.346235  0  1.998402  0  0  -0.360022  0  1.996206  0  0  -0.127979  -0.337163  0  2.000288  0
O  O129  1  0.66724040  0.01427395  0.26584203  1  0  -0.34912  0  1.79573  0  0  -0.346204  0  1.998518  0  0  -0.359994  0  1.996325  0  0  -0.127947  -0.337132  0  2.000408  0
O  O130  1  0.83275588  0.01427054  0.76584475  1  0  -0.349146  0  1.79589  0  0  -0.346235  0  1.998555  0  0  -0.360027  0  1.996367  0  0  -0.127979  -0.337164  0  2.000446  0
O  O131  1  0.33274771  0.98572916  0.73415421  1  0  -0.349093  0  1.795749  0  0  -0.34624  0  1.998425  0  0  -0.360033  0  1.996233  0  0  -0.128005  -0.337172  0  2.000315  0
O  O132  1  0.34188295  0.27155231  0.42073045  1  0  -0.345185  0  1.8214  0  0  -0.331503  0  2.032214  0  0  -0.335917  0  2.033929  0  0  -0.106063  -0.326891  0  2.041046  0
O  O133  1  0.84188479  0.72844877  0.07926898  1  0  -0.345017  0  1.821398  0  0  -0.324693  0  2.041604  0  0  -0.335812  0  2.033909  0  0  -0.106032  -0.326793  0  2.04101  0
O  O134  1  0.65812072  0.72845472  0.57926960  1  0  -0.345044  0  1.821334  0  0  -0.331361  0  2.032173  0  0  -0.335879  0  2.03377  0  0  -0.105978  -0.326743  0  2.040993  0
O  O135  1  0.15811422  0.27155042  0.92073179  1  0  -0.345131  0  1.821415  0  0  -0.331476  0  2.032218  0  0  -0.33587  0  2.033971  0  0  -0.106066  -0.326857  0  2.041038  0
