# generated using pymatgen
data_CdH17C23(NO3)2
_symmetry_space_group_name_H-M   'P 1'
_cell_length_a   10.35660243
_cell_length_b   11.49796843
_cell_length_c   12.37823154
_cell_angle_alpha   113.28607941
_cell_angle_beta   107.80932790
_cell_angle_gamma   100.74727846
_symmetry_Int_Tables_number   1
_chemical_formula_structural   CdH17C23(NO3)2
_chemical_formula_sum   'Cd2 H34 C46 N4 O12'
_cell_volume   1206.79723464
_cell_formula_units_Z   2
loop_
 _symmetry_equiv_pos_site_id
 _symmetry_equiv_pos_as_xyz
  1  'x, y, z'
loop_
 _atom_site_type_symbol
 _atom_site_label
 _atom_site_symmetry_multiplicity
 _atom_site_fract_x
 _atom_site_fract_y
 _atom_site_fract_z
 _atom_site_occupancy
 _atom_site_hle17_bader_spin_density
 _atom_site_hle17_ddec_charge
 _atom_site_hle17_ddec_spin_density
 _atom_site_hle17_ddec_sum_bond_order
 _atom_site_hle17_magmom
 _atom_site_hse06_10hf_bader_spin_density
 _atom_site_hse06_10hf_ddec_charge
 _atom_site_hse06_10hf_ddec_spin_density
 _atom_site_hse06_10hf_ddec_sum_bond_order
 _atom_site_hse06_10hf_magmom
 _atom_site_hse06_bader_spin_density
 _atom_site_hse06_ddec_charge
 _atom_site_hse06_ddec_spin_density
 _atom_site_hse06_ddec_sum_bond_order
 _atom_site_hse06_magmom
 _atom_site_pbe_bader_spin_density
 _atom_site_pbe_cm5_charge
 _atom_site_pbe_ddec_charge
 _atom_site_pbe_ddec_spin_density
 _atom_site_pbe_ddec_sum_bond_order
 _atom_site_pbe_magmom
Cd  Cd0  1  0.93023133  0.30708705  0.43195860  1  0  1.106216  0  1.686308  0  0  0.916735  0  2.129855  0  0  0.976418  0  2.078269  0  0  0.761589  0.87455  0  2.16462  0
Cd  Cd1  1  0.06976670  0.69291132  0.56803972  1  0  1.106206  0  1.686356  0  0  0.916719  0  2.129912  0  0  0.976402  0  2.078327  0  0  0.761574  0.874532  0  2.164677  0
H  H2  1  0.70472619  0.36121738  0.06370781  1  0  0.111051  0  0.970985  0  0  0.117918  0  1.039044  0  0  0.122357  0  1.034847  0  0  0.102357  0.114666  0  1.042206  0
H  H3  1  0.29527340  0.63878506  0.93629561  1  0  0.111041  0  0.970978  0  0  0.1179  0  1.039051  0  0  0.122339  0  1.034853  0  0  0.10236  0.114648  0  1.042213  0
H  H4  1  0.12113841  0.74573791  0.17041552  1  0  0.101349  0  0.965494  0  0  0.114171  0  1.023422  0  0  0.116747  0  1.023065  0  0  0.101325  0.112238  0  1.023781  0
H  H5  1  0.87886771  0.25426041  0.82958567  1  0  0.10135  0  0.965461  0  0  0.114169  0  1.023399  0  0  0.116745  0  1.023042  0  0  0.101341  0.112235  0  1.023758  0
H  H6  1  0.14029224  0.63700102  0.30936216  1  0  0.107335  0  0.945034  0  0  0.117492  0  1.005678  0  0  0.120656  0  1.00316  0  0  0.105276  0.115207  0  1.007475  0
H  H7  1  0.85971008  0.36299531  0.69063895  1  0  0.107337  0  0.945043  0  0  0.117489  0  1.005704  0  0  0.120652  0  1.003187  0  0  0.105278  0.115206  0  1.0075  0
H  H8  1  0.51429453  0.37680783  0.95063509  1  0  0.065637  0  0.915288  0  0  0.083124  0  0.973179  0  0  0.083553  0  0.972412  0  0  0.108962  0.082785  0  0.973669  0
H  H9  1  0.48570576  0.62318847  0.04936064  1  0  0.065669  0  0.915368  0  0  0.083171  0  0.973237  0  0  0.083599  0  0.972472  0  0  0.108963  0.082835  0  0.973714  0
H  H10  1  0.55754903  0.26282101  0.83210175  1  0  0.068931  0  0.897055  0  0  0.087343  0  0.95096  0  0  0.087489  0  0.950615  0  0  0.110721  0.087137  0  0.951164  0
H  H11  1  0.44244900  0.73717732  0.16789170  1  0  0.06897  0  0.897075  0  0  0.087374  0  0.950977  0  0  0.087521  0  0.95063  0  0  0.110732  0.087168  0  0.951182  0
H  H12  1  0.26779523  0.16733693  0.74181585  1  0  0.108334  0  0.947383  0  0  0.118256  0  1.008161  0  0  0.121216  0  1.008062  0  0  0.106861  0.116113  0  1.008368  0
H  H13  1  0.73220513  0.83266752  0.25818688  1  0  0.108309  0  0.94733  0  0  0.118228  0  1.00812  0  0  0.1212  0  1.008007  0  0  0.106869  0.116084  0  1.008327  0
H  H14  1  0.04828396  0.15781791  0.57782337  1  0  0.100946  0  0.951788  0  0  0.110388  0  1.010889  0  0  0.11378  0  1.007421  0  0  0.119196  0.107868  0  1.013523  0
H  H15  1  0.95171314  0.84218862  0.42218251  1  0  0.100889  0  0.951845  0  0  0.110362  0  1.010913  0  0  0.113759  0  1.007436  0  0  0.119163  0.107834  0  1.013544  0
H  H16  1  0.27853753  0.49647715  0.58145855  1  0  0.097375  0  0.918654  0  0  0.108951  0  0.974275  0  0  0.111352  0  0.97211  0  0  0.124026  0.107045  0  0.976046  0
H  H17  1  0.72146003  0.50352527  0.41854030  1  0  0.097419  0  0.918604  0  0  0.108989  0  0.974227  0  0  0.111378  0  0.972077  0  0  0.124041  0.107083  0  0.975998  0
H  H18  1  0.50938305  0.52181544  0.74811427  1  0  0.123792  0  0.934858  0  0  0.131758  0  0.992244  0  0  0.13612  0  0.989979  0  0  0.114042  0.128586  0  0.994021  0
H  H19  1  0.49061552  0.47818694  0.25188161  1  0  0.123777  0  0.934848  0  0  0.131761  0  0.992216  0  0  0.136136  0  0.989935  0  0  0.114045  0.128589  0  0.993994  0
H  H20  1  0.96493557  0.78309973  0.88794703  1  0  0.087712  0  0.924696  0  0  0.101789  0  0.982827  0  0  0.101752  0  0.983807  0  0  0.114128  0.101813  0  0.982236  0
H  H21  1  0.03506270  0.21689660  0.11204981  1  0  0.087687  0  0.924694  0  0  0.101773  0  0.982834  0  0  0.101738  0  0.983811  0  0  0.114112  0.101796  0  0.982243  0
H  H22  1  0.09869456  0.77003105  0.00755515  1  0  0.0709  0  0.931576  0  0  0.081511  0  0.998439  0  0  0.082472  0  0.996919  0  0  0.106281  0.080863  0  0.999534  0
H  H23  1  0.90130829  0.22996930  0.99244351  1  0  0.070878  0  0.93158  0  0  0.081472  0  0.998474  0  0  0.082434  0  0.996955  0  0  0.106268  0.080822  0  0.99957  0
H  H24  1  0.75182374  0.83084085  0.00118126  1  0  0.117822  0  0.92818  0  0  0.128732  0  0.981447  0  0  0.132684  0  0.979872  0  0  0.113763  0.125898  0  0.982732  0
H  H25  1  0.24817936  0.16915750  0.99882078  1  0  0.117821  0  0.928174  0  0  0.128726  0  0.98145  0  0  0.132678  0  0.979874  0  0  0.11376  0.125891  0  0.982734  0
H  H26  1  0.74757240  0.03893910  0.17288650  1  0  0.084525  0  0.914228  0  0  0.09597  0  0.96867  0  0  0.098497  0  0.966381  0  0  0.121807  0.094244  0  0.970063  0
H  H27  1  0.25242991  0.96105722  0.82711380  1  0  0.084484  0  0.914184  0  0  0.09595  0  0.968616  0  0  0.098477  0  0.966326  0  0  0.121787  0.094223  0  0.970009  0
H  H28  1  0.19480979  0.20272556  0.35577206  1  0  0.078408  0  0.932037  0  0  0.088293  0  0.991178  0  0  0.090385  0  0.989754  0  0  0.118319  0.086849  0  0.992142  0
H  H29  1  0.80519166  0.79727378  0.64422587  1  0  0.078396  0  0.932029  0  0  0.088282  0  0.99117  0  0  0.090374  0  0.989746  0  0  0.118308  0.086838  0  0.992134  0
H  H30  1  0.21884443  0.00507268  0.19004554  1  0  0.109005  0  0.939204  0  0  0.121193  0  0.994363  0  0  0.124204  0  0.994  0  0  0.11095  0.119131  0  0.994598  0
H  H31  1  0.78115919  0.99492967  0.80995162  1  0  0.109045  0  0.939172  0  0  0.121235  0  0.994319  0  0  0.124244  0  0.993956  0  0  0.110966  0.119171  0  0.994557  0
H  H32  1  0.73458851  0.96292669  0.53114667  1  0  0.094672  0  0.96951  0  0  0.101051  0  1.03777  0  0  0.104419  0  1.036397  0  0  0.096678  0.098604  0  1.038871  0
H  H33  1  0.26541030  0.03707371  0.46885339  1  0  0.094682  0  0.969471  0  0  0.101043  0  1.037754  0  0  0.10441  0  1.036381  0  0  0.096667  0.098595  0  1.038856  0
H  H34  1  0.45133021  0.16451403  0.42360999  1  0  0.097601  0  0.948438  0  0  0.106405  0  1.010667  0  0  0.110548  0  1.007495  0  0  0.098875  0.10335  0  1.013101  0
H  H35  1  0.54866923  0.83548536  0.57639068  1  0  0.097643  0  0.948355  0  0  0.106445  0  1.010589  0  0  0.110587  0  1.007417  0  0  0.098884  0.103388  0  1.013025  0
C  C36  1  0.92815723  0.42791341  0.27695555  1  0  0.629152  0  3.927675  0  0  0.578731  0  4.219118  0  0  0.613652  0  4.21352  0  0  0.18677  0.555245  0  4.221782  0
C  C37  1  0.07184260  0.57208699  0.72304557  1  0  0.629073  0  3.9277  0  0  0.57867  0  4.219137  0  0  0.613589  0  4.213541  0  0  0.186796  0.555183  0  4.221799  0
C  C38  1  0.92301410  0.49287584  0.19376518  1  0  -0.065275  0  3.805864  0  0  -0.045304  0  4.048703  0  0  -0.053533  0  4.071682  0  0  -0.034061  -0.040049  0  4.033341  0
C  C39  1  0.07698611  0.50712558  0.80623804  1  0  -0.065175  0  3.805796  0  0  -0.045246  0  4.048696  0  0  -0.05347  0  4.071673  0  0  -0.034051  -0.039989  0  4.033332  0
C  C40  1  0.79377017  0.44491967  0.08322855  1  0  -0.206611  0  3.788147  0  0  -0.242301  0  4.05152  0  0  -0.24378  0  4.070983  0  0  -0.112304  -0.241454  0  4.038804  0
C  C41  1  0.20623004  0.55508174  0.91677386  1  0  -0.20658  0  3.788151  0  0  -0.242268  0  4.051534  0  0  -0.243747  0  4.070995  0  0  -0.112281  -0.241421  0  4.038815  0
C  C42  1  0.78150026  0.50465673  0.00445289  1  0  0.162676  0  3.815959  0  0  0.149149  0  4.084635  0  0  0.155375  0  4.101165  0  0  0.069515  0.144676  0  4.073792  0
C  C43  1  0.21850399  0.49534463  0.99554811  1  0  0.162623  0  3.815995  0  0  0.149133  0  4.084621  0  0  0.155358  0  4.101151  0  0  0.069491  0.144659  0  4.073777  0
C  C44  1  0.90141665  0.61291778  0.03408474  1  0  0.182888  0  3.786161  0  0  0.16901  0  4.051081  0  0  0.178385  0  4.067686  0  0  0.079361  0.162535  0  4.039845  0
C  C45  1  0.09858683  0.38708159  0.96591777  1  0  0.182844  0  3.786135  0  0  0.168963  0  4.051046  0  0  0.178341  0  4.067652  0  0  0.079329  0.162489  0  4.039809  0
C  C46  1  0.02887077  0.66124481  0.14503045  1  0  -0.190957  0  3.783608  0  0  -0.213565  0  4.044637  0  0  -0.219302  0  4.065778  0  0  -0.112017  -0.209653  0  4.030155  0
C  C47  1  0.97112968  0.33875455  0.85496886  1  0  -0.19097  0  3.783533  0  0  -0.213572  0  4.044571  0  0  -0.219311  0  4.065715  0  0  -0.112044  -0.20966  0  4.030089  0
C  C48  1  0.04001868  0.60106532  0.22427223  1  0  -0.041426  0  3.725128  0  0  -0.074317  0  3.989164  0  0  -0.070655  0  4.005425  0  0  -0.089309  -0.076674  0  3.978006  0
C  C49  1  0.95998278  0.39893405  0.77572895  1  0  -0.041447  0  3.725135  0  0  -0.07433  0  3.989201  0  0  -0.070668  0  4.005461  0  0  -0.089306  -0.076691  0  3.978049  0
C  C50  1  0.53680615  0.35916161  0.86473506  1  0  0.054494  0  3.663924  0  0  -0.008272  0  3.925151  0  0  -0.001048  0  3.929673  0  0  -0.050259  -0.012971  0  3.921611  0
C  C51  1  0.46319289  0.64083672  0.13526027  1  0  0.054402  0  3.664125  0  0  -0.008354  0  3.925333  0  0  -0.00113  0  3.929853  0  0  -0.05027  -0.013051  0  3.921794  0
C  C52  1  0.40642405  0.34834514  0.76042554  1  0  0.117426  0  3.739132  0  0  0.128137  0  3.985904  0  0  0.132464  0  4.008231  0  0  0.008106  0.125475  0  3.970527  0
C  C53  1  0.59357616  0.65165625  0.23957363  1  0  0.117429  0  3.739165  0  0  0.128096  0  3.985992  0  0  0.132421  0  4.008327  0  0  0.008124  0.125433  0  3.970617  0
C  C54  1  0.27559002  0.24393194  0.71078097  1  0  -0.161848  0  3.717056  0  0  -0.181407  0  3.971398  0  0  -0.189972  0  3.993724  0  0  -0.082928  -0.17585  0  3.956431  0
C  C55  1  0.72441097  0.75607151  0.28922399  1  0  -0.161785  0  3.716988  0  0  -0.181346  0  3.971358  0  0  -0.189921  0  3.993682  0  0  -0.082924  -0.17579  0  3.956389  0
C  C56  1  0.15295833  0.23660342  0.61852113  1  0  0.132707  0  3.697951  0  0  0.101171  0  3.952332  0  0  0.108527  0  3.970681  0  0  0.046707  0.096431  0  3.939737  0
C  C57  1  0.84704103  0.76340105  0.38148296  1  0  0.132753  0  3.698072  0  0  0.101203  0  3.952417  0  0  0.108558  0  3.970774  0  0  0.046738  0.096477  0  3.939811  0
C  C58  1  0.28120037  0.42581323  0.61987302  1  0  0.132486  0  3.708021  0  0  0.102185  0  3.962583  0  0  0.109596  0  3.981746  0  0  0.048988  0.097451  0  3.949479  0
C  C59  1  0.71879517  0.57418921  0.38012613  1  0  0.132452  0  3.708171  0  0  0.102152  0  3.962721  0  0  0.10957  0  3.981889  0  0  0.049017  0.097417  0  3.94962  0
C  C60  1  0.40916127  0.44012634  0.71285834  1  0  -0.16126  0  3.699297  0  0  -0.181553  0  3.948891  0  0  -0.189297  0  3.969003  0  0  -0.083814  -0.176525  0  3.935156  0
C  C61  1  0.59084159  0.55987401  0.28714032  1  0  -0.161234  0  3.699437  0  0  -0.181522  0  3.949016  0  0  -0.189277  0  3.96912  0  0  -0.083856  -0.176494  0  3.935282  0
C  C62  1  0.99088087  0.77877046  0.97889524  1  0  0.03689  0  3.630399  0  0  -0.023215  0  3.890121  0  0  -0.015612  0  3.89404  0  0  -0.056827  -0.02854  0  3.887283  0
C  C63  1  0.00912083  0.22122688  0.02110527  1  0  0.037054  0  3.630298  0  0  -0.023079  0  3.890032  0  0  -0.015481  0  3.89396  0  0  -0.056787  -0.028401  0  3.88719  0
C  C64  1  0.98623233  0.90229585  0.08149621  1  0  0.105815  0  3.753586  0  0  0.118161  0  3.996698  0  0  0.121509  0  4.020229  0  0  0.003921  0.116083  0  3.98052  0
C  C65  1  0.01376912  0.09770350  0.91850334  1  0  0.105762  0  3.753813  0  0  0.118178  0  3.99683  0  0  0.121527  0  4.020363  0  0  0.003968  0.1161  0  3.980651  0
C  C66  1  0.85232734  0.91237101  0.07753019  1  0  -0.163772  0  3.714443  0  0  -0.183062  0  3.963382  0  0  -0.190659  0  3.98457  0  0  -0.083103  -0.178107  0  3.949209  0
C  C67  1  0.14767334  0.08762636  0.92247168  1  0  -0.163761  0  3.714546  0  0  -0.183068  0  3.963468  0  0  -0.190665  0  3.984657  0  0  -0.083105  -0.178113  0  3.949295  0
C  C68  1  0.84956669  0.02650818  0.17301536  1  0  0.132645  0  3.728841  0  0  0.104391  0  3.983386  0  0  0.111238  0  4.001755  0  0  0.050071  0.100031  0  3.9707  0
C  C69  1  0.15043376  0.97349118  0.82698394  1  0  0.132693  0  3.728809  0  0  0.104425  0  3.983366  0  0  0.111272  0  4.001735  0  0  0.050066  0.100065  0  3.970679  0
C  C70  1  0.09907326  0.11878459  0.27455347  1  0  0.131478  0  3.724801  0  0  0.102136  0  3.981789  0  0  0.10946  0  3.999736  0  0  0.049903  0.097429  0  3.969425  0
C  C71  1  0.90092719  0.88121478  0.72544584  1  0  0.131589  0  3.724721  0  0  0.10225  0  3.981714  0  0  0.109576  0  3.99966  0  0  0.049966  0.097544  0  3.96935  0
C  C72  1  0.11186674  0.00851744  0.18199770  1  0  -0.173439  0  3.727929  0  0  -0.191442  0  3.976621  0  0  -0.199857  0  3.999135  0  0  -0.084057  -0.185949  0  3.961232  0
C  C73  1  0.88813510  0.99148293  0.81800151  1  0  -0.173538  0  3.728015  0  0  -0.191562  0  3.97669  0  0  -0.199976  0  3.999202  0  0  -0.084109  -0.186069  0  3.961301  0
C  C74  1  0.71409789  0.14487647  0.44891344  1  0  0.608626  0  3.975733  0  0  0.56321  0  4.265795  0  0  0.596808  0  4.260697  0  0  0.180777  0.540666  0  4.267952  0
C  C75  1  0.28589976  0.85512089  0.55108523  1  0  0.608649  0  3.975851  0  0  0.563223  0  4.265925  0  0  0.596821  0  4.260826  0  0  0.180785  0.540677  0  4.268084  0
C  C76  1  0.60228908  0.06946264  0.47390416  1  0  -0.051046  0  3.762663  0  0  -0.027053  0  3.98955  0  0  -0.033615  0  4.012282  0  0  -0.021225  -0.022886  0  3.974131  0
C  C77  1  0.39770934  0.93053675  0.52609544  1  0  -0.051059  0  3.762611  0  0  -0.027069  0  3.989499  0  0  -0.033631  0  4.012231  0  0  -0.021208  -0.022901  0  3.97408  0
C  C78  1  0.63120384  0.97786373  0.51802142  1  0  -0.087442  0  3.762279  0  0  -0.109484  0  4.012339  0  0  -0.110879  0  4.03402  0  0  -0.093242  -0.108542  0  3.997706  0
C  C79  1  0.36879497  0.02213667  0.48197864  1  0  -0.087378  0  3.762256  0  0  -0.109403  0  4.012316  0  0  -0.110798  0  4.033998  0  0  -0.093188  -0.108463  0  3.997685  0
C  C80  1  0.47049942  0.09148725  0.45633995  1  0  -0.088089  0  3.760315  0  0  -0.110182  0  4.008287  0  0  -0.111523  0  4.028843  0  0  -0.091719  -0.109002  0  3.99428  0
C  C81  1  0.52949939  0.90851315  0.54366092  1  0  -0.08815  0  3.760203  0  0  -0.110238  0  4.008188  0  0  -0.111579  0  4.028743  0  0  -0.091747  -0.109058  0  3.994181  0
N  N82  1  0.15512339  0.32659059  0.57419160  1  0  -0.353016  0  3.281213  0  0  -0.278037  0  3.54971  0  0  -0.30031  0  3.572034  0  0  -0.331888  -0.262946  0  3.53405  0
N  N83  1  0.84487177  0.67341085  0.42580789  1  0  -0.353061  0  3.281455  0  0  -0.278088  0  3.549952  0  0  -0.30036  0  3.57227  0  0  -0.331924  -0.262995  0  3.534287  0
N  N84  1  0.97069693  0.12785415  0.27055350  1  0  -0.319223  0  3.237751  0  0  -0.254182  0  3.504562  0  0  -0.272571  0  3.52341  0  0  -0.321747  -0.241657  0  3.491394  0
N  N85  1  0.02930375  0.87214319  0.72944594  1  0  -0.319282  0  3.237705  0  0  -0.254253  0  3.504531  0  0  -0.272642  0  3.523379  0  0  -0.321775  -0.241727  0  3.491362  0
O  O86  1  0.82224562  0.32330983  0.23868557  1  0  -0.625313  0  1.940446  0  0  -0.569595  0  2.172354  0  0  -0.596483  0  2.163296  0  0  -0.334555  -0.550924  0  2.177723  0
O  O87  1  0.17775319  0.67669058  0.76131530  1  0  -0.62526  0  1.940531  0  0  -0.569535  0  2.172424  0  0  -0.596428  0  2.163375  0  0  -0.334537  -0.550867  0  2.177797  0
O  O88  1  0.03897012  0.48036732  0.38710080  1  0  -0.677323  0  2.005412  0  0  -0.603523  0  2.258434  0  0  -0.634463  0  2.246519  0  0  -0.345109  -0.581823  0  2.265478  0
O  O89  1  0.96102729  0.51963208  0.61289935  1  0  -0.677325  0  2.005369  0  0  -0.603524  0  2.258381  0  0  -0.634464  0  2.246464  0  0  -0.345142  -0.581823  0  2.265425  0
O  O90  1  0.65895192  0.46734928  0.89689630  1  0  -0.260367  0  2.363247  0  0  -0.192946  0  2.60091  0  0  -0.208683  0  2.602143  0  0  -0.176066  -0.181835  0  2.599283  0
O  O91  1  0.34104954  0.53265007  0.10310245  1  0  -0.260355  0  2.363364  0  0  -0.192943  0  2.601013  0  0  -0.208681  0  2.602248  0  0  -0.176074  -0.181832  0  2.599384  0
O  O92  1  0.88063426  0.65935404  0.94627210  1  0  -0.253318  0  2.329506  0  0  -0.190729  0  2.56439  0  0  -0.207558  0  2.566243  0  0  -0.172829  -0.178704  0  2.562567  0
O  O93  1  0.11936782  0.34064430  0.05372806  1  0  -0.253328  0  2.329524  0  0  -0.190741  0  2.56442  0  0  -0.207571  0  2.566274  0  0  -0.17281  -0.178718  0  2.562596  0
O  O94  1  0.82776375  0.11415735  0.45816156  1  0  -0.647919  0  1.97031  0  0  -0.59358  0  2.208771  0  0  -0.621236  0  2.200949  0  0  -0.337263  -0.574165  0  2.21318  0
O  O95  1  0.17223289  0.88584001  0.54183523  1  0  -0.647939  0  1.970323  0  0  -0.593604  0  2.208799  0  0  -0.621263  0  2.200978  0  0  -0.337291  -0.574185  0  2.213203  0
O  O96  1  0.69354545  0.23821108  0.42213884  1  0  -0.631279  0  1.909545  0  0  -0.573632  0  2.132981  0  0  -0.600638  0  2.121901  0  0  -0.344971  -0.554731  0  2.139791  0
O  O97  1  0.30645158  0.76178730  0.57785923  1  0  -0.631271  0  1.90969  0  0  -0.573621  0  2.133134  0  0  -0.600626  0  2.122056  0  0  -0.344948  -0.554718  0  2.139945  0
