# generated using pymatgen
data_ZnH14C18N4(ClO)2
_symmetry_space_group_name_H-M   'P 1'
_cell_length_a   8.61232169
_cell_length_b   9.48869971
_cell_length_c   13.50282443
_cell_angle_alpha   73.75898267
_cell_angle_beta   72.79704922
_cell_angle_gamma   66.56076283
_symmetry_Int_Tables_number   1
_chemical_formula_structural   ZnH14C18N4(ClO)2
_chemical_formula_sum   'Zn2 H28 C36 N8 Cl4 O4'
_cell_volume   950.43086486
_cell_formula_units_Z   2
loop_
 _symmetry_equiv_pos_site_id
 _symmetry_equiv_pos_as_xyz
  1  'x, y, z'
loop_
 _atom_site_type_symbol
 _atom_site_label
 _atom_site_symmetry_multiplicity
 _atom_site_fract_x
 _atom_site_fract_y
 _atom_site_fract_z
 _atom_site_occupancy
 _atom_site_pbe_bader_spin_density
 _atom_site_pbe_cm5_charge
 _atom_site_pbe_ddec_charge
 _atom_site_pbe_ddec_spin_density
 _atom_site_pbe_ddec_sum_bond_order
 _atom_site_pbe_magmom
Zn  Zn0  1  0.48829394  0.44785001  0.26528713  1  0  0.566228  0.630809  0  2.651737  0
Zn  Zn1  1  0.51170537  0.55215233  0.73471465  1  0  0.566281  0.630899  0  2.65162  0
H  H2  1  0.81051787  0.43441189  0.10384574  1  0  0.116676  0.09248  0  0.992569  0
H  H3  1  0.18948069  0.56558928  0.89615419  1  0  0.116683  0.092493  0  0.992565  0
H  H4  1  0.12176238  0.38229295  0.09970863  1  0  0.112374  0.127142  0  0.994969  0
H  H5  1  0.87823707  0.61770588  0.90029011  1  0  0.112384  0.127168  0  0.99495  0
H  H6  1  0.21868858  0.30456547  0.27003035  1  0  0.09602  0.109046  0  1.057161  0
H  H7  1  0.78131331  0.69543333  0.72996795  1  0  0.096018  0.109055  0  1.057155  0
H  H8  1  0.69172892  0.34467653  0.43160048  1  0  0.114161  0.104512  0  1.033944  0
H  H9  1  0.30827294  0.65532228  0.56840005  1  0  0.114151  0.104496  0  1.033949  0
H  H10  1  0.12842097  0.29106756  0.45760421  1  0  0.289832  0.26828  0  1.00056  0
H  H11  1  0.87157809  0.70892895  0.54239728  1  0  0.289821  0.268299  0  1.000556  0
H  H12  1  0.05208714  0.38721463  0.60812712  1  0  0.094018  0.099223  0  1.043283  0
H  H13  1  0.94790209  0.61278894  0.39187033  1  0  0.094046  0.099263  0  1.043312  0
H  H14  1  0.14636871  0.34494503  0.77491608  1  0  0.097114  0.093042  0  1.063703  0
H  H15  1  0.85362547  0.65505500  0.22508116  1  0  0.097107  0.093002  0  1.063753  0
H  H16  1  0.09382581  0.89071048  0.86732382  1  0  0.099639  0.097641  0  1.035781  0
H  H17  1  0.90617985  0.10928478  0.13267301  1  0  0.099641  0.097593  0  1.035844  0
H  H18  1  0.99250153  0.93674331  0.70389786  1  0  0.099969  0.098287  0  1.048523  0
H  H19  1  0.00750255  0.06324964  0.29609971  1  0  0.099974  0.09831  0  1.048409  0
H  H20  1  0.29495803  0.86392720  0.93633854  1  0  0.289663  0.26269  0  1.010867  0
H  H21  1  0.70504454  0.13607279  0.06366532  1  0  0.289659  0.262705  0  1.010757  0
H  H22  1  0.32572511  0.12255276  0.08527606  1  0  0.108705  0.123761  0  1.030737  0
H  H23  1  0.67428065  0.87745185  0.91472484  1  0  0.108714  0.123788  0  1.030704  0
H  H24  1  0.43558720  0.00822685  0.25295344  1  0  0.112835  0.12317  0  0.981532  0
H  H25  1  0.56441301  0.99177315  0.74704716  1  0  0.112835  0.123186  0  0.981381  0
H  H26  1  0.49091745  0.72416153  0.32862764  1  0  0.120291  0.097877  0  0.983708  0
H  H27  1  0.50907933  0.27584433  0.67137465  1  0  0.120297  0.097869  0  0.983719  0
H  H28  1  0.34334330  0.66242833  0.08189171  1  0  0.107873  0.097086  0  1.0299  0
H  H29  1  0.65665798  0.33757516  0.91811097  1  0  0.10792  0.097182  0  1.029808  0
C  C30  1  0.85873427  0.40155316  0.17603207  1  0  0.040084  0.068677  0  3.941876  0
C  C31  1  0.14126394  0.59844569  0.82396837  1  0  0.040073  0.068668  0  3.941857  0
C  C32  1  0.03068417  0.37248983  0.17453527  1  0  -0.075186  -0.095433  0  3.976826  0
C  C33  1  0.96931484  0.62751017  0.82546406  1  0  -0.075234  -0.095531  0  3.976911  0
C  C34  1  0.08406413  0.32896898  0.26966161  1  0  -0.069297  -0.127537  0  3.905833  0
C  C35  1  0.91593576  0.67102867  0.73033728  1  0  -0.069274  -0.127493  0  3.905823  0
C  C36  1  0.96402958  0.31581059  0.36481975  1  0  0.109369  0.214753  0  4.015454  0
C  C37  1  0.03597194  0.68418589  0.63517982  1  0  0.109399  0.214824  0  4.015367  0
C  C38  1  0.79153873  0.35027833  0.36055267  1  0  0.046955  -0.000166  0  3.868084  0
C  C39  1  0.20846194  0.64972048  0.63944585  1  0  0.046973  -0.000138  0  3.867942  0
C  C40  1  0.94925352  0.18631956  0.55041691  1  0  0.246452  0.491965  0  4.095337  0
C  C41  1  0.05074433  0.81367696  0.44958406  1  0  0.246555  0.492198  0  4.095051  0
C  C42  1  0.02033019  0.16191082  0.64464196  1  0  -0.007533  -0.014786  0  3.951842  0
C  C43  1  0.97966270  0.83808924  0.35535921  1  0  -0.007504  -0.014859  0  3.951753  0
C  C44  1  0.06412866  0.27759415  0.66415873  1  0  -0.088813  -0.104143  0  3.967294  0
C  C45  1  0.93586304  0.72240592  0.33584118  1  0  -0.088878  -0.104224  0  3.967287  0
C  C46  1  0.11685930  0.25471033  0.75700336  1  0  -0.084096  -0.087485  0  3.966007  0
C  C47  1  0.88313611  0.74528969  0.24299367  1  0  -0.084032  -0.087333  0  3.965944  0
C  C48  1  0.13117345  0.11496777  0.83046092  1  0  -0.017711  -0.034517  0  3.991546  0
C  C49  1  0.86882477  0.88503107  0.16953878  1  0  -0.017751  -0.03464  0  3.991683  0
C  C50  1  0.08944763  0.99847605  0.81012339  1  0  -0.090624  -0.112356  0  3.985403  0
C  C51  1  0.91055755  0.00152039  0.18987551  1  0  -0.090585  -0.112246  0  3.985416  0
C  C52  1  0.03199220  0.02318614  0.71863634  1  0  -0.081282  -0.080926  0  3.947614  0
C  C53  1  0.96801062  0.97680683  0.28136368  1  0  -0.081328  -0.080938  0  3.94762  0
C  C54  1  0.18242845  0.10142082  0.93018319  1  0  0.238773  0.475317  0  4.122992  0
C  C55  1  0.81757699  0.89858145  0.06981600  1  0  0.238712  0.4753  0  4.12295  0
C  C56  1  0.32275230  0.90230032  0.07109688  1  0  0.105524  0.214419  0  4.008838  0
C  C57  1  0.67725104  0.09770431  0.92890298  1  0  0.105437  0.214454  0  4.008759  0
C  C58  1  0.35176704  0.99968363  0.11988581  1  0  -0.069297  -0.124331  0  3.898393  0
C  C59  1  0.64823553  0.00031984  0.88011367  1  0  -0.069276  -0.124361  0  3.898425  0
C  C60  1  0.41290270  0.93547326  0.21293448  1  0  -0.075693  -0.094181  0  3.976026  0
C  C61  1  0.58709571  0.06453142  0.78706848  1  0  -0.075689  -0.094199  0  3.976151  0
C  C62  1  0.44559349  0.77757889  0.25508547  1  0  0.04618  0.084052  0  3.925016  0
C  C63  1  0.55440422  0.22242114  0.74491779  1  0  0.046189  0.084092  0  3.925205  0
C  C64  1  0.36016604  0.74387920  0.11768522  1  0  0.041525  -0.005952  0  3.882272  0
C  C65  1  0.63983891  0.25612425  0.88231679  1  0  0.041501  -0.006163  0  3.882267  0
N  N66  1  0.74269783  0.39144663  0.26779468  1  0  -0.337393  -0.213172  0  3.642145  0
N  N67  1  0.25730115  0.60855337  0.73220614  1  0  -0.337394  -0.213174  0  3.642001  0
N  N68  1  0.01734155  0.27270233  0.46016306  1  0  -0.398088  -0.379193  0  3.577746  0
N  N69  1  0.98265920  0.72729299  0.53983613  1  0  -0.398129  -0.379368  0  3.577765  0
N  N70  1  0.26165407  0.95096242  0.97778443  1  0  -0.399477  -0.380827  0  3.608749  0
N  N71  1  0.73835057  0.04903869  0.02221513  1  0  -0.399425  -0.38078  0  3.608626  0
N  N72  1  0.42070305  0.68388567  0.20690343  1  0  -0.334584  -0.205765  0  3.624734  0
N  N73  1  0.57929745  0.31611667  0.79309961  1  0  -0.334606  -0.205733  0  3.624786  0
Cl  Cl74  1  0.48761839  0.33986179  0.13631946  1  0  -0.286362  -0.486389  0  1.27379  0
Cl  Cl75  1  0.51237719  0.66014408  0.86368230  1  0  -0.286376  -0.486439  0  1.273797  0
Cl  Cl76  1  0.34157148  0.39723687  0.42974697  1  0  -0.307069  -0.478165  0  1.198217  0
Cl  Cl77  1  0.65842420  0.60276550  0.57025399  1  0  -0.307081  -0.478195  0  1.198187  0
O  O78  1  0.83728070  0.13335176  0.55421548  1  0  -0.284095  -0.467106  0  2.114629  0
O  O79  1  0.16271511  0.86664709  0.44578318  1  0  -0.28416  -0.467209  0  2.114521  0
O  O80  1  0.15318248  0.21822628  0.96638596  1  0  -0.293669  -0.481804  0  2.121292  0
O  O81  1  0.84682918  0.78177589  0.03360619  1  0  -0.293637  -0.481816  0  2.121044  0
