# generated using pymatgen
data_ZnH16C19NO4
_symmetry_space_group_name_H-M   'P 1'
_cell_length_a   9.69264095
_cell_length_b   11.06953824
_cell_length_c   17.69049686
_cell_angle_alpha   90.79277871
_cell_angle_beta   89.86780580
_cell_angle_gamma   89.76757969
_symmetry_Int_Tables_number   1
_chemical_formula_structural   ZnH16C19NO4
_chemical_formula_sum   'Zn2 H32 C38 N2 O8'
_cell_volume   1897.86492739
_cell_formula_units_Z   2
loop_
 _symmetry_equiv_pos_site_id
 _symmetry_equiv_pos_as_xyz
  1  'x, y, z'
loop_
 _atom_site_type_symbol
 _atom_site_label
 _atom_site_symmetry_multiplicity
 _atom_site_fract_x
 _atom_site_fract_y
 _atom_site_fract_z
 _atom_site_occupancy
 _atom_site_pbe_bader_charge
 _atom_site_pbe_bader_spin_density
 _atom_site_pbe_cm5_charge
 _atom_site_pbe_ddec_charge
 _atom_site_pbe_ddec_spin_density
 _atom_site_pbe_ddec_sum_bond_order
 _atom_site_pbe_magmom
Zn  Zn0  1  0.36394843  0.48742095  0.49665774  1  1.270078  0  0.664234  0.80476  0  2.467015  0
Zn  Zn1  1  0.64578490  0.48849322  0.49742243  1  1.274589  0  0.662342  0.808795  0  2.446195  0
H  H2  1  0.72896175  0.09513423  0.46312757  1  0.098834  0  0.099343  0.104199  0  1.005921  0
H  H3  1  0.27505737  0.51782684  0.25728845  1  0.07445  0  0.1006  0.107228  0  1.011556  0
H  H4  1  0.87395485  0.70085621  0.61879512  1  0.09425  0  0.113626  0.137535  0  0.964041  0
H  H5  1  0.71135961  0.57999921  0.26343301  1  0.084721  0  0.102261  0.107494  0  1.003724  0
H  H6  1  0.70986243  0.62178011  0.12454243  1  0.068999  0  0.102431  0.104075  0  0.996577  0
H  H7  1  0.34646485  0.43094982  0.89456586  1  0.058535  0  0.10188  0.104965  0  1.035357  0
H  H8  1  0.65011526  0.65323050  0.71943830  1  0.052227  0  0.102312  0.102636  0  1.00784  0
H  H9  1  0.64913145  0.70725619  0.85708625  1  0.057868  0  0.103803  0.108838  0  0.992294  0
H  H10  1  0.72577862  0.87066199  0.47002367  1  0.07853  0  0.099599  0.104538  0  1.004877  0
H  H11  1  0.98520557  0.45155083  0.05376393  1  0.029279  0  0.083802  0.109524  0  1.005542  0
H  H12  1  0.08680197  0.49100575  0.97434344  1  0.015659  0  0.082422  0.106466  0  1.010795  0
H  H13  1  0.21932345  0.11445009  0.57754370  1  0.060628  0  0.093278  0.101038  0  0.999157  0
H  H14  1  0.06157064  0.33647591  0.99640944  1  0.0323  0  0.084836  0.10993  0  1.007196  0
H  H15  1  0.29872648  0.40481467  0.03659115  1  0.02654  0  0.085817  0.074494  0  0.99532  0
H  H16  1  0.19967250  0.36286633  0.11561684  1  -0.000741  0  0.086157  0.073996  0  0.9761  0
H  H17  1  0.14533344  0.57780574  0.14490305  1  0.009847  0  0.091191  0.088274  0  0.977447  0
H  H18  1  0.23184469  0.62330940  0.06170438  1  0.026267  0  0.0913  0.091172  0  0.988447  0
H  H19  1  0.87153505  0.56335052  0.67070790  1  0.100411  0  0.112182  0.136795  0  0.976148  0
H  H20  1  0.08936475  0.19997874  0.73172925  1  0.017874  0  0.083292  0.107419  0  1.00589  0
H  H21  1  0.23822006  0.10624594  0.73560868  1  0.011872  0  0.084311  0.108652  0  1.008173  0
H  H22  1  0.11857820  0.10863517  0.81188805  1  0.02709  0  0.085723  0.111243  0  1.004499  0
H  H23  1  0.32819793  0.23075102  0.84566799  1  -0.002042  0  0.0889  0.077785  0  0.97157  0
H  H24  1  0.17716068  0.10678629  0.47959001  1  0.050541  0  0.092137  0.099364  0  0.99101  0
H  H25  1  0.17962149  0.32317781  0.84233664  1  0.012767  0  0.087081  0.073181  0  0.987269  0
H  H26  1  0.24204847  0.38502728  0.71035397  1  0.059265  0  0.091859  0.092297  0  0.999905  0
H  H27  1  0.38482044  0.28945304  0.71082987  1  0.013332  0  0.098427  0.103881  0  0.959859  0
H  H28  1  0.21518548  0.88801115  0.58361997  1  0.020917  0  0.090237  0.092763  0  1.005756  0
H  H29  1  0.17328143  0.87886036  0.48535660  1  0.052592  0  0.094494  0.104884  0  0.984963  0
H  H30  1  0.87498181  0.38917738  0.39680606  1  0.167558  0  0.138435  0.120851  0  0.962092  0
H  H31  1  0.13602786  0.38806189  0.39707618  1  0.149272  0  0.137352  0.121212  0  0.968862  0
H  H32  1  0.13397139  0.56058853  0.67195354  1  0.081439  0  0.111416  0.136207  0  0.984703  0
H  H33  1  0.13661694  0.69747760  0.62017923  1  0.112723  0  0.111095  0.131145  0  0.985422  0
C  C34  1  0.51002427  0.72434408  0.50173655  1  1.539895  0  0.212592  0.596012  0  4.181914  0
C  C35  1  0.49635241  0.57246281  0.88455138  1  0.113476  0  -0.005142  0.144095  0  4.14231  0
C  C36  1  0.39124292  0.92832959  0.50783365  1  -0.055029  0  -0.007684  0.057386  0  3.887969  0
C  C37  1  0.49957320  0.49169712  0.64586294  1  1.552172  0  0.214895  0.597041  0  4.180927  0
C  C38  1  0.50961351  0.85855791  0.49665478  1  0.066336  0  -0.014724  -0.070631  0  3.977199  0
C  C39  1  0.63146732  0.92254236  0.48006476  1  -0.042091  0  -0.089937  -0.108004  0  3.999763  0
C  C40  1  0.63319479  0.04831499  0.47606796  1  -0.075306  0  -0.0893  -0.104681  0  3.999761  0
C  C41  1  0.51332297  0.11835475  0.48918163  1  0.03866  0  -0.016284  -0.074455  0  3.977353  0
C  C42  1  0.39332324  0.05421670  0.50458671  1  0.002563  0  -0.006758  0.060452  0  3.890458  0
C  C43  1  0.24148389  0.06696924  0.52388883  1  -0.025546  0  -0.154369  -0.196486  0  3.891126  0
C  C44  1  0.23890223  0.92420545  0.52749771  1  -0.041607  0  -0.154393  -0.198558  0  3.892268  0
C  C45  1  0.49125203  0.58974028  0.11238261  1  0.092636  0  0.000163  0.08482  0  4.08341  0
C  C46  1  0.93267503  0.53970367  0.55150832  1  0.589136  0  0.149417  0.202078  0  3.856192  0
C  C47  1  0.93324787  0.43273109  0.44211386  1  0.484625  0  0.06754  0.044841  0  3.872282  0
C  C48  1  0.07713265  0.43162310  0.44242105  1  0.426115  0  0.066015  0.041267  0  3.87359  0
C  C49  1  0.51509114  0.25287355  0.48921237  1  1.492793  0  0.21366  0.596927  0  4.178762  0
C  C50  1  0.07655402  0.53801420  0.55209278  1  0.537239  0  0.148204  0.198324  0  3.858135  0
C  C51  1  0.08615269  0.60944102  0.62524982  1  -0.047165  0  -0.136629  -0.225101  0  3.817358  0
C  C52  1  0.92195112  0.61149829  0.62450565  1  -0.021788  0  -0.137636  -0.230259  0  3.816393  0
C  C53  1  0.49517250  0.51290859  0.34989449  1  1.557194  0  0.212169  0.59181  0  4.167796  0
C  C54  1  0.36537152  0.56305313  0.14991114  1  -0.036376  0  -0.000344  0.080481  0  3.917487  0
C  C55  1  0.36980618  0.53983425  0.22711868  1  -0.016543  0  -0.086278  -0.152769  0  3.959799  0
C  C56  1  0.49398270  0.59933500  0.03267391  1  -0.205083  0  -0.044143  -0.10062  0  4.140985  0
C  C57  1  0.49372820  0.54289277  0.26774771  1  0.042394  0  -0.019733  -0.025632  0  3.983721  0
C  C58  1  0.61623615  0.57496530  0.23088536  1  -0.044886  0  -0.090625  -0.101834  0  4.012151  0
C  C59  1  0.61494792  0.59859074  0.15409095  1  -0.070429  0  -0.087368  -0.127155  0  3.98389  0
C  C60  1  0.23192090  0.55542920  0.10667082  1  0.011329  0  -0.160274  -0.193923  0  3.967654  0
C  C61  1  0.20737163  0.43015118  0.07050744  1  0.012195  0  -0.164037  -0.086351  0  3.958349  0
C  C62  1  0.07822660  0.42689426  0.02112661  1  -0.084042  0  -0.24532  -0.356239  0  3.990898  0
C  C63  1  0.32069160  0.34721152  0.74832175  1  -0.00562  0  -0.158853  -0.193932  0  3.95412  0
C  C64  1  0.25031732  0.26810328  0.80700806  1  0.021929  0  -0.165964  -0.090433  0  3.975904  0
C  C65  1  0.16963820  0.16504746  0.76964938  1  -0.060413  0  -0.243927  -0.355375  0  3.989662  0
C  C66  1  0.49625485  0.59412250  0.96365030  1  -0.210667  0  -0.046551  -0.11475  0  4.112659  0
C  C67  1  0.41097031  0.48005466  0.85505124  1  -0.048755  0  -0.089257  -0.191568  0  3.914228  0
C  C68  1  0.40957393  0.44929724  0.77836883  1  -0.020337  0  -0.003277  0.104766  0  3.94129  0
C  C69  1  0.49788787  0.51385807  0.72972023  1  -0.010944  0  -0.015528  -0.079338  0  3.932315  0
C  C70  1  0.58344573  0.60514540  0.75851607  1  -0.022344  0  -0.091806  -0.102713  0  4.033409  0
C  C71  1  0.58288487  0.63574003  0.83502936  1  0.001897  0  -0.092699  -0.14311  0  3.984327  0
N  N72  1  0.85777716  0.48808483  0.49748432  1  -1.213765  0  -0.287884  -0.174414  0  3.466776  0
N  N73  1  0.15203986  0.48525703  0.49831597  1  -1.204915  0  -0.287325  -0.174856  0  3.466884  0
O  O74  1  0.39355108  0.67180549  0.49582147  1  -1.16226  0  -0.316374  -0.542108  0  2.300347  0
O  O75  1  0.62619670  0.67250029  0.51152186  1  -1.163646  0  -0.321861  -0.552208  0  2.319188  0
O  O76  1  0.38301433  0.49440675  0.61284893  1  -1.164619  0  -0.309413  -0.544825  0  2.346443  0
O  O77  1  0.61628347  0.47615677  0.61396599  1  -1.161165  0  -0.317678  -0.549189  0  2.292371  0
O  O78  1  0.39853906  0.30529399  0.49800521  1  -1.157867  0  -0.315735  -0.542969  0  2.325682  0
O  O79  1  0.63104615  0.30561830  0.48191391  1  -1.165858  0  -0.322656  -0.551329  0  2.312279  0
O  O80  1  0.38001863  0.48694083  0.38073407  1  -1.165481  0  -0.323935  -0.556676  0  2.322898  0
O  O81  1  0.61154937  0.51579199  0.38347871  1  -1.166508  0  -0.321127  -0.555443  0  2.319985  0
