# generated using pymatgen
data_SmH6C3(NO)6
_symmetry_space_group_name_H-M   'P 1'
_cell_length_a   8.99870620
_cell_length_b   10.20422813
_cell_length_c   12.79882212
_cell_angle_alpha   90.00016348
_cell_angle_beta   90.00051580
_cell_angle_gamma   106.65460018
_symmetry_Int_Tables_number   1
_chemical_formula_structural   SmH6C3(NO)6
_chemical_formula_sum   'Sm4 H24 C12 N24 O24'
_cell_volume   1125.94807154
_cell_formula_units_Z   4
loop_
 _symmetry_equiv_pos_site_id
 _symmetry_equiv_pos_as_xyz
  1  'x, y, z'
loop_
 _atom_site_type_symbol
 _atom_site_label
 _atom_site_symmetry_multiplicity
 _atom_site_fract_x
 _atom_site_fract_y
 _atom_site_fract_z
 _atom_site_occupancy
 _atom_site_hle17_bader_spin_density
 _atom_site_hle17_ddec_charge
 _atom_site_hle17_ddec_spin_density
 _atom_site_hle17_ddec_sum_bond_order
 _atom_site_hle17_magmom
 _atom_site_hse06_10hf_bader_spin_density
 _atom_site_hse06_10hf_ddec_charge
 _atom_site_hse06_10hf_ddec_spin_density
 _atom_site_hse06_10hf_ddec_sum_bond_order
 _atom_site_hse06_10hf_magmom
 _atom_site_hse06_bader_spin_density
 _atom_site_hse06_ddec_charge
 _atom_site_hse06_ddec_spin_density
 _atom_site_hse06_ddec_sum_bond_order
 _atom_site_hse06_magmom
 _atom_site_pbe_bader_spin_density
 _atom_site_pbe_cm5_charge
 _atom_site_pbe_ddec_charge
 _atom_site_pbe_ddec_spin_density
 _atom_site_pbe_ddec_sum_bond_order
 _atom_site_pbe_magmom
Sm  Sm0  1  0.22072954  0.13126116  0.32203283  1  0  2.152799  0  1.708716  0  0  1.947523  0  2.222324  0  0  1.994875  0  2.180102  0  0  1.523871  1.912483  0  2.253703  0
Sm  Sm1  1  0.72073121  0.13125619  0.67796638  1  0  2.15281  0  1.708709  0  0  1.947497  0  2.222399  0  0  1.994866  0  2.180151  0  0  1.523871  1.912499  0  2.253716  0
Sm  Sm2  1  0.85520482  0.57356901  0.17415144  1  0  2.33754  0  1.520574  0  0  2.240618  0  1.863206  0  0  2.277433  0  1.823689  0  0  1.508565  2.146964  0  2.015275  0
Sm  Sm3  1  0.35519186  0.57355846  0.82585203  1  0  2.337504  0  1.520563  0  0  2.240585  0  1.863184  0  0  2.277402  0  1.823668  0  0  1.508566  2.146965  0  2.015204  0
H  H4  1  0.85815308  0.51706360  0.42294615  1  0  0.423213  0  0.879642  0  0  0.381155  0  0.960942  0  0  0.392603  0  0.944279  0  0  0.30478  0.372335  0  0.973761  0
H  H5  1  0.35814547  0.51705826  0.57705407  1  0  0.423129  0  0.879765  0  0  0.381096  0  0.961027  0  0  0.392542  0  0.944367  0  0  0.304776  0.372275  0  0.973845  0
H  H6  1  0.82137977  0.65784216  0.39410840  1  0  0.464081  0  0.787272  0  0  0.448308  0  0.828046  0  0  0.457404  0  0.81474  0  0  0.338728  0.441046  0  0.838691  0
H  H7  1  0.32137224  0.65783601  0.60589819  1  0  0.464102  0  0.7872  0  0  0.448321  0  0.828029  0  0  0.457423  0  0.814713  0  0  0.338699  0.441055  0  0.838683  0
H  H8  1  0.91934084  0.85146943  0.26948888  1  0  0.452657  0  0.839149  0  0  0.418569  0  0.908085  0  0  0.429768  0  0.891396  0  0  0.314432  0.410692  0  0.919507  0
H  H9  1  0.41934003  0.85145891  0.73051567  1  0  0.452646  0  0.839204  0  0  0.418583  0  0.908092  0  0  0.42978  0  0.891406  0  0  0.31446  0.410707  0  0.919513  0
H  H10  1  0.74251871  0.83719229  0.24223501  1  0  0.468264  0  0.773049  0  0  0.452594  0  0.814766  0  0  0.460518  0  0.803417  0  0  0.350755  0.445705  0  0.824701  0
H  H11  1  0.24252116  0.83719324  0.75777073  1  0  0.468254  0  0.773081  0  0  0.45263  0  0.814722  0  0  0.460557  0  0.803367  0  0  0.350767  0.445744  0  0.824655  0
H  H12  1  0.89652393  0.35168210  0.00526154  1  0  0.42349  0  0.872248  0  0  0.382109  0  0.952745  0  0  0.393247  0  0.93646  0  0  0.301872  0.37319  0  0.965593  0
H  H13  1  0.39652814  0.35168583  0.99474243  1  0  0.423548  0  0.872173  0  0  0.382163  0  0.952677  0  0  0.393302  0  0.93639  0  0  0.301901  0.373245  0  0.965524  0
H  H14  1  0.94179979  0.49717756  0.95444530  1  0  0.451539  0  0.826751  0  0  0.426192  0  0.881483  0  0  0.436353  0  0.866355  0  0  0.314013  0.418494  0  0.892839  0
H  H15  1  0.44180271  0.49718344  0.04555540  1  0  0.451491  0  0.826795  0  0  0.426143  0  0.881546  0  0  0.436305  0  0.866418  0  0  0.313982  0.418446  0  0.8929  0
H  H16  1  0.08238656  0.48030912  0.30746038  1  0  0.403567  0  0.915256  0  0  0.360146  0  0.999799  0  0  0.371711  0  0.983018  0  0  0.300172  0.351965  0  1.011396  0
H  H17  1  0.58238368  0.48030333  0.69254349  1  0  0.403595  0  0.915232  0  0  0.360143  0  0.999803  0  0  0.371708  0  0.983023  0  0  0.300165  0.351964  0  1.011399  0
H  H18  1  0.15827194  0.47252948  0.19806070  1  0  0.463918  0  0.792809  0  0  0.443843  0  0.839949  0  0  0.453547  0  0.825577  0  0  0.327411  0.436343  0  0.850963  0
H  H19  1  0.65826266  0.47252053  0.80194441  1  0  0.463909  0  0.792799  0  0  0.443828  0  0.839965  0  0  0.453533  0  0.825593  0  0  0.327411  0.436328  0  0.850978  0
H  H20  1  0.70114675  0.67340933  0.98140896  1  0  0.448678  0  0.833002  0  0  0.424443  0  0.88364  0  0  0.434533  0  0.868778  0  0  0.314895  0.417012  0  0.894412  0
H  H21  1  0.20114778  0.67341711  0.01859300  1  0  0.448607  0  0.83311  0  0  0.424391  0  0.883725  0  0  0.43448  0  0.868863  0  0  0.314893  0.41696  0  0.894497  0
H  H22  1  0.83352301  0.79230615  0.02453162  1  0  0.403219  0  0.916232  0  0  0.359366  0  1.002588  0  0  0.371003  0  0.98576  0  0  0.2904  0.350841  0  1.014674  0
H  H23  1  0.33352770  0.79230560  0.97546755  1  0  0.403253  0  0.91617  0  0  0.359407  0  1.002522  0  0  0.371044  0  0.985695  0  0  0.290417  0.350883  0  1.014608  0
H  H24  1  0.99656120  0.12430951  0.13924032  1  0  0.398034  0  0.923573  0  0  0.353518  0  1.010261  0  0  0.364734  0  0.994036  0  0  0.28911  0.345628  0  1.021654  0
H  H25  1  0.49657401  0.12431410  0.86076139  1  0  0.398058  0  0.923547  0  0  0.353528  0  1.010255  0  0  0.364745  0  0.99403  0  0  0.289099  0.345637  0  1.021646  0
H  H26  1  0.92157089  0.17567366  0.23813753  1  0  0.390299  0  0.937041  0  0  0.344926  0  1.025246  0  0  0.355968  0  1.009499  0  0  0.289255  0.337176  0  1.036273  0
H  H27  1  0.42157417  0.17567051  0.76186305  1  0  0.390216  0  0.937156  0  0  0.344845  0  1.025371  0  0  0.355889  0  1.009622  0  0  0.289209  0.337095  0  1.036399  0
C  C28  1  0.45982507  0.19607367  0.52104963  1  0  0.143273  0  3.869815  0  0  0.123543  0  4.141308  0  0  0.126823  0  4.157778  0  0  0.212555  0.121317  0  4.129997  0
C  C29  1  0.95982030  0.19607970  0.47894577  1  0  0.143065  0  3.869973  0  0  0.123311  0  4.141476  0  0  0.126592  0  4.157948  0  0  0.212507  0.121088  0  4.130158  0
C  C30  1  0.43067675  0.04624616  0.50710276  1  0  0.642271  0  3.968101  0  0  0.593819  0  4.272345  0  0  0.628309  0  4.260242  0  0  0.221049  0.570461  0  4.279632  0
C  C31  1  0.93068145  0.04624384  0.49288193  1  0  0.642444  0  3.968257  0  0  0.594027  0  4.272431  0  0  0.628515  0  4.260328  0  0  0.22107  0.570669  0  4.279718  0
C  C32  1  0.26507108  0.97021604  0.09566081  1  0  0.14103  0  3.794962  0  0  0.123604  0  4.064057  0  0  0.125136  0  4.080711  0  0  0.213506  0.122248  0  4.053784  0
C  C33  1  0.76507030  0.97021489  0.90433992  1  0  0.140923  0  3.794868  0  0  0.123623  0  4.063893  0  0  0.125141  0  4.080551  0  0  0.21357  0.122266  0  4.053626  0
C  C34  1  0.15362419  0.86345992  0.15789184  1  0  0.673578  0  3.889287  0  0  0.623613  0  4.183785  0  0  0.65894  0  4.171981  0  0  0.248001  0.599701  0  4.188131  0
C  C35  1  0.65362284  0.86345625  0.84210872  1  0  0.673827  0  3.889  0  0  0.623722  0  4.18368  0  0  0.659074  0  4.171849  0  0  0.248071  0.599812  0  4.188031  0
C  C36  1  0.57461771  0.30580164  0.24554509  1  0  0.144944  0  3.891433  0  0  0.12384  0  4.166931  0  0  0.127352  0  4.182654  0  0  0.208306  0.122579  0  4.150931  0
C  C37  1  0.07461915  0.30578404  0.75445675  1  0  0.145091  0  3.891167  0  0  0.123917  0  4.166772  0  0  0.127434  0  4.18249  0  0  0.20818  0.122659  0  4.15077  0
C  C38  1  0.48679456  0.40390208  0.21987850  1  0  0.645121  0  3.943266  0  0  0.595058  0  4.25123  0  0  0.629937  0  4.237995  0  0  0.228657  0.571484  0  4.256432  0
C  C39  1  0.98679673  0.40389168  0.78011523  1  0  0.644915  0  3.943454  0  0  0.594799  0  4.251553  0  0  0.629677  0  4.238321  0  0  0.228549  0.571226  0  4.25675  0
N  N40  1  0.37880510  0.27161738  0.47535151  1  0  -0.373687  0  3.180166  0  0  -0.342545  0  3.475779  0  0  -0.354814  0  3.493687  0  0  -0.280691  -0.33404  0  3.463635  0
N  N41  1  0.87880839  0.27162255  0.52464747  1  0  -0.373421  0  3.180399  0  0  -0.342269  0  3.475998  0  0  -0.35454  0  3.493908  0  0  -0.280518  -0.333773  0  3.463861  0
N  N42  1  0.43718551  0.39801780  0.51397572  1  0  -0.059865  0  2.98368  0  0  -0.043254  0  3.26715  0  0  -0.043482  0  3.276637  0  0  -0.075857  -0.042777  0  3.261256  0
N  N43  1  0.93718895  0.39802164  0.48602472  1  0  -0.060064  0  2.98379  0  0  -0.043441  0  3.267262  0  0  -0.04367  0  3.27675  0  0  -0.076  -0.042967  0  3.261376  0
N  N44  1  0.55116027  0.39777166  0.57956258  1  0  -0.059608  0  3.038166  0  0  -0.030375  0  3.311225  0  0  -0.032162  0  3.321048  0  0  -0.072697  -0.029164  0  3.305043  0
N  N45  1  0.05116195  0.39777627  0.42044011  1  0  -0.059504  0  3.038076  0  0  -0.030259  0  3.311113  0  0  -0.032048  0  3.320935  0  0  -0.072622  -0.029048  0  3.304926  0
N  N46  1  0.56698697  0.27202647  0.58552240  1  0  -0.355432  0  3.192837  0  0  -0.315958  0  3.474219  0  0  -0.327316  0  3.490469  0  0  -0.291158  -0.308161  0  3.46343  0
N  N47  1  0.06698927  0.27203308  0.41447774  1  0  -0.355509  0  3.192832  0  0  -0.316049  0  3.474243  0  0  -0.327404  0  3.49049  0  0  -0.291232  -0.308245  0  3.463447  0
N  N48  1  0.29012665  0.10279615  0.12038008  1  0  -0.347052  0  3.160552  0  0  -0.311412  0  3.441875  0  0  -0.322662  0  3.460738  0  0  -0.255197  -0.303622  0  3.429189  0
N  N49  1  0.79012954  0.10279370  0.87961402  1  0  -0.347058  0  3.160348  0  0  -0.311435  0  3.441634  0  0  -0.322687  0  3.4605  0  0  -0.255257  -0.30365  0  3.428953  0
N  N50  1  0.38484835  0.17267120  0.04626505  1  0  -0.075928  0  2.995516  0  0  -0.054928  0  3.277146  0  0  -0.057737  0  3.289642  0  0  -0.073622  -0.052528  0  3.269071  0
N  N51  1  0.88484906  0.17266936  0.95373295  1  0  -0.075851  0  2.995409  0  0  -0.054848  0  3.277044  0  0  -0.057656  0  3.28954  0  0  -0.073596  -0.052447  0  3.268966  0
N  N52  1  0.41831182  0.08439202  0.98070885  1  0  -0.066151  0  3.036121  0  0  -0.040353  0  3.316806  0  0  -0.042357  0  3.327948  0  0  -0.073655  -0.038943  0  3.309534  0
N  N53  1  0.91830782  0.08438839  0.01929305  1  0  -0.066227  0  3.036215  0  0  -0.040464  0  3.316945  0  0  -0.042467  0  3.328085  0  0  -0.073675  -0.039049  0  3.309666  0
N  N54  1  0.34370835  0.95668462  0.00910698  1  0  -0.252508  0  3.027135  0  0  -0.218209  0  3.289576  0  0  -0.227431  0  3.301946  0  0  -0.194248  -0.211939  0  3.282183  0
N  N55  1  0.84370486  0.95668212  0.99089500  1  0  -0.252472  0  3.027338  0  0  -0.218193  0  3.289751  0  0  -0.227415  0  3.302121  0  0  -0.194279  -0.21192  0  3.28235  0
N  N56  1  0.72642536  0.32885134  0.22778146  1  0  -0.406721  0  3.161384  0  0  -0.380483  0  3.446733  0  0  -0.391644  0  3.461637  0  0  -0.309884  -0.363648  0  3.434239  0
N  N57  1  0.22642118  0.32883606  0.77222061  1  0  -0.406562  0  3.16121  0  0  -0.380286  0  3.446548  0  0  -0.391447  0  3.461453  0  0  -0.309814  -0.363455  0  3.43405  0
N  N58  1  0.75750196  0.21383366  0.25838189  1  0  -0.039877  0  3.055223  0  0  -0.00299  0  3.338057  0  0  -0.005898  0  3.349573  0  0  -0.067218  -0.001218  0  3.327846  0
N  N59  1  0.25750534  0.21382520  0.74161384  1  0  -0.040094  0  3.055244  0  0  -0.003218  0  3.338131  0  0  -0.006129  0  3.349648  0  0  -0.067288  -0.001442  0  3.327918  0
N  N60  1  0.62965767  0.12378990  0.29186415  1  0  -0.031489  0  2.860234  0  0  -0.03922  0  3.143533  0  0  -0.035738  0  3.153079  0  0  -0.078406  -0.041621  0  3.13825  0
N  N61  1  0.12966167  0.12377807  0.70813135  1  0  -0.031361  0  2.860046  0  0  -0.039075  0  3.143311  0  0  -0.035592  0  3.152863  0  0  -0.078372  -0.041477  0  3.138033  0
N  N62  1  0.51281926  0.18046032  0.28458271  1  0  -0.387205  0  3.22981  0  0  -0.343307  0  3.517007  0  0  -0.356603  0  3.535296  0  0  -0.287817  -0.334533  0  3.505058  0
N  N63  1  0.01281827  0.18044351  0.71541844  1  0  -0.387291  0  3.229353  0  0  -0.343367  0  3.516586  0  0  -0.356667  0  3.534874  0  0  -0.287701  -0.334598  0  3.504643  0
O  O64  1  0.83237851  0.57282591  0.36506816  1  0  -0.919487  0  1.848423  0  0  -0.875007  0  2.029529  0  0  -0.893635  0  1.997806  0  0  -0.63377  -0.853115  0  2.058582  0
O  O65  1  0.33237255  0.57281685  0.63493360  1  0  -0.91945  0  1.84855  0  0  -0.874989  0  2.029618  0  0  -0.893619  0  1.997902  0  0  -0.633746  -0.8531  0  2.058669  0
O  O66  1  0.81708388  0.78586899  0.25273615  1  0  -0.907813  0  1.817549  0  0  -0.867027  0  1.991369  0  0  -0.884083  0  1.958774  0  0  -0.613531  -0.846525  0  2.020295  0
O  O67  1  0.31707924  0.78586281  0.74726524  1  0  -0.907803  0  1.817586  0  0  -0.867077  0  1.991314  0  0  -0.884138  0  1.958723  0  0  -0.613575  -0.846577  0  2.020238  0
O  O68  1  0.90140199  0.44875562  0.01984661  1  0  -0.921234  0  1.833728  0  0  -0.87814  0  2.018181  0  0  -0.895339  0  1.983999  0  0  -0.635871  -0.856178  0  2.049736  0
O  O69  1  0.40140377  0.44875930  0.98015450  1  0  -0.921245  0  1.833785  0  0  -0.878142  0  2.018245  0  0  -0.895345  0  1.984065  0  0  -0.635865  -0.856184  0  2.049798  0
O  O70  1  0.07901539  0.50667927  0.23145497  1  0  -0.93394  0  1.85833  0  0  -0.89435  0  2.050672  0  0  -0.910971  0  2.015909  0  0  -0.64996  -0.872768  0  2.080767  0
O  O71  1  0.57901654  0.50668221  0.76854660  1  0  -0.933926  0  1.858248  0  0  -0.894298  0  2.05066  0  0  -0.910918  0  2.0159  0  0  -0.64993  -0.872716  0  2.080749  0
O  O72  1  0.79459822  0.68916345  0.02501892  1  0  -0.93275  0  1.893435  0  0  -0.89052  0  2.086671  0  0  -0.908194  0  2.052073  0  0  -0.665088  -0.868835  0  2.116853  0
O  O73  1  0.29459443  0.68916412  0.97497820  1  0  -0.932739  0  1.893519  0  0  -0.890534  0  2.086683  0  0  -0.908217  0  2.052107  0  0  -0.665124  -0.868852  0  2.116856  0
O  O74  1  0.01443227  0.14633742  0.21537082  1  0  -0.967008  0  2.031433  0  0  -0.908973  0  2.26539  0  0  -0.929359  0  2.233699  0  0  -0.690682  -0.894346  0  2.287327  0
O  O75  1  0.51444207  0.14634544  0.78463181  1  0  -0.966954  0  2.031498  0  0  -0.908917  0  2.265453  0  0  -0.929295  0  2.233728  0  0  -0.690609  -0.894294  0  2.287403  0
O  O76  1  0.33141203  0.98933337  0.43911687  1  0  -0.644292  0  1.963707  0  0  -0.601325  0  2.198657  0  0  -0.623425  0  2.186142  0  0  -0.362644  -0.585842  0  2.20714  0
O  O77  1  0.83140450  0.98933493  0.56087417  1  0  -0.644369  0  1.963588  0  0  -0.601408  0  2.198528  0  0  -0.623515  0  2.186014  0  0  -0.362651  -0.585923  0  2.207006  0
O  O78  1  0.50827631  0.99151943  0.56740267  1  0  -0.658754  0  1.958595  0  0  -0.608349  0  2.196662  0  0  -0.631755  0  2.184185  0  0  -0.369589  -0.591878  0  2.20523  0
O  O79  1  0.00827486  0.99152420  0.43260119  1  0  -0.658719  0  1.95902  0  0  -0.608336  0  2.197081  0  0  -0.631729  0  2.184597  0  0  -0.369547  -0.591867  0  2.205655  0
O  O80  1  0.12355803  0.90041277  0.24840402  1  0  -0.671234  0  2.057316  0  0  -0.609969  0  2.295452  0  0  -0.634224  0  2.282092  0  0  -0.347514  -0.592298  0  2.302384  0
O  O81  1  0.62354543  0.90040248  0.75159643  1  0  -0.671354  0  2.05712  0  0  -0.610073  0  2.295333  0  0  -0.63434  0  2.281964  0  0  -0.347593  -0.592398  0  2.302265  0
O  O82  1  0.08861020  0.74755790  0.11711508  1  0  -0.697138  0  2.03364  0  0  -0.642959  0  2.268385  0  0  -0.668032  0  2.25506  0  0  -0.36837  -0.61719  0  2.278553  0
O  O83  1  0.58860393  0.74755774  0.88287853  1  0  -0.697131  0  2.033517  0  0  -0.642917  0  2.268307  0  0  -0.668001  0  2.254982  0  0  -0.368341  -0.61715  0  2.278473  0
O  O84  1  0.56509533  0.51373235  0.17344727  1  0  -0.721859  0  1.942835  0  0  -0.675651  0  2.173957  0  0  -0.698501  0  2.158892  0  0  -0.371715  -0.650797  0  2.185833  0
O  O85  1  0.06508901  0.51372165  0.82655111  1  0  -0.721823  0  1.942852  0  0  -0.675579  0  2.173981  0  0  -0.698427  0  2.158917  0  0  -0.371714  -0.650727  0  2.185853  0
O  O86  1  0.34380426  0.36945374  0.24137452  1  0  -0.640502  0  1.95464  0  0  -0.59148  0  2.191223  0  0  -0.61483  0  2.179017  0  0  -0.331162  -0.575726  0  2.200082  0
O  O87  1  0.84380544  0.36943496  0.75862057  1  0  -0.640441  0  1.954772  0  0  -0.591388  0  2.191402  0  0  -0.614741  0  2.179201  0  0  -0.3311  -0.575633  0  2.200255  0
