# generated using pymatgen
data_NdH15C22S2(NO4)2
_symmetry_space_group_name_H-M   'P 1'
_cell_length_a   8.88763611
_cell_length_b   11.87622054
_cell_length_c   12.70982534
_cell_angle_alpha   105.83969773
_cell_angle_beta   108.76027722
_cell_angle_gamma   100.15133389
_symmetry_Int_Tables_number   1
_chemical_formula_structural   NdH15C22S2(NO4)2
_chemical_formula_sum   'Nd2 H30 C44 S4 N4 O16'
_cell_volume   1169.57554094
_cell_formula_units_Z   2
loop_
 _symmetry_equiv_pos_site_id
 _symmetry_equiv_pos_as_xyz
  1  'x, y, z'
loop_
 _atom_site_type_symbol
 _atom_site_label
 _atom_site_symmetry_multiplicity
 _atom_site_fract_x
 _atom_site_fract_y
 _atom_site_fract_z
 _atom_site_occupancy
 _atom_site_hle17_bader_spin_density
 _atom_site_hle17_ddec_charge
 _atom_site_hle17_ddec_spin_density
 _atom_site_hle17_ddec_sum_bond_order
 _atom_site_hle17_magmom
 _atom_site_hse06_10hf_bader_spin_density
 _atom_site_hse06_10hf_ddec_charge
 _atom_site_hse06_10hf_ddec_spin_density
 _atom_site_hse06_10hf_ddec_sum_bond_order
 _atom_site_hse06_10hf_magmom
 _atom_site_hse06_bader_spin_density
 _atom_site_hse06_ddec_charge
 _atom_site_hse06_ddec_spin_density
 _atom_site_hse06_ddec_sum_bond_order
 _atom_site_hse06_magmom
 _atom_site_pbe_bader_spin_density
 _atom_site_pbe_cm5_charge
 _atom_site_pbe_ddec_charge
 _atom_site_pbe_ddec_spin_density
 _atom_site_pbe_ddec_sum_bond_order
 _atom_site_pbe_magmom
Nd  Nd0  1  0.54294095  0.42469218  0.35631150  1  0  2.262621  0  1.682968  0  0  2.083632  0  2.161278  0  0  2.124482  0  2.116073  0  0  1.515389  2.053156  0  2.195229  0
Nd  Nd1  1  0.45706108  0.57531025  0.64369036  1  0  2.262639  0  1.683037  0  0  2.083623  0  2.161401  0  0  2.124467  0  2.11621  0  0  1.515393  2.053148  0  2.195348  0
H  H2  1  0.87988700  0.30033931  0.77647798  1  0  0.099408  0  0.959383  0  0  0.109382  0  1.025022  0  0  0.112563  0  1.022577  0  0  0.103823  0.107051  0  1.026866  0
H  H3  1  0.12011358  0.69965944  0.22352337  1  0  0.099397  0  0.959426  0  0  0.109341  0  1.025096  0  0  0.11252  0  1.022656  0  0  0.103807  0.10701  0  1.026936  0
H  H4  1  0.80691533  0.12067631  0.84475643  1  0  0.117201  0  0.926691  0  0  0.129322  0  0.981373  0  0  0.133004  0  0.978757  0  0  0.112387  0.126535  0  0.983436  0
H  H5  1  0.19308136  0.87932153  0.15524297  1  0  0.1172  0  0.92665  0  0  0.129366  0  0.981294  0  0  0.133048  0  0.978677  0  0  0.112415  0.126576  0  0.983354  0
H  H6  1  0.32480575  0.85789549  0.65016913  1  0  0.091884  0  0.964894  0  0  0.102113  0  1.029334  0  0  0.10559  0  1.026179  0  0  0.10906  0.09957  0  1.031618  0
H  H7  1  0.67518773  0.14210326  0.34982974  1  0  0.091777  0  0.965068  0  0  0.102029  0  1.029487  0  0  0.105508  0  1.026328  0  0  0.109007  0.099484  0  1.031769  0
H  H8  1  0.24448436  0.97740021  0.51747320  1  0  0.081501  0  0.983066  0  0  0.09236  0  1.048978  0  0  0.09473  0  1.048433  0  0  0.096707  0.090648  0  1.04949  0
H  H9  1  0.75551612  0.02260130  0.48252805  1  0  0.081476  0  0.983  0  0  0.092321  0  1.048924  0  0  0.094692  0  1.048378  0  0  0.096692  0.090611  0  1.04944  0
H  H10  1  0.29898209  0.16313324  0.47272074  1  0  0.121516  0  0.92524  0  0  0.134963  0  0.980407  0  0  0.138269  0  0.979584  0  0  0.110719  0.132517  0  0.981307  0
H  H11  1  0.70101872  0.83686917  0.52728162  1  0  0.121447  0  0.925233  0  0  0.134899  0  0.980412  0  0  0.138206  0  0.979587  0  0  0.1107  0.132455  0  0.981312  0
H  H12  1  0.92565805  0.62755271  0.50506589  1  0  0.093485  0  0.941614  0  0  0.101088  0  1.00283  0  0  0.104314  0  0.999205  0  0  0.126768  0.098641  0  1.005545  0
H  H13  1  0.07434193  0.37245061  0.49493651  1  0  0.093512  0  0.94159  0  0  0.101101  0  1.002811  0  0  0.104326  0  0.99919  0  0  0.12679  0.098657  0  1.005524  0
H  H14  1  0.10160683  0.82523671  0.52514526  1  0  0.100296  0  0.984492  0  0  0.112997  0  1.041708  0  0  0.115326  0  1.041771  0  0  0.108344  0.111297  0  1.041824  0
H  H15  1  0.89839404  0.17476572  0.47485554  1  0  0.100318  0  0.984469  0  0  0.113024  0  1.041674  0  0  0.115352  0  1.041739  0  0  0.108344  0.111328  0  1.041788  0
H  H16  1  0.00596963  0.91642436  0.36614151  1  0  0.094908  0  0.93488  0  0  0.109491  0  0.98995  0  0  0.112216  0  0.988129  0  0  0.110293  0.107464  0  0.991339  0
H  H17  1  0.99403226  0.08357445  0.63385702  1  0  0.094923  0  0.93486  0  0  0.109502  0  0.98993  0  0  0.112227  0  0.988109  0  0  0.1103  0.107486  0  0.99131  0
H  H18  1  0.78505790  0.90281588  0.17712261  1  0  0.115258  0  0.92231  0  0  0.129536  0  0.972767  0  0  0.132629  0  0.97186  0  0  0.114588  0.127284  0  0.973479  0
H  H19  1  0.21494538  0.09718023  0.82287318  1  0  0.11524  0  0.922341  0  0  0.129518  0  0.972795  0  0  0.13261  0  0.971888  0  0  0.114578  0.127261  0  0.973515  0
H  H20  1  0.50598554  0.79924521  0.02070399  1  0  0.120816  0  0.967662  0  0  0.128583  0  1.029329  0  0  0.132077  0  1.027554  0  0  0.110514  0.125934  0  1.030834  0
H  H21  1  0.49401804  0.20075180  0.97929368  1  0  0.120785  0  0.967615  0  0  0.128564  0  1.029273  0  0  0.132059  0  1.027494  0  0  0.110498  0.125908  0  1.030786  0
H  H22  1  0.24367364  0.62297227  0.92736998  1  0  0.110082  0  0.937137  0  0  0.124193  0  0.990597  0  0  0.127264  0  0.988039  0  0  0.116871  0.12188  0  0.992549  0
H  H23  1  0.75632771  0.37702834  0.07263046  1  0  0.110075  0  0.937118  0  0  0.124166  0  0.990603  0  0  0.127236  0  0.988045  0  0  0.11686  0.121866  0  0.992542  0
H  H24  1  0.08946813  0.42531127  0.92406258  1  0  0.103573  0  0.96306  0  0  0.11313  0  1.024619  0  0  0.116152  0  1.023891  0  0  0.105592  0.110974  0  1.025283  0
H  H25  1  0.91053114  0.57469022  0.07593918  1  0  0.103611  0  0.962992  0  0  0.113135  0  1.024585  0  0  0.116159  0  1.023854  0  0  0.105606  0.110978  0  1.025247  0
H  H26  1  0.22167657  0.34204977  0.08169534  1  0  0.095022  0  0.910361  0  0  0.105068  0  0.966226  0  0  0.108068  0  0.963218  0  0  0.1309  0.102774  0  0.968544  0
H  H27  1  0.77832272  0.65795173  0.91830563  1  0  0.095017  0  0.910365  0  0  0.105042  0  0.966251  0  0  0.108041  0  0.963245  0  0  0.130912  0.102745  0  0.968566  0
H  H28  1  0.83011233  0.38816926  0.26784184  1  0  0.452476  0  0.829805  0  0  0.423554  0  0.888081  0  0  0.433775  0  0.87306  0  0  0.307059  0.416309  0  0.898724  0
H  H29  1  0.16988672  0.61183138  0.73215571  1  0  0.452503  0  0.82977  0  0  0.423578  0  0.888056  0  0  0.433798  0  0.873037  0  0  0.307057  0.41633  0  0.898704  0
H  H30  1  0.67857355  0.25886367  0.20857285  1  0  0.442218  0  0.85561  0  0  0.411647  0  0.917381  0  0  0.422677  0  0.901253  0  0  0.299356  0.403879  0  0.928712  0
H  H31  1  0.32142583  0.74113787  0.79142580  1  0  0.442223  0  0.855605  0  0  0.411659  0  0.917366  0  0  0.422689  0  0.901237  0  0  0.299336  0.403892  0  0.928695  0
C  C32  1  0.69668691  0.34033202  0.64609110  1  0  -0.253321  0  3.744479  0  0  -0.232286  0  4.0049  0  0  -0.243263  0  4.025416  0  0  -0.028639  -0.225199  0  3.991099  0
C  C33  1  0.30331094  0.65966581  0.35390936  1  0  -0.25349  0  3.74457  0  0  -0.232413  0  4.005019  0  0  -0.243393  0  4.025538  0  0  -0.028669  -0.225317  0  3.991206  0
C  C34  1  0.75162085  0.27052621  0.71268998  1  0  -0.077236  0  3.734128  0  0  -0.115496  0  3.994599  0  0  -0.111441  0  4.013118  0  0  -0.08266  -0.118117  0  3.982231  0
C  C35  1  0.24837825  0.72947166  0.28730921  1  0  -0.07716  0  3.734137  0  0  -0.115434  0  3.994594  0  0  -0.111374  0  4.013106  0  0  -0.082633  -0.118052  0  3.982219  0
C  C36  1  0.64122424  0.16006185  0.69846374  1  0  0.038087  0  3.769017  0  0  0.058256  0  4.001949  0  0  0.053797  0  4.026631  0  0  -0.012492  0.061036  0  3.985215  0
C  C37  1  0.35876959  0.83993781  0.30153546  1  0  0.038048  0  3.769001  0  0  0.058312  0  4.001815  0  0  0.053852  0  4.026496  0  0  -0.01246  0.061092  0  3.985078  0
C  C38  1  0.68476039  0.09010415  0.77234367  1  0  -0.097166  0  3.701497  0  0  -0.129917  0  3.946866  0  0  -0.127156  0  3.964805  0  0  -0.077867  -0.13158  0  3.934814  0
C  C39  1  0.31523985  0.90989649  0.22765416  1  0  -0.097167  0  3.701551  0  0  -0.129986  0  3.946923  0  0  -0.127223  0  3.96486  0  0  -0.077916  -0.131648  0  3.934863  0
C  C40  1  0.56986526  0.98507861  0.75496543  1  0  -0.113761  0  3.756241  0  0  -0.09025  0  4.010058  0  0  -0.098052  0  4.032667  0  0  -0.019189  -0.085429  0  3.994877  0
C  C41  1  0.43012735  0.01492103  0.24503426  1  0  -0.113789  0  3.756488  0  0  -0.090316  0  4.010386  0  0  -0.098121  0  4.032998  0  0  -0.019215  -0.085488  0  3.995196  0
C  C42  1  0.41068565  0.94229902  0.66161214  1  0  -0.070179  0  3.786286  0  0  -0.100794  0  4.048144  0  0  -0.099483  0  4.067765  0  0  -0.085854  -0.101261  0  4.034643  0
C  C43  1  0.58931132  0.05770250  0.33838672  1  0  -0.070077  0  3.786302  0  0  -0.100701  0  4.048144  0  0  -0.099391  0  4.067767  0  0  -0.085795  -0.101167  0  4.034636  0
C  C44  1  0.36643955  0.00801588  0.58928211  1  0  -0.112641  0  3.760753  0  0  -0.132547  0  4.016853  0  0  -0.136675  0  4.037903  0  0  -0.091034  -0.13  0  4.002405  0
C  C45  1  0.63355546  0.99198378  0.41071736  1  0  -0.112606  0  3.760518  0  0  -0.132501  0  4.016621  0  0  -0.13663  0  4.037672  0  0  -0.091023  -0.129952  0  4.002177  0
C  C46  1  0.47713562  0.11955062  0.60698160  1  0  0.088708  0  3.800386  0  0  0.101261  0  4.028832  0  0  0.105102  0  4.052353  0  0  -0.003957  0.099121  0  4.012614  0
C  C47  1  0.52286148  0.88044816  0.39301657  1  0  0.088711  0  3.800291  0  0  0.101249  0  4.02869  0  0  0.10509  0  4.052209  0  0  -0.00396  0.099111  0  4.012476  0
C  C48  1  0.42485294  0.19242776  0.53991701  1  0  -0.222729  0  3.682023  0  0  -0.251977  0  3.942892  0  0  -0.260554  0  3.962883  0  0  -0.099433  -0.246919  0  3.929718  0
C  C49  1  0.57514594  0.80757281  0.46008519  1  0  -0.22267  0  3.681829  0  0  -0.25192  0  3.942768  0  0  -0.260494  0  3.962755  0  0  -0.09939  -0.246859  0  3.929601  0
C  C50  1  0.52792949  0.30582810  0.56273095  1  0  0.350229  0  3.942378  0  0  0.332078  0  4.207288  0  0  0.346743  0  4.221564  0  0  0.077791  0.322347  0  4.197293  0
C  C51  1  0.47206945  0.69417249  0.43726970  1  0  0.350452  0  3.94221  0  0  0.332214  0  4.20725  0  0  0.34688  0  4.221514  0  0  0.077841  0.322469  0  4.197273  0
C  C52  1  0.88587016  0.66925567  0.43838056  1  0  0.178627  0  3.679928  0  0  0.14515  0  3.943214  0  0  0.154759  0  3.955353  0  0  0.06862  0.138946  0  3.934742  0
C  C53  1  0.11412878  0.33074492  0.56162009  1  0  0.17857  0  3.679769  0  0  0.145105  0  3.943064  0  0  0.154712  0  3.955206  0  0  0.068593  0.138898  0  3.934602  0
C  C54  1  0.98508888  0.78063933  0.44854982  1  0  -0.120484  0  3.738738  0  0  -0.135581  0  3.994289  0  0  -0.142358  0  4.015276  0  0  -0.084501  -0.131133  0  3.980009  0
C  C55  1  0.01491450  0.21936038  0.55145087  1  0  -0.120519  0  3.738845  0  0  -0.135618  0  3.994403  0  0  -0.142395  0  4.015392  0  0  -0.084515  -0.131178  0  3.980136  0
C  C56  1  0.93227841  0.82989633  0.36141655  1  0  -0.053053  0  3.708946  0  0  -0.077547  0  3.960436  0  0  -0.075598  0  3.978897  0  0  -0.063205  -0.078427  0  3.947649  0
C  C57  1  0.06772299  0.17010430  0.63858234  1  0  -0.053025  0  3.709011  0  0  -0.077515  0  3.960493  0  0  -0.075567  0  3.978956  0  0  -0.063184  -0.078405  0  3.947713  0
C  C58  1  0.77847535  0.76847429  0.26456724  1  0  0.026438  0  3.796968  0  0  0.041624  0  4.02939  0  0  0.039163  0  4.054621  0  0  -0.000154  0.043101  0  4.012321  0
C  C59  1  0.22152737  0.23152361  0.73543124  1  0  0.026474  0  3.796926  0  0  0.041645  0  4.029342  0  0  0.039184  0  4.054571  0  0  -0.000168  0.043116  0  4.012276  0
C  C60  1  0.71186690  0.81724226  0.17440641  1  0  -0.097599  0  3.729746  0  0  -0.120144  0  3.984127  0  0  -0.124409  0  4.007842  0  0  -0.079298  -0.117149  0  3.968029  0
C  C61  1  0.28813581  0.18275563  0.82559207  1  0  -0.097644  0  3.729803  0  0  -0.120184  0  3.984183  0  0  -0.124448  0  4.007897  0  0  -0.079306  -0.117181  0  3.968083  0
C  C62  1  0.55699298  0.75954175  0.08726804  1  0  -0.086269  0  3.706199  0  0  -0.111035  0  3.965545  0  0  -0.114139  0  3.988733  0  0  -0.078154  -0.108857  0  3.949931  0
C  C63  1  0.44300974  0.24045615  0.91273045  1  0  -0.086172  0  3.706207  0  0  -0.110953  0  3.965556  0  0  -0.114055  0  3.988742  0  0  -0.078125  -0.108765  0  3.949931  0
C  C64  1  0.45994547  0.64675780  0.08193474  1  0  0.028564  0  3.774834  0  0  0.043061  0  4.009079  0  0  0.04006  0  4.034268  0  0  0.001887  0.044861  0  3.992031  0
C  C65  1  0.54005877  0.35324100  0.91806513  1  0  0.028519  0  3.774817  0  0  0.043017  0  4.009061  0  0  0.040013  0  4.034252  0  0  0.00191  0.044816  0  3.992014  0
C  C66  1  0.29902677  0.58444684  0.99376734  1  0  -0.026322  0  3.649824  0  0  -0.052099  0  3.897841  0  0  -0.048783  0  3.914632  0  0  -0.055571  -0.053917  0  3.8863  0
C  C67  1  0.70097541  0.41555286  0.00623306  1  0  -0.026335  0  3.649815  0  0  -0.052097  0  3.897829  0  0  -0.048781  0  3.914618  0  0  -0.055588  -0.053931  0  3.886295  0
C  C68  1  0.21306109  0.47462560  0.99210745  1  0  -0.117605  0  3.724368  0  0  -0.132191  0  3.983325  0  0  -0.139506  0  4.004687  0  0  -0.083685  -0.127528  0  3.968861  0
C  C69  1  0.78693990  0.52537409  0.00789267  1  0  -0.117592  0  3.724231  0  0  -0.132149  0  3.983182  0  0  -0.139461  0  4.004541  0  0  -0.08367  -0.127488  0  3.968726  0
C  C70  1  0.28677404  0.42793356  0.07978978  1  0  0.163882  0  3.70404  0  0  0.13163  0  3.968177  0  0  0.140476  0  3.983153  0  0  0.065121  0.126034  0  3.957699  0
C  C71  1  0.71322536  0.57206519  0.92021129  1  0  0.163869  0  3.70402  0  0  0.131641  0  3.968148  0  0  0.140487  0  3.983124  0  0  0.065089  0.126052  0  3.957663  0
C  C72  1  0.52400504  0.59345466  0.16786696  1  0  0.135783  0  3.7697  0  0  0.133116  0  4.007706  0  0  0.136902  0  4.030119  0  0  0.121046  0.13066  0  3.992352  0
C  C73  1  0.47599833  0.40654505  0.83213373  1  0  0.135821  0  3.76966  0  0  0.133156  0  4.007636  0  0  0.136944  0  4.03005  0  0  0.121005  0.130698  0  3.992279  0
C  C74  1  0.68513750  0.65673303  0.26234361  1  0  0.141769  0  3.750684  0  0  0.138299  0  3.987925  0  0  0.142444  0  4.009165  0  0  0.124324  0.135575  0  3.973449  0
C  C75  1  0.31486433  0.34326576  0.73765647  1  0  0.141727  0  3.750655  0  0  0.138299  0  3.987836  0  0  0.142442  0  4.009077  0  0  0.124371  0.135584  0  3.97335  0
S  S76  1  0.82456472  0.47806528  0.65453341  1  0  1.36213  0  5.589492  0  0  1.264061  0  6.106434  0  0  1.313697  0  6.079421  0  0  0.532496  1.229842  0  6.123893  0
S  S77  1  0.17543696  0.52193624  0.34546813  1  0  1.362231  0  5.589549  0  0  1.264143  0  6.106497  0  0  1.313789  0  6.079473  0  0  0.532491  1.229933  0  6.123948  0
S  S78  1  0.60987498  0.89761594  0.84895971  1  0  1.329025  0  5.616673  0  0  1.231806  0  6.139505  0  0  1.279707  0  6.11663  0  0  0.523342  1.199336  0  6.15321  0
S  S79  1  0.39013729  0.10238556  0.15104750  1  0  1.329035  0  5.616932  0  0  1.231804  0  6.139771  0  0  1.27971  0  6.116892  0  0  0.523365  1.199332  0  6.153483  0
N  N80  1  0.74026460  0.60895642  0.34839030  1  0  -0.435425  0  3.253337  0  0  -0.38447  0  3.524938  0  0  -0.398336  0  3.540804  0  0  -0.390521  -0.374899  0  3.513771  0
N  N81  1  0.25973758  0.39104328  0.65161010  1  0  -0.435406  0  3.253265  0  0  -0.38446  0  3.524847  0  0  -0.398329  0  3.540722  0  0  -0.390528  -0.374889  0  3.513677  0
N  N82  1  0.43689661  0.48616364  0.16630096  1  0  -0.459668  0  3.254168  0  0  -0.410286  0  3.529242  0  0  -0.425343  0  3.546804  0  0  -0.382895  -0.399878  0  3.516834  0
N  N83  1  0.56310596  0.51383699  0.83369899  1  0  -0.4597  0  3.254264  0  0  -0.410314  0  3.529316  0  0  -0.425372  0  3.54688  0  0  -0.382889  -0.399911  0  3.516909  0
O  O84  1  0.99549594  0.49700050  0.73279070  1  0  -0.643405  0  1.94763  0  0  -0.586159  0  2.182704  0  0  -0.608233  0  2.170494  0  0  -0.317406  -0.570791  0  2.190736  0
O  O85  1  0.00450743  0.50299920  0.26720998  1  0  -0.643431  0  1.947636  0  0  -0.586167  0  2.18268  0  0  -0.608261  0  2.170483  0  0  -0.317395  -0.570801  0  2.19071  0
O  O86  1  0.75560723  0.57677147  0.69861825  1  0  -0.738744  0  2.039605  0  0  -0.684991  0  2.301717  0  0  -0.705209  0  2.284779  0  0  -0.383076  -0.670566  0  2.313106  0
O  O87  1  0.24439085  0.42323002  0.30138322  1  0  -0.738753  0  2.039587  0  0  -0.684997  0  2.301703  0  0  -0.705213  0  2.284758  0  0  -0.383055  -0.670575  0  2.313095  0
O  O88  1  0.80482121  0.45733231  0.52917764  1  0  -0.750117  0  1.994193  0  0  -0.693658  0  2.262343  0  0  -0.715092  0  2.246281  0  0  -0.38996  -0.678226  0  2.272756  0
O  O89  1  0.19517860  0.54266738  0.47082219  1  0  -0.750165  0  1.994179  0  0  -0.693697  0  2.262322  0  0  -0.715138  0  2.246279  0  0  -0.389986  -0.678268  0  2.27273  0
O  O90  1  0.46224205  0.87635381  0.87880809  1  0  -0.662499  0  1.946835  0  0  -0.60583  0  2.175689  0  0  -0.627202  0  2.160753  0  0  -0.329957  -0.59082  0  2.185261  0
O  O91  1  0.53774974  0.12364395  0.12119406  1  0  -0.662409  0  1.947056  0  0  -0.605707  0  2.175893  0  0  -0.627081  0  2.160962  0  0  -0.329882  -0.590695  0  2.185465  0
O  O92  1  0.61111542  0.77890016  0.76776520  1  0  -0.80454  0  1.993784  0  0  -0.742314  0  2.267302  0  0  -0.763581  0  2.249328  0  0  -0.455739  -0.727568  0  2.279145  0
O  O93  1  0.38888537  0.22109589  0.23223313  1  0  -0.804499  0  1.994014  0  0  -0.742273  0  2.267524  0  0  -0.763543  0  2.249548  0  0  -0.455717  -0.727528  0  2.27937  0
O  O94  1  0.76673187  0.96150689  0.94794375  1  0  -0.600037  0  1.8689  0  0  -0.561993  0  2.085706  0  0  -0.581339  0  2.072783  0  0  -0.332419  -0.547882  0  2.09373  0
O  O95  1  0.23325834  0.03849554  0.05205295  1  0  -0.600196  0  1.868456  0  0  -0.562163  0  2.085255  0  0  -0.581514  0  2.072331  0  0  -0.332569  -0.548051  0  2.093284  0
O  O96  1  0.47333517  0.38403843  0.51236303  1  0  -0.863255  0  2.196095  0  0  -0.792921  0  2.459417  0  0  -0.814804  0  2.451021  0  0  -0.513784  -0.777189  0  2.464098  0
O  O97  1  0.52666602  0.61596491  0.48763888  1  0  -0.863372  0  2.196113  0  0  -0.792989  0  2.459437  0  0  -0.814901  0  2.451108  0  0  -0.513824  -0.777255  0  2.464127  0
O  O98  1  0.73105273  0.34150365  0.27293114  1  0  -0.939414  0  1.840504  0  0  -0.886886  0  2.032569  0  0  -0.905373  0  1.999388  0  0  -0.651534  -0.87342  0  2.05557  0
O  O99  1  0.26894423  0.65850065  0.72706529  1  0  -0.939464  0  1.840485  0  0  -0.886924  0  2.032525  0  0  -0.905412  0  1.999348  0  0  -0.651509  -0.873452  0  2.055526  0
