# generated using pymatgen
data_CuNiH4C8(SN)4
_symmetry_space_group_name_H-M   'P 1'
_cell_length_a   6.87516553
_cell_length_b   6.87519452
_cell_length_c   16.13962367
_cell_angle_alpha   89.99996104
_cell_angle_beta   90.00010976
_cell_angle_gamma   90.00000382
_symmetry_Int_Tables_number   1
_chemical_formula_structural   CuNiH4C8(SN)4
_chemical_formula_sum   'Cu2 Ni2 H8 C16 S8 N8'
_cell_volume   762.88935188
_cell_formula_units_Z   2
loop_
 _symmetry_equiv_pos_site_id
 _symmetry_equiv_pos_as_xyz
  1  'x, y, z'
loop_
 _atom_site_type_symbol
 _atom_site_label
 _atom_site_symmetry_multiplicity
 _atom_site_fract_x
 _atom_site_fract_y
 _atom_site_fract_z
 _atom_site_occupancy
 _atom_site_pbe_bader_charge
 _atom_site_pbe_bader_spin_density
 _atom_site_pbe_cm5_charge
 _atom_site_pbe_ddec_charge
 _atom_site_pbe_ddec_spin_density
 _atom_site_pbe_ddec_sum_bond_order
 _atom_site_pbe_magmom
Cu  Cu0  1  0.50000018  0.50000021  0.24999914  1  0.897986  0.409796  0.693167  0.564891  0.526534  2.223837  0.411
Cu  Cu1  1  0.49999985  0.49999981  0.75000089  1  0.898173  0.409809  0.693185  0.565078  0.526549  2.223532  0.411
Ni  Ni2  1  0.49999960  0.00000002  0.00000888  1  0.42904  -0.077274  0.294058  0.124937  -0.113775  3.619652  -0.077
Ni  Ni3  1  0.99999969  0.50000000  0.49999114  1  0.428784  -0.077276  0.294155  0.124913  -0.113779  3.619933  -0.077
H  H4  1  0.49999902  0.18480030  0.38675826  1  0.09607  0.003797  0.106317  0.090519  0.001833  1.046417  0.002
H  H5  1  0.50000050  0.81519701  0.38675817  1  0.096062  0.003797  0.106326  0.090513  0.001833  1.046431  0.002
H  H6  1  0.49999953  0.18480593  0.61323876  1  0.096022  0.003798  0.106351  0.090565  0.001833  1.046309  0.002
H  H7  1  0.81520683  0.49999888  0.11324887  1  0.095779  0.003797  0.106271  0.090307  0.001834  1.046432  0.002
H  H8  1  0.81520276  0.49999971  0.88675390  1  0.095728  0.003797  0.106274  0.09029  0.001834  1.046338  0.002
H  H9  1  0.18479612  0.50000115  0.88675426  1  0.095723  0.003797  0.106279  0.090304  0.001834  1.046337  0.002
H  H10  1  0.18479437  0.50000031  0.11324986  1  0.095785  0.003797  0.106269  0.090308  0.001834  1.046445  0.002
H  H11  1  0.49999956  0.81519682  0.61323867  1  0.096033  0.003798  0.106353  0.090579  0.001833  1.04629  0.002
C  C12  1  0.50000148  0.10416419  0.18578829  1  0.337826  0.003359  0.109827  0.164189  0.002284  4.012946  0.002
C  C13  1  0.50000005  0.89583488  0.18578879  1  0.493895  0.002956  0.109815  0.164194  0.002284  4.01294  0.002
C  C14  1  0.49999999  0.10416369  0.81421992  1  0.494015  0.002958  0.109829  0.164091  0.002286  4.013113  0.002
C  C15  1  0.89583516  0.50000018  0.31422385  1  0.337805  0.003362  0.109818  0.164168  0.002286  4.01309  0.002
C  C16  1  0.89583600  0.50000133  0.68576783  1  0.337982  0.003363  0.109678  0.163995  0.002288  4.01326  0.002
C  C17  1  0.10416488  0.50000131  0.68576813  1  0.494044  0.002961  0.109665  0.163951  0.002288  4.013292  0.002
C  C18  1  0.10416549  0.50000015  0.31422353  1  0.493937  0.002958  0.109823  0.164169  0.002286  4.013077  0.002
C  C19  1  0.50000001  0.89583729  0.81421980  1  0.337943  0.003361  0.109852  0.164125  0.002286  4.013076  0.002
C  C20  1  0.50000035  0.10078526  0.32965224  1  0.400054  -0.000127  0.025764  0.027572  0.000265  3.957418  0.001
C  C21  1  0.50000037  0.89921358  0.32965212  1  0.56967  -0.000463  0.025755  0.027566  0.000265  3.957443  0.001
C  C22  1  0.49999966  0.10078645  0.67034605  1  0.569643  -0.000461  0.025709  0.027492  0.000267  3.957296  0.001
C  C23  1  0.89921511  0.49999884  0.17035743  1  0.400511  -0.000129  0.025847  0.027848  0.000263  3.957408  0.001
C  C24  1  0.89921515  0.49999976  0.82964479  1  0.400508  -0.000126  0.025867  0.027906  0.000265  3.957222  0.001
C  C25  1  0.10078492  0.50000119  0.82964509  1  0.570127  -0.000464  0.025847  0.027833  0.000265  3.957286  0.001
C  C26  1  0.10078634  0.50000027  0.17035772  1  0.570115  -0.000465  0.025875  0.027872  0.000263  3.957438  0.001
C  C27  1  0.49999969  0.89921622  0.67034594  1  0.400026  -0.000124  0.025754  0.027513  0.000267  3.957264  0.001
S  S28  1  0.49999982  0.22590046  0.09306244  1  -0.124288  -0.012042  -0.147368  -0.22717  -0.009404  2.855736  -0.008
S  S29  1  0.49999983  0.77410022  0.09306236  1  -0.118194  -0.012099  -0.147364  -0.227169  -0.009405  2.855724  -0.008
S  S30  1  0.50000020  0.22588962  0.90695440  1  -0.12448  -0.012035  -0.147396  -0.227114  -0.0094  2.855601  -0.008
S  S31  1  0.77409575  0.50000010  0.40694777  1  -0.118487  -0.012104  -0.147398  -0.227138  -0.009408  2.856076  -0.008
S  S32  1  0.77410490  0.49999995  0.59303390  1  -0.124775  -0.012041  -0.147365  -0.227063  -0.009404  2.855772  -0.008
S  S33  1  0.22589410  0.49999993  0.59303429  1  -0.118549  -0.012099  -0.14735  -0.227035  -0.009404  2.855803  -0.008
S  S34  1  0.22590532  0.50000008  0.40694817  1  -0.12459  -0.01205  -0.147405  -0.227151  -0.009409  2.856045  -0.008
S  S35  1  0.50000022  0.77411120  0.90695432  1  -0.118247  -0.012093  -0.147398  -0.227119  -0.0094  2.855596  -0.008
N  N36  1  0.50000019  0.20223263  0.25787050  1  -1.207429  0.061168  -0.341359  -0.227592  0.040723  3.585613  0.054
N  N37  1  0.50000021  0.79776633  0.25787041  1  -1.207461  0.061168  -0.341383  -0.227622  0.040722  3.585647  0.054
N  N38  1  0.49999983  0.20222352  0.74213272  1  -1.207182  0.061176  -0.341333  -0.227553  0.040727  3.585377  0.054
N  N39  1  0.79776899  0.49999878  0.24213911  1  -1.207205  0.061167  -0.341359  -0.227622  0.040722  3.585521  0.054
N  N40  1  0.79777888  0.50000127  0.75785745  1  -1.206975  0.061177  -0.341274  -0.22759  0.040727  3.585519  0.054
N  N41  1  0.20222086  0.50000125  0.75785783  1  -1.206982  0.061177  -0.341266  -0.227545  0.040727  3.585533  0.054
N  N42  1  0.20223133  0.50000021  0.24213948  1  -1.20729  0.061167  -0.341388  -0.227653  0.040722  3.585559  0.054
N  N43  1  0.49999985  0.79777758  0.74213263  1  -1.207156  0.061176  -0.341324  -0.227553  0.040727  3.585375  0.054
