# generated using pymatgen
data_CaH11C12NO5
_symmetry_space_group_name_H-M   'P 1'
_cell_length_a   6.82759392
_cell_length_b   10.34403733
_cell_length_c   17.87925570
_cell_angle_alpha   89.99994549
_cell_angle_beta   90.00007903
_cell_angle_gamma   90.00036094
_symmetry_Int_Tables_number   1
_chemical_formula_structural   CaH11C12NO5
_chemical_formula_sum   'Ca4 H44 C48 N4 O20'
_cell_volume   1262.72040113
_cell_formula_units_Z   4
loop_
 _symmetry_equiv_pos_site_id
 _symmetry_equiv_pos_as_xyz
  1  'x, y, z'
loop_
 _atom_site_type_symbol
 _atom_site_label
 _atom_site_symmetry_multiplicity
 _atom_site_fract_x
 _atom_site_fract_y
 _atom_site_fract_z
 _atom_site_occupancy
 _atom_site_hle17_bader_spin_density
 _atom_site_hle17_ddec_charge
 _atom_site_hle17_ddec_spin_density
 _atom_site_hle17_ddec_sum_bond_order
 _atom_site_hle17_magmom
 _atom_site_hse06_10hf_bader_spin_density
 _atom_site_hse06_10hf_ddec_charge
 _atom_site_hse06_10hf_ddec_spin_density
 _atom_site_hse06_10hf_ddec_sum_bond_order
 _atom_site_hse06_10hf_magmom
 _atom_site_hse06_bader_spin_density
 _atom_site_hse06_ddec_charge
 _atom_site_hse06_ddec_spin_density
 _atom_site_hse06_ddec_sum_bond_order
 _atom_site_hse06_magmom
 _atom_site_pbe_bader_spin_density
 _atom_site_pbe_cm5_charge
 _atom_site_pbe_ddec_charge
 _atom_site_pbe_ddec_spin_density
 _atom_site_pbe_ddec_sum_bond_order
 _atom_site_pbe_magmom
Ca  Ca0  1  0.50060224  0.25830248  0.02511128  1  0  1.510559  0  1.185335  0  0  1.381339  0  1.538374  0  0  1.428445  0  1.492256  0  0  0.897986  1.346016  0  1.571079  0
Ca  Ca1  1  0.99939905  0.74170236  0.52511140  1  0  1.51054  0  1.185391  0  0  1.381316  0  1.538456  0  0  1.428423  0  1.492336  0  0  0.897976  1.346001  0  1.571163  0
Ca  Ca2  1  0.49939859  0.75830127  0.47488994  1  0  1.510553  0  1.185344  0  0  1.381326  0  1.538396  0  0  1.428435  0  1.492275  0  0  0.897986  1.346015  0  1.571107  0
Ca  Ca3  1  0.00060196  0.24170464  0.97489007  1  0  1.510567  0  1.185321  0  0  1.381342  0  1.53838  0  0  1.428451  0  1.49226  0  0  0.897993  1.346032  0  1.571088  0
H  H4  1  0.40592031  0.53472812  0.11866933  1  0  0.324622  0  0.916793  0  0  0.306255  0  0.977793  0  0  0.315464  0  0.969713  0  0  0.31708  0.299696  0  0.983644  0
H  H5  1  0.09408042  0.46526967  0.61866827  1  0  0.324684  0  0.916692  0  0  0.306312  0  0.977692  0  0  0.315521  0  0.96961  0  0  0.317107  0.299754  0  0.983542  0
H  H6  1  0.59408715  0.03472817  0.38133146  1  0  0.324633  0  0.916822  0  0  0.306248  0  0.977836  0  0  0.315456  0  0.969757  0  0  0.317068  0.29969  0  0.983685  0
H  H7  1  0.90591542  0.96527319  0.88133196  1  0  0.324679  0  0.916739  0  0  0.3063  0  0.977753  0  0  0.315509  0  0.969672  0  0  0.317089  0.299744  0  0.983598  0
H  H8  1  0.60309969  0.50782887  0.24842199  1  0  0.104533  0  0.962197  0  0  0.111013  0  1.030418  0  0  0.115837  0  1.025453  0  0  0.104742  0.107421  0  1.034191  0
H  H9  1  0.89688922  0.49216883  0.74840989  1  0  0.104512  0  0.962324  0  0  0.111068  0  1.03045  0  0  0.115893  0  1.025485  0  0  0.104793  0.107474  0  1.034225  0
H  H10  1  0.39688701  0.00782831  0.25158440  1  0  0.104587  0  0.962213  0  0  0.111102  0  1.030386  0  0  0.11593  0  1.025415  0  0  0.10477  0.107505  0  1.034164  0
H  H11  1  0.10310688  0.99217119  0.75158585  1  0  0.104546  0  0.96229  0  0  0.111067  0  1.030448  0  0  0.115892  0  1.025481  0  0  0.10477  0.107469  0  1.034223  0
H  H12  1  0.12232018  0.54078008  0.38284412  1  0  0.110739  0  0.954164  0  0  0.116779  0  1.021998  0  0  0.120736  0  1.018761  0  0  0.117691  0.113934  0  1.024332  0
H  H13  1  0.37768151  0.45922597  0.88283762  1  0  0.110719  0  0.954193  0  0  0.116776  0  1.021998  0  0  0.120733  0  1.01876  0  0  0.117681  0.113929  0  1.024337  0
H  H14  1  0.87767123  0.04077689  0.11716058  1  0  0.11067  0  0.954252  0  0  0.11673  0  1.022064  0  0  0.120686  0  1.018827  0  0  0.117649  0.113883  0  1.024398  0
H  H15  1  0.62232453  0.95922102  0.61716373  1  0  0.110733  0  0.954201  0  0  0.116777  0  1.022019  0  0  0.120734  0  1.018782  0  0  0.117685  0.113928  0  1.024357  0
H  H16  1  0.30910116  0.41593664  0.28756227  1  0  0.094993  0  0.951005  0  0  0.105714  0  1.009108  0  0  0.109203  0  1.007276  0  0  0.102668  0.103132  0  1.01071  0
H  H17  1  0.19090018  0.58407440  0.78755784  1  0  0.095077  0  0.95091  0  0  0.105682  0  1.009154  0  0  0.109169  0  1.007327  0  0  0.102679  0.103102  0  1.010755  0
H  H18  1  0.69089533  0.91592795  0.21244222  1  0  0.095144  0  0.950883  0  0  0.105758  0  1.009104  0  0  0.109246  0  1.007275  0  0  0.102698  0.103177  0  1.010705  0
H  H19  1  0.80909931  0.08407561  0.71244204  1  0  0.095147  0  0.950835  0  0  0.105756  0  1.00907  0  0  0.109244  0  1.007242  0  0  0.102688  0.103173  0  1.010672  0
H  H20  1  0.13913584  0.33110587  0.17407095  1  0  0.103042  0  0.95325  0  0  0.111339  0  1.01837  0  0  0.114587  0  1.015997  0  0  0.114379  0.108785  0  1.020583  0
H  H21  1  0.36086363  0.66890536  0.67406376  1  0  0.103001  0  0.953189  0  0  0.111298  0  1.018336  0  0  0.114545  0  1.015964  0  0  0.114346  0.108744  0  1.020537  0
H  H22  1  0.86086130  0.83109190  0.32593359  1  0  0.103063  0  0.953208  0  0  0.111365  0  1.018342  0  0  0.114622  0  1.015969  0  0  0.114359  0.108807  0  1.020554  0
H  H23  1  0.63913668  0.16891051  0.82593383  1  0  0.103046  0  0.953203  0  0  0.111334  0  1.018356  0  0  0.114589  0  1.015982  0  0  0.114351  0.108772  0  1.020577  0
H  H24  1  0.87367504  0.54895474  0.02957625  1  0  0.120332  0  0.936684  0  0  0.133217  0  0.997382  0  0  0.135975  0  0.996305  0  0  0.115451  0.131306  0  0.998199  0
H  H25  1  0.62632626  0.45104235  0.52957634  1  0  0.120323  0  0.936672  0  0  0.133228  0  0.997375  0  0  0.135976  0  0.996309  0  0  0.115461  0.131315  0  0.998193  0
H  H26  1  0.12633549  0.04894982  0.47042341  1  0  0.120207  0  0.936682  0  0  0.133139  0  0.997376  0  0  0.135899  0  0.996295  0  0  0.11545  0.131223  0  0.998195  0
H  H27  1  0.37367091  0.95104160  0.97042558  1  0  0.120317  0  0.936673  0  0  0.133214  0  0.997377  0  0  0.135963  0  0.996312  0  0  0.115469  0.131301  0  0.998195  0
H  H28  1  0.01807844  0.62067664  0.95954313  1  0  0.107717  0  0.924929  0  0  0.125394  0  0.979185  0  0  0.127647  0  0.978296  0  0  0.108467  0.123837  0  0.979928  0
H  H29  1  0.48192060  0.37932253  0.45954320  1  0  0.107699  0  0.924919  0  0  0.1254  0  0.979172  0  0  0.127654  0  0.978279  0  0  0.10847  0.123842  0  0.979913  0
H  H30  1  0.98193166  0.12067690  0.54045337  1  0  0.107599  0  0.924917  0  0  0.125321  0  0.979186  0  0  0.127574  0  0.978291  0  0  0.108467  0.123751  0  0.97994  0
H  H31  1  0.51807994  0.87932114  0.04045795  1  0  0.107709  0  0.924882  0  0  0.125404  0  0.979141  0  0  0.127662  0  0.978246  0  0  0.108473  0.123844  0  0.979885  0
H  H32  1  0.06100203  0.81129357  0.03304647  1  0  0.077379  0  0.934198  0  0  0.095047  0  0.991251  0  0  0.096033  0  0.992013  0  0  0.095745  0.094292  0  0.990822  0
H  H33  1  0.43899547  0.18870338  0.53304574  1  0  0.077325  0  0.934213  0  0  0.095007  0  0.991263  0  0  0.095992  0  0.992027  0  0  0.095718  0.094248  0  0.990839  0
H  H34  1  0.93902568  0.31129007  0.46694801  1  0  0.077358  0  0.934031  0  0  0.094991  0  0.991136  0  0  0.095977  0  0.991895  0  0  0.095725  0.094235  0  0.990705  0
H  H35  1  0.56099771  0.68870534  0.96695296  1  0  0.077378  0  0.934212  0  0  0.09503  0  0.99127  0  0  0.096016  0  0.992031  0  0  0.095728  0.094274  0  0.990842  0
H  H36  1  0.89372419  0.74810521  0.09864228  1  0  0.076393  0  0.939967  0  0  0.093636  0  0.997315  0  0  0.094329  0  0.99848  0  0  0.094124  0.093119  0  0.99655  0
H  H37  1  0.60627737  0.25189080  0.59864302  1  0  0.076403  0  0.939941  0  0  0.093654  0  0.997284  0  0  0.094347  0  0.998448  0  0  0.09414  0.09314  0  0.996518  0
H  H38  1  0.10629559  0.24809838  0.40135112  1  0  0.076381  0  0.939942  0  0  0.093636  0  0.997262  0  0  0.094328  0  0.998428  0  0  0.094144  0.09312  0  0.9965  0
H  H39  1  0.39371935  0.75189315  0.90135677  1  0  0.076396  0  0.939945  0  0  0.093631  0  0.997285  0  0  0.094323  0  0.998448  0  0  0.094145  0.093118  0  0.996519  0
H  H40  1  0.30803049  0.77845867  0.12324717  1  0  0.055163  0  0.936945  0  0  0.06991  0  0.999991  0  0  0.069851  0  1.000399  0  0  0.100425  0.069761  0  0.999942  0
H  H41  1  0.19197319  0.22153814  0.62324741  1  0  0.055198  0  0.936916  0  0  0.069931  0  0.999957  0  0  0.069873  0  1.000366  0  0  0.100429  0.069781  0  0.999912  0
H  H42  1  0.69198957  0.27846106  0.37675181  1  0  0.055244  0  0.936877  0  0  0.069969  0  0.999921  0  0  0.069909  0  1.00033  0  0  0.100433  0.069817  0  0.99988  0
H  H43  1  0.80802324  0.72154127  0.87675351  1  0  0.055232  0  0.936844  0  0  0.069931  0  0.999906  0  0  0.069874  0  1.000314  0  0  0.10042  0.069782  0  0.999863  0
H  H44  1  0.14840145  0.68721249  0.18085078  1  0  0.065506  0  0.927039  0  0  0.079502  0  0.989757  0  0  0.07861  0  0.992714  0  0  0.103791  0.080178  0  0.987559  0
H  H45  1  0.35160244  0.31278616  0.68085106  1  0  0.065537  0  0.927072  0  0  0.079508  0  0.989803  0  0  0.078617  0  0.992761  0  0  0.10379  0.080186  0  0.987604  0
H  H46  1  0.85160602  0.18720789  0.31914601  1  0  0.065472  0  0.927121  0  0  0.079474  0  0.989821  0  0  0.078581  0  0.992778  0  0  0.103785  0.080155  0  0.98762  0
H  H47  1  0.64839633  0.81278679  0.81914926  1  0  0.065532  0  0.927055  0  0  0.079505  0  0.989764  0  0  0.078613  0  0.992722  0  0  0.103793  0.080185  0  0.98756  0
C  C48  1  0.75570749  0.37038391  0.13468523  1  0  0.671014  0  3.91238  0  0  0.624106  0  4.199214  0  0  0.658765  0  4.191331  0  0  0.21871  0.600609  0  4.203713  0
C  C49  1  0.74428394  0.62962365  0.63467969  1  0  0.670981  0  3.912365  0  0  0.624296  0  4.198846  0  0  0.658935  0  4.190958  0  0  0.21888  0.600784  0  4.203363  0
C  C50  1  0.24428710  0.87037216  0.36531537  1  0  0.671081  0  3.912092  0  0  0.624156  0  4.198874  0  0  0.65881  0  4.19099  0  0  0.218709  0.600659  0  4.203369  0
C  C51  1  0.25571159  0.12962619  0.86531793  1  0  0.670937  0  3.912305  0  0  0.624175  0  4.198871  0  0  0.658807  0  4.190984  0  0  0.218768  0.60067  0  4.203384  0
C  C52  1  0.72666804  0.59698859  0.37968082  1  0  0.648253  0  3.946167  0  0  0.602267  0  4.237524  0  0  0.636329  0  4.230641  0  0  0.207403  0.57896  0  4.241932  0
C  C53  1  0.77332427  0.40300986  0.87967597  1  0  0.648244  0  3.945888  0  0  0.602222  0  4.237295  0  0  0.636282  0  4.230414  0  0  0.207472  0.578899  0  4.241703  0
C  C54  1  0.27332098  0.09698871  0.12032161  1  0  0.648313  0  3.945985  0  0  0.602317  0  4.237369  0  0  0.636379  0  4.230487  0  0  0.207449  0.578989  0  4.241777  0
C  C55  1  0.22667390  0.90300521  0.62032709  1  0  0.648229  0  3.945885  0  0  0.602216  0  4.237333  0  0  0.636277  0  4.230454  0  0  0.207356  0.578891  0  4.241739  0
C  C56  1  0.86068478  0.41570776  0.20328150  1  0  -0.083824  0  3.772536  0  0  -0.057234  0  4.003928  0  0  -0.067282  0  4.02724  0  0  -0.020867  -0.050958  0  3.988312  0
C  C57  1  0.63930690  0.58429871  0.70327425  1  0  -0.083826  0  3.772735  0  0  -0.057297  0  4.004116  0  0  -0.067274  0  4.027348  0  0  -0.020878  -0.051003  0  3.988467  0
C  C58  1  0.13930878  0.91569666  0.29672075  1  0  -0.083874  0  3.772676  0  0  -0.057198  0  4.004004  0  0  -0.067239  0  4.027319  0  0  -0.020874  -0.050891  0  3.988332  0
C  C59  1  0.36068820  0.08430470  0.79672228  1  0  -0.083876  0  3.772681  0  0  -0.057275  0  4.004003  0  0  -0.06724  0  4.027221  0  0  -0.020898  -0.050987  0  3.988359  0
C  C60  1  0.75749074  0.48630180  0.25690226  1  0  -0.072159  0  3.720739  0  0  -0.10702  0  3.962385  0  0  -0.103768  0  3.980512  0  0  -0.076656  -0.108664  0  3.950152  0
C  C61  1  0.74250406  0.51369782  0.75689398  1  0  -0.07219  0  3.720781  0  0  -0.10713  0  3.962454  0  0  -0.103903  0  3.980569  0  0  -0.076662  -0.108796  0  3.950197  0
C  C62  1  0.24249618  0.98629701  0.24310107  1  0  -0.0722  0  3.72084  0  0  -0.10713  0  3.962491  0  0  -0.103883  0  3.980619  0  0  -0.076636  -0.108797  0  3.950227  0
C  C63  1  0.25749475  0.01370154  0.74310370  1  0  -0.072212  0  3.720656  0  0  -0.1071  0  3.962323  0  0  -0.103877  0  3.980435  0  0  -0.076647  -0.108763  0  3.950064  0
C  C64  1  0.84879409  0.52850306  0.32244695  1  0  -0.081571  0  3.769544  0  0  -0.054974  0  4.00137  0  0  -0.065095  0  4.025095  0  0  -0.01837  -0.048676  0  3.985924  0
C  C65  1  0.65120095  0.47149356  0.82243864  1  0  -0.08166  0  3.769416  0  0  -0.055054  0  4.001288  0  0  -0.065174  0  4.025021  0  0  -0.018512  -0.048697  0  3.985763  0
C  C66  1  0.15120014  0.02849968  0.17755608  1  0  -0.081635  0  3.76956  0  0  -0.055061  0  4.00146  0  0  -0.06518  0  4.025184  0  0  -0.018412  -0.048709  0  3.985941  0
C  C67  1  0.34879788  0.97149511  0.67755935  1  0  -0.081555  0  3.769426  0  0  -0.055041  0  4.001408  0  0  -0.065159  0  4.025138  0  0  -0.018431  -0.048685  0  3.985885  0
C  C68  1  0.04902030  0.50431065  0.33302436  1  0  -0.038078  0  3.680928  0  0  -0.066218  0  3.93228  0  0  -0.062246  0  3.948851  0  0  -0.065829  -0.068426  0  3.920954  0
C  C69  1  0.45097682  0.49568968  0.83301732  1  0  -0.038045  0  3.680831  0  0  -0.066173  0  3.932092  0  0  -0.062198  0  3.948656  0  0  -0.06577  -0.068398  0  3.920755  0
C  C70  1  0.95097223  0.00430575  0.16697868  1  0  -0.038076  0  3.681008  0  0  -0.066215  0  3.932277  0  0  -0.062242  0  3.948845  0  0  -0.065857  -0.068448  0  3.920936  0
C  C71  1  0.54902371  0.99569208  0.66698121  1  0  -0.038074  0  3.680882  0  0  -0.066164  0  3.932171  0  0  -0.062191  0  3.948737  0  0  -0.065801  -0.068395  0  3.920832  0
C  C72  1  0.15333626  0.43429570  0.27930405  1  0  -0.088738  0  3.759631  0  0  -0.098868  0  4.015381  0  0  -0.103862  0  4.034964  0  0  -0.08908  -0.095729  0  4.002216  0
C  C73  1  0.34665919  0.56571246  0.77929692  1  0  -0.088757  0  3.75957  0  0  -0.098789  0  4.015318  0  0  -0.103781  0  4.034902  0  0  -0.088998  -0.095662  0  4.002167  0
C  C74  1  0.84665748  0.93428474  0.22069931  1  0  -0.088867  0  3.759748  0  0  -0.098896  0  4.015484  0  0  -0.103889  0  4.035066  0  0  -0.089027  -0.095756  0  4.002326  0
C  C75  1  0.65333866  0.06571591  0.72070130  1  0  -0.088896  0  3.759546  0  0  -0.098928  0  4.015281  0  0  -0.103923  0  4.034869  0  0  -0.089063  -0.095793  0  4.002121  0
C  C76  1  0.05944633  0.38794228  0.21532599  1  0  -0.049783  0  3.710469  0  0  -0.079271  0  3.964926  0  0  -0.075823  0  3.983527  0  0  -0.073307  -0.08134  0  3.95265  0
C  C77  1  0.44055036  0.61206501  0.71531999  1  0  -0.049708  0  3.710635  0  0  -0.079208  0  3.965068  0  0  -0.075784  0  3.983656  0  0  -0.073363  -0.081273  0  3.952782  0
C  C78  1  0.94054989  0.88792677  0.28467684  1  0  -0.049699  0  3.710553  0  0  -0.079231  0  3.96493  0  0  -0.075799  0  3.983542  0  0  -0.0733  -0.08131  0  3.95265  0
C  C79  1  0.55944501  0.11207281  0.78467764  1  0  -0.04967  0  3.710514  0  0  -0.079178  0  3.964905  0  0  -0.075765  0  3.983496  0  0  -0.073284  -0.081248  0  3.952619  0
C  C80  1  0.18234501  0.52078249  0.04268680  1  0  0.62244  0  3.771269  0  0  0.578346  0  4.060912  0  0  0.608332  0  4.05987  0  0  0.267737  0.558006  0  4.06092  0
C  C81  1  0.31765692  0.47920962  0.54268865  1  0  0.62238  0  3.771315  0  0  0.578362  0  4.060901  0  0  0.608338  0  4.059872  0  0  0.267793  0.558028  0  4.060906  0
C  C82  1  0.81766525  0.02077946  0.45731175  1  0  0.622271  0  3.771374  0  0  0.578227  0  4.061013  0  0  0.608211  0  4.059974  0  0  0.267681  0.557893  0  4.061016  0
C  C83  1  0.68233906  0.97921403  0.95731213  1  0  0.62246  0  3.771152  0  0  0.578379  0  4.060828  0  0  0.608362  0  4.059789  0  0  0.267751  0.558043  0  4.060833  0
C  C84  1  0.00973111  0.60336113  0.02011085  1  0  -0.260328  0  3.642411  0  0  -0.298949  0  3.8934  0  0  -0.304201  0  3.901217  0  0  -0.149348  -0.295378  0  3.888053  0
C  C85  1  0.49027073  0.39663585  0.52011116  1  0  -0.260159  0  3.642337  0  0  -0.298881  0  3.893419  0  0  -0.30412  0  3.901236  0  0  -0.149327  -0.29531  0  3.888074  0
C  C86  1  0.99028287  0.10335878  0.47988598  1  0  -0.259853  0  3.642092  0  0  -0.298608  0  3.893156  0  0  -0.303852  0  3.900963  0  0  -0.149303  -0.295025  0  3.887803  0
C  C87  1  0.50972885  0.89663661  0.97988967  1  0  -0.260151  0  3.642263  0  0  -0.298848  0  3.893312  0  0  -0.304095  0  3.901134  0  0  -0.149304  -0.295274  0  3.887964  0
C  C88  1  0.02840601  0.72665825  0.06782422  1  0  -0.11114  0  3.622637  0  0  -0.150668  0  3.881716  0  0  -0.152337  0  3.895595  0  0  -0.156607  -0.149423  0  3.872105  0
C  C89  1  0.47159454  0.27333866  0.56782402  1  0  -0.111118  0  3.622639  0  0  -0.15066  0  3.881755  0  0  -0.152327  0  3.895631  0  0  -0.156595  -0.149419  0  3.87215  0
C  C90  1  0.97161209  0.22665396  0.43217031  1  0  -0.111173  0  3.622426  0  0  -0.150669  0  3.881508  0  0  -0.152337  0  3.895387  0  0  -0.156616  -0.149423  0  3.871898  0
C  C91  1  0.52840239  0.77334054  0.93217575  1  0  -0.11117  0  3.622689  0  0  -0.150662  0  3.88171  0  0  -0.152327  0  3.895587  0  0  -0.156603  -0.149421  0  3.872106  0
C  C92  1  0.19932271  0.70027427  0.12294625  1  0  0.060051  0  3.612636  0  0  0.003165  0  3.876665  0  0  0.007609  0  3.8904  0  0  -0.053164  0.000355  0  3.867022  0
C  C93  1  0.30067950  0.29972254  0.62294651  1  0  0.059937  0  3.612592  0  0  0.003107  0  3.876576  0  0  0.007548  0  3.890312  0  0  -0.053154  0.000297  0  3.866938  0
C  C94  1  0.80068928  0.20027324  0.37705109  1  0  0.059948  0  3.612722  0  0  0.003107  0  3.876674  0  0  0.007551  0  3.890407  0  0  -0.053143  0.000292  0  3.867038  0
C  C95  1  0.69931768  0.79972618  0.87705381  1  0  0.059911  0  3.6127  0  0  0.003139  0  3.876583  0  0  0.00758  0  3.890319  0  0  -0.053152  0.000324  0  3.866947  0
N  N96  1  0.28584012  0.58058813  0.09544181  1  0  -0.421993  0  3.263778  0  0  -0.35796  0  3.50259  0  0  -0.37992  0  3.510119  0  0  -0.40234  -0.342906  0  3.497123  0
N  N97  1  0.21416199  0.41940969  0.59543804  1  0  -0.421883  0  3.263992  0  0  -0.357887  0  3.502773  0  0  -0.37984  0  3.510305  0  0  -0.402335  -0.342836  0  3.497307  0
N  N98  1  0.71416486  0.08058960  0.40455895  1  0  -0.422013  0  3.263982  0  0  -0.357972  0  3.502741  0  0  -0.379932  0  3.510269  0  0  -0.402349  -0.342919  0  3.497275  0
N  N99  1  0.78583487  0.91941268  0.90456110  1  0  -0.421985  0  3.26402  0  0  -0.357983  0  3.502803  0  0  -0.37994  0  3.510333  0  0  -0.402341  -0.342934  0  3.497337  0
O  O100  1  0.58125089  0.41053036  0.12294196  1  0  -0.698272  0  1.993073  0  0  -0.642942  0  2.226996  0  0  -0.669582  0  2.216855  0  0  -0.361379  -0.624066  0  2.233363  0
O  O101  1  0.91873757  0.58946755  0.62293037  1  0  -0.69829  0  1.992992  0  0  -0.643034  0  2.22684  0  0  -0.669678  0  2.216707  0  0  -0.361498  -0.624156  0  2.233214  0
O  O102  1  0.41874995  0.91051738  0.37705750  1  0  -0.698288  0  1.992923  0  0  -0.642949  0  2.226849  0  0  -0.669591  0  2.216712  0  0  -0.361326  -0.624078  0  2.233219  0
O  O103  1  0.08125611  0.08947322  0.87706559  1  0  -0.69826  0  1.992966  0  0  -0.642992  0  2.226844  0  0  -0.669633  0  2.216714  0  0  -0.361442  -0.624113  0  2.233216  0
O  O104  1  0.84073113  0.29239716  0.09019237  1  0  -0.724558  0  2.025461  0  0  -0.666562  0  2.279886  0  0  -0.695463  0  2.271632  0  0  -0.370784  -0.645941  0  2.284783  0
O  O105  1  0.65926747  0.70762303  0.59019177  1  0  -0.724587  0  2.025614  0  0  -0.666638  0  2.279901  0  0  -0.695537  0  2.271643  0  0  -0.370824  -0.646018  0  2.284808  0
O  O106  1  0.15926125  0.79238596  0.40980939  1  0  -0.724653  0  2.025336  0  0  -0.66661  0  2.279692  0  0  -0.69552  0  2.271461  0  0  -0.370834  -0.645998  0  2.284603  0
O  O107  1  0.34073322  0.20762005  0.90980860  1  0  -0.7246  0  2.025531  0  0  -0.666603  0  2.279797  0  0  -0.695519  0  2.271587  0  0  -0.370793  -0.645983  0  2.28471  0
O  O108  1  0.55031320  0.62451811  0.36434903  1  0  -0.657547  0  1.904568  0  0  -0.608987  0  2.128973  0  0  -0.634526  0  2.121236  0  0  -0.355475  -0.591015  0  2.133892  0
O  O109  1  0.94967906  0.37547747  0.86434541  1  0  -0.657499  0  1.904465  0  0  -0.608942  0  2.128905  0  0  -0.63448  0  2.121167  0  0  -0.355537  -0.590974  0  2.133834  0
O  O110  1  0.44968195  0.12451893  0.13565226  1  0  -0.657548  0  1.904457  0  0  -0.608985  0  2.128867  0  0  -0.634525  0  2.121133  0  0  -0.355485  -0.591013  0  2.133791  0
O  O111  1  0.05032177  0.87546723  0.63565990  1  0  -0.657497  0  1.904492  0  0  -0.608938  0  2.128932  0  0  -0.634475  0  2.121195  0  0  -0.355445  -0.590969  0  2.133854  0
O  O112  1  0.80303341  0.62484629  0.44350228  1  0  -0.769182  0  2.030376  0  0  -0.70895  0  2.288723  0  0  -0.737799  0  2.277744  0  0  -0.410156  -0.688162  0  2.295645  0
O  O113  1  0.69695621  0.37516269  0.94349853  1  0  -0.769199  0  2.030298  0  0  -0.708952  0  2.288649  0  0  -0.737798  0  2.277671  0  0  -0.410179  -0.688166  0  2.295577  0
O  O114  1  0.19695442  0.12484426  0.05650013  1  0  -0.769223  0  2.030271  0  0  -0.70898  0  2.28861  0  0  -0.737826  0  2.277632  0  0  -0.410209  -0.688194  0  2.295538  0
O  O115  1  0.30303877  0.87515362  0.55650231  1  0  -0.76919  0  2.030103  0  0  -0.708932  0  2.288458  0  0  -0.73778  0  2.277481  0  0  -0.410142  -0.688151  0  2.295389  0
O  O116  1  0.22289458  0.41105658  0.01570753  1  0  -0.695503  0  2.030155  0  0  -0.638388  0  2.289878  0  0  -0.665808  0  2.280413  0  0  -0.363018  -0.618679  0  2.295656  0
O  O117  1  0.27710871  0.58894911  0.51570818  1  0  -0.695679  0  2.029897  0  0  -0.638548  0  2.289522  0  0  -0.665969  0  2.280064  0  0  -0.363133  -0.618847  0  2.295307  0
O  O118  1  0.77711651  0.91105457  0.48428913  1  0  -0.695431  0  2.03025  0  0  -0.63838  0  2.290023  0  0  -0.665805  0  2.280563  0  0  -0.363006  -0.618662  0  2.295766  0
O  O119  1  0.72288644  0.08895048  0.98429226  1  0  -0.695693  0  2.029966  0  0  -0.638546  0  2.289628  0  0  -0.665968  0  2.280163  0  0  -0.363114  -0.618839  0  2.295409  0
