# generated using pymatgen
data_CdH26C26SN8O5
_symmetry_space_group_name_H-M   'P 1'
_cell_length_a   11.88966623
_cell_length_b   11.88567558
_cell_length_c   23.12946830
_cell_angle_alpha   95.76005713
_cell_angle_beta   101.66822439
_cell_angle_gamma   114.30423971
_symmetry_Int_Tables_number   1
_chemical_formula_structural   CdH26C26SN8O5
_chemical_formula_sum   'Cd4 H104 C104 S4 N32 O20'
_cell_volume   2854.94489254
_cell_formula_units_Z   4
loop_
 _symmetry_equiv_pos_site_id
 _symmetry_equiv_pos_as_xyz
  1  'x, y, z'
loop_
 _atom_site_type_symbol
 _atom_site_label
 _atom_site_symmetry_multiplicity
 _atom_site_fract_x
 _atom_site_fract_y
 _atom_site_fract_z
 _atom_site_occupancy
 _atom_site_pbe_bader_charge
 _atom_site_pbe_bader_spin_density
 _atom_site_pbe_cm5_charge
 _atom_site_pbe_ddec_charge
 _atom_site_pbe_ddec_spin_density
 _atom_site_pbe_ddec_sum_bond_order
 _atom_site_pbe_magmom
Cd  Cd0  1  0.62739326  0.89674825  0.82418884  1  1.269202  0  0.790935  0.854246  0  2.224041  0
Cd  Cd1  1  0.07218680  0.30300873  0.67571860  1  1.269118  0  0.790163  0.854368  0  2.224248  0
Cd  Cd2  1  0.37259299  0.10324261  0.17579917  1  1.269218  0  0.79094  0.854254  0  2.224115  0
Cd  Cd3  1  0.92779479  0.69698557  0.32428259  1  1.269057  0  0.790161  0.854435  0  2.224312  0
H  H4  1  0.38907047  0.64753698  0.75527977  1  0.645712  0  0.281844  0.392045  0  0.956501  0
H  H5  1  0.89205334  0.13386799  0.74456966  1  0.676348  0  0.281889  0.392573  0  0.956  0
H  H6  1  0.61093707  0.35244495  0.24471066  1  0.645585  0  0.281806  0.392037  0  0.956539  0
H  H7  1  0.10795846  0.86613732  0.25543738  1  0.676224  0  0.281834  0.392434  0  0.95619  0
H  H8  1  0.34641537  0.69126905  0.81041029  1  0.581314  0  0.297971  0.371156  0  0.937566  0
H  H9  1  0.88076800  0.03622804  0.68936634  1  0.598949  0  0.29882  0.37192  0  0.935829  0
H  H10  1  0.65354004  0.30870541  0.18956383  1  0.580412  0  0.297879  0.371021  0  0.937681  0
H  H11  1  0.11924078  0.96376578  0.31064869  1  0.598981  0  0.298847  0.371912  0  0.935744  0
H  H12  1  0.75574273  0.28801839  0.71657657  1  0.078564  0  0.109586  0.118531  0  1.016386  0
H  H13  1  0.57159818  0.53930873  0.78327515  1  0.087851  0  0.109085  0.117956  0  1.015977  0
H  H14  1  0.24425719  0.71199463  0.28343307  1  0.078933  0  0.109564  0.118468  0  1.016368  0
H  H15  1  0.42836731  0.46070813  0.21673405  1  0.088365  0  0.109002  0.117852  0  1.01609  0
H  H16  1  0.81915525  0.48799621  0.68226983  1  0.052102  0  0.097941  0.09717  0  1.02564  0
H  H17  1  0.80579820  0.63722996  0.81789815  1  0.071438  0  0.098081  0.0977  0  1.024813  0
H  H18  1  0.18085774  0.51202565  0.31774812  1  0.052431  0  0.097953  0.097106  0  1.025526  0
H  H19  1  0.19417896  0.36280425  0.18211554  1  0.071732  0  0.097988  0.097528  0  1.024937  0
H  H20  1  0.42194890  0.40910081  0.61841170  1  0.120036  0  0.104825  0.11449  0  1.040905  0
H  H21  1  0.79058720  0.30362320  0.88168020  1  0.130786  0  0.104884  0.114568  0  1.039993  0
H  H22  1  0.57806884  0.59091918  0.38159594  1  0.120614  0  0.104811  0.114537  0  1.040881  0
H  H23  1  0.20939466  0.69639546  0.11832001  1  0.130761  0  0.10487  0.114564  0  1.039785  0
H  H24  1  0.35777341  0.20897497  0.65381677  1  0.056675  0  0.102255  0.107865  0  1.031612  0
H  H25  1  0.55524436  0.20381074  0.84597711  1  0.09216  0  0.102111  0.10823  0  1.03196  0
H  H26  1  0.64223317  0.79104808  0.34619544  1  0.056475  0  0.10227  0.107863  0  1.03165  0
H  H27  1  0.44474516  0.79619927  0.15402190  1  0.09206  0  0.102163  0.108272  0  1.031735  0
H  H28  1  0.69772513  0.13729362  0.76133380  1  0.214068  0  0.132398  0.111508  0  1.059144  0
H  H29  1  0.37625432  0.43684741  0.73851044  1  0.206485  0  0.132781  0.111734  0  1.060265  0
H  H30  1  0.30226780  0.86271492  0.23866309  1  0.213491  0  0.132348  0.111513  0  1.059076  0
H  H31  1  0.62371240  0.56315718  0.26147960  1  0.206407  0  0.132744  0.111626  0  1.060403  0
H  H32  1  0.33490791  0.82234731  0.70807885  1  0.15433  0  0.11629  0.117277  0  1.024466  0
H  H33  1  0.11449737  0.12707835  0.79161413  1  0.15688  0  0.116741  0.117987  0  1.023498  0
H  H34  1  0.66508038  0.17766691  0.29190814  1  0.154451  0  0.116282  0.117301  0  1.024378  0
H  H35  1  0.88550982  0.87294244  0.20839979  1  0.157617  0  0.116705  0.117998  0  1.023114  0
H  H36  1  0.31149230  0.01841289  0.66081353  1  0.110143  0  0.113485  0.107256  0  1.068086  0
H  H37  1  0.35767567  0.15042100  0.83864353  1  0.128939  0  0.113394  0.107373  0  1.065497  0
H  H38  1  0.68850345  0.98161988  0.33918982  1  0.110397  0  0.113477  0.107209  0  1.068248  0
H  H39  1  0.64232512  0.84961993  0.16137133  1  0.128347  0  0.113295  0.107245  0  1.065725  0
H  H40  1  0.73540638  0.60254520  0.60218669  1  0.044643  0  0.114157  0.099988  0  0.963064  0
H  H41  1  0.00055553  0.63330526  0.89789525  1  0.056362  0  0.114714  0.100823  0  0.962376  0
H  H42  1  0.26462357  0.39745541  0.39781545  1  0.044742  0  0.114158  0.099863  0  0.963216  0
H  H43  1  0.99944250  0.36670118  0.10211470  1  0.056527  0  0.114749  0.100925  0  0.962525  0
H  H44  1  0.57799067  0.58841606  0.59829923  1  0.111156  0  0.121897  0.123456  0  0.978084  0
H  H45  1  0.99024001  0.47969615  0.90155898  1  0.120298  0  0.121983  0.12438  0  0.978395  0
H  H46  1  0.42204215  0.41159373  0.40169872  1  0.110958  0  0.121805  0.123398  0  0.978166  0
H  H47  1  0.00974516  0.52030664  0.09844262  1  0.120009  0  0.121981  0.124411  0  0.978398  0
H  H48  1  0.53943962  0.68958973  0.69139516  1  0.256638  0  0.13349  0.118133  0  1.069654  0
H  H49  1  0.99800718  0.34824361  0.80847068  1  0.244963  0  0.133422  0.118795  0  1.067808  0
H  H50  1  0.46059156  0.31047214  0.30857825  1  0.256868  0  0.133557  0.118231  0  1.06948  0
H  H51  1  0.00193178  0.65173227  0.19152176  1  0.243962  0  0.133448  0.118766  0  1.067936  0
H  H52  1  0.92084589  0.91259908  0.79663430  1  0.188003  0  0.1135  0.125407  0  1.039759  0
H  H53  1  0.11537797  0.62442997  0.70316749  1  0.172115  0  0.11353  0.125933  0  1.040044  0
H  H54  1  0.07917388  0.08741818  0.20336026  1  0.18797  0  0.113469  0.125453  0  1.039798  0
H  H55  1  0.88456050  0.37555342  0.29682981  1  0.17227  0  0.113458  0.125781  0  1.039908  0
H  H56  1  0.91851728  0.74779363  0.69871102  1  0.096938  0  0.11924  0.121418  0  1.012152  0
H  H57  1  0.04926954  0.72021064  0.80131185  1  0.073101  0  0.118992  0.120828  0  1.012915  0
H  H58  1  0.08151045  0.25222887  0.30129056  1  0.097387  0  0.119233  0.121435  0  1.01224  0
H  H59  1  0.95068819  0.27977275  0.19868050  1  0.073448  0  0.119023  0.120909  0  1.012801  0
H  H60  1  0.82692534  0.57002962  0.02350820  1  0.138143  0  0.111424  0.139397  0  1.021754  0
H  H61  1  0.54736934  0.30536265  0.47658326  1  0.132062  0  0.112076  0.140776  0  1.021443  0
H  H62  1  0.17307893  0.42998929  0.97649799  1  0.138515  0  0.111374  0.139431  0  1.021564  0
H  H63  1  0.45264643  0.69463788  0.52342144  1  0.131966  0  0.112094  0.140865  0  1.021608  0
H  H64  1  0.74129964  0.35653253  0.04694784  1  0.056414  0  0.100456  0.099826  0  1.006176  0
H  H65  1  0.31047246  0.19674211  0.45293596  1  0.070432  0  0.10012  0.099149  0  1.007385  0
H  H66  1  0.25872769  0.64350486  0.95306597  1  0.056754  0  0.100446  0.099817  0  1.006155  0
H  H67  1  0.68954101  0.80326907  0.54707442  1  0.070014  0  0.100126  0.099068  0  1.007432  0
H  H68  1  0.36675112  0.26897467  0.93565976  1  0.077251  0  0.106454  0.110008  0  0.996231  0
H  H69  1  0.33289495  0.93174494  0.56342010  1  0.074698  0  0.106413  0.110034  0  0.997493  0
H  H70  1  0.63325429  0.73100077  0.06433454  1  0.077374  0  0.106457  0.109972  0  0.996425  0
H  H71  1  0.66708381  0.06823744  0.43656728  1  0.074346  0  0.106355  0.10993  0  0.997368  0
H  H72  1  0.44999110  0.47746328  0.91067710  1  0.066752  0  0.109634  0.115827  0  1.001215  0
H  H73  1  0.56637102  0.03931220  0.58850812  1  0.089142  0  0.110214  0.116086  0  1.000386  0
H  H74  1  0.55002751  0.52251666  0.08930765  1  0.06604  0  0.109701  0.116001  0  1.001002  0
H  H75  1  0.43360530  0.96064562  0.41147991  1  0.089715  0  0.110212  0.116085  0  1.000387  0
H  H76  1  0.52757904  0.63178872  0.87656605  1  0.173727  0  0.129075  0.099004  0  1.044104  0
H  H77  1  0.75463838  0.15129354  0.62320637  1  0.158834  0  0.129124  0.09869  0  1.044614  0
H  H78  1  0.47240932  0.36821454  0.12343883  1  0.173862  0  0.129078  0.098994  0  1.043977  0
H  H79  1  0.24534060  0.84869017  0.37679458  1  0.158689  0  0.129163  0.098729  0  1.044543  0
H  H80  1  0.88955235  0.94216374  0.94238864  1  0.155567  0  0.118814  0.129385  0  1.020037  0
H  H81  1  0.00014195  0.44641916  0.55718950  1  0.161096  0  0.118628  0.129033  0  1.019083  0
H  H82  1  0.11044677  0.05783912  0.05759771  1  0.155536  0  0.118787  0.129373  0  1.020115  0
H  H83  1  0.99986125  0.55351399  0.44279608  1  0.161196  0  0.118694  0.129053  0  1.019312  0
H  H84  1  0.88470286  0.75566148  0.00835283  1  0.195466  0  0.122314  0.140119  0  1.048931  0
H  H85  1  0.74794252  0.37654165  0.49122492  1  0.192591  0  0.121928  0.140238  0  1.049289  0
H  H86  1  0.11530297  0.24434379  0.99163940  1  0.195289  0  0.122345  0.140133  0  1.048778  0
H  H87  1  0.25205694  0.62340433  0.50875708  1  0.192736  0  0.121975  0.1404  0  1.049431  0
H  H88  1  0.56762129  0.15757423  0.03971120  1  0.071384  0  0.107478  0.084185  0  1.046168  0
H  H89  1  0.11802759  0.02979592  0.46001234  1  0.057736  0  0.107537  0.085055  0  1.04582  0
H  H90  1  0.43243116  0.84243207  0.96028619  1  0.071898  0  0.107281  0.083896  0  1.046558  0
H  H91  1  0.88197416  0.97020104  0.53998662  1  0.057536  0  0.107512  0.084969  0  1.045948  0
H  H92  1  0.40889095  0.14120956  0.01814944  1  0.086535  0  0.116497  0.105983  0  0.996591  0
H  H93  1  0.12337047  0.89228731  0.48100427  1  0.119717  0  0.116499  0.106291  0  0.997805  0
H  H94  1  0.59115751  0.85878349  0.98186942  1  0.085834  0  0.116493  0.105956  0  0.996572  0
H  H95  1  0.87663385  0.10771237  0.51899626  1  0.119759  0  0.116436  0.106132  0  0.997755  0
H  H96  1  0.65751982  0.10698863  0.94242823  1  0.196824  0  0.140565  0.125994  0  0.98562  0
H  H97  1  0.16379212  0.21549133  0.55738969  1  0.17713  0  0.140608  0.126185  0  0.98731  0
H  H98  1  0.34249488  0.89301547  0.05755026  1  0.197167  0  0.140526  0.12594  0  0.985778  0
H  H99  1  0.83622301  0.78451094  0.44261234  1  0.176932  0  0.140596  0.126159  0  0.987279  0
H  H100  1  0.29523200  0.85119877  0.82905587  1  0.09902  0  0.108651  0.09103  0  1.05663  0
H  H101  1  0.02300194  0.96545816  0.67058658  1  0.083471  0  0.109224  0.091934  0  1.052684  0
H  H102  1  0.70475200  0.14878444  0.17095798  1  0.099566  0  0.108761  0.091135  0  1.05661  0
H  H103  1  0.97695955  0.03454104  0.32940693  1  0.083548  0  0.109243  0.091949  0  1.052843  0
H  H104  1  0.26019575  0.98689805  0.92383008  1  0.152974  0  0.132642  0.14225  0  0.976963  0
H  H105  1  0.06431461  0.83674868  0.57550546  1  0.132054  0  0.13253  0.142604  0  0.977594  0
H  H106  1  0.73983714  0.01309112  0.07619487  1  0.15254  0  0.1326  0.142316  0  0.976541  0
H  H107  1  0.93565146  0.16325347  0.42448691  1  0.132102  0  0.132513  0.142666  0  0.977392  0
C  C108  1  0.55216862  0.23386099  0.68697632  1  0.282919  0  0.092745  0.160248  0  4.028145  0
C  C109  1  0.54698942  0.36503669  0.81272240  1  0.289168  0  0.093015  0.160883  0  4.026929  0
C  C110  1  0.44783211  0.76614700  0.31302006  1  0.280818  0  0.092885  0.16047  0  4.027424  0
C  C111  1  0.45299028  0.63496202  0.18727086  1  0.27323  0  0.093047  0.161009  0  4.02745  0
C  C112  1  0.68205599  0.31394312  0.69534945  1  -0.050083  0  -0.093032  -0.168571  0  3.991921  0
C  C113  1  0.61872946  0.48670663  0.80448204  1  -0.000244  0  -0.092609  -0.168632  0  3.989166  0
C  C114  1  0.31795448  0.68607359  0.30465753  1  -0.050669  0  -0.093066  -0.168576  0  3.991847  0
C  C115  1  0.38126646  0.51330452  0.19551589  1  -0.000246  0  -0.092522  -0.168601  0  3.989469  0
C  C116  1  0.71748428  0.42732086  0.67564785  1  -0.016347  0  -0.089555  -0.109441  0  3.982703  0
C  C117  1  0.75180617  0.54192095  0.82429566  1  -0.065951  0  -0.090426  -0.111035  0  3.98131  0
C  C118  1  0.28253875  0.57269691  0.32435964  1  -0.016134  0  -0.089555  -0.109367  0  3.982877  0
C  C119  1  0.24818368  0.45809665  0.17571577  1  -0.06669  0  -0.090387  -0.110847  0  3.981018  0
C  C120  1  0.62489914  0.46268230  0.64747161  1  -0.051353  0  -0.016374  0.076243  0  3.963949  0
C  C121  1  0.81537810  0.47751390  0.85247994  1  -0.05846  0  -0.015414  0.077709  0  3.962447  0
C  C122  1  0.37510893  0.53732871  0.35252647  1  -0.05131  0  -0.016443  0.076231  0  3.964163  0
C  C123  1  0.18461750  0.52249762  0.14752052  1  -0.058327  0  -0.015342  0.077739  0  3.962126  0
C  C124  1  0.49528460  0.38226961  0.63967065  1  0.065125  0  -0.083988  -0.105746  0  3.945964  0
C  C125  1  0.74269018  0.35565893  0.86023952  1  0.091915  0  -0.0842  -0.105986  0  3.943614  0
C  C126  1  0.50472382  0.61773606  0.36032998  1  0.064424  0  -0.08395  -0.105848  0  3.945877  0
C  C127  1  0.25731209  0.64435579  0.13976673  1  0.092334  0  -0.08427  -0.106107  0  3.943836  0
C  C128  1  0.45896810  0.26893478  0.65954226  1  -0.019437  0  -0.094887  -0.163984  0  3.990872  0
C  C129  1  0.60946395  0.29930505  0.84024957  1  -0.139939  0  -0.094822  -0.164677  0  3.988275  0
C  C130  1  0.54104482  0.73108256  0.34046245  1  -0.019068  0  -0.094868  -0.163923  0  3.99037  0
C  C131  1  0.39052201  0.70069118  0.15974553  1  -0.124617  0  -0.094834  -0.164651  0  3.988476  0
C  C132  1  0.59647243  0.07835071  0.73953570  1  0.923297  0  0.138156  0.093826  0  3.887088  0
C  C133  1  0.33905271  0.35722582  0.76020913  1  0.921022  0  0.138239  0.095121  0  3.886154  0
C  C134  1  0.40352789  0.92165291  0.26045760  1  0.924597  0  0.138232  0.093869  0  3.887149  0
C  C135  1  0.66091579  0.64276677  0.23978912  1  0.921399  0  0.138292  0.095506  0  3.886621  0
C  C136  1  0.40643174  0.91872225  0.71337880  1  0.389162  0  -0.003716  -0.024877  0  3.988345  0
C  C137  1  0.20555263  0.19325126  0.78629532  1  0.397223  0  -0.003642  -0.025273  0  3.989516  0
C  C138  1  0.59356005  0.08128657  0.28661306  1  0.388792  0  -0.003693  -0.024886  0  3.988492  0
C  C139  1  0.79442667  0.80675136  0.21371840  1  0.397579  0  -0.003528  -0.025205  0  3.988978  0
C  C140  1  0.39398253  0.01456051  0.68871126  1  0.272148  0  -0.006138  -0.107579  0  3.931411  0
C  C141  1  0.32594562  0.20518014  0.81082615  1  0.270274  0  -0.005729  -0.106962  0  3.929266  0
C  C142  1  0.60601003  0.98545733  0.31128572  1  0.272989  0  -0.006138  -0.107627  0  3.931948  0
C  C143  1  0.67402946  0.79482672  0.18917626  1  0.270342  0  -0.005525  -0.106675  0  3.928639  0
C  C144  1  0.66285509  0.58726687  0.62728434  1  0.311471  0  -0.043136  -0.1145  0  3.878021  0
C  C145  1  0.96009550  0.53570771  0.87269535  1  0.312312  0  -0.044199  -0.116529  0  3.878356  0
C  C146  1  0.33716875  0.41274750  0.37271937  1  0.31141  0  -0.043042  -0.114269  0  3.878029  0
C  C147  1  0.03987829  0.46429162  0.12730996  1  0.312471  0  -0.044251  -0.116734  0  3.878404  0
C  C148  1  0.64380342  0.73220064  0.70690892  1  0.908859  0  0.13635  0.096388  0  3.873107  0
C  C149  1  0.02512808  0.43715159  0.79295948  1  0.892399  0  0.13676  0.095616  0  3.87409  0
C  C150  1  0.35622212  0.26783234  0.29307548  1  0.908651  0  0.136212  0.096263  0  3.872831  0
C  C151  1  0.97483835  0.56284940  0.20703044  1  0.893806  0  0.136938  0.09596  0  3.874239  0
C  C152  1  0.84275552  0.84209880  0.75982915  1  0.352196  0  -0.014828  -0.056164  0  4.036961  0
C  C153  1  0.08194892  0.58319354  0.74002039  1  0.319993  0  -0.014896  -0.056371  0  4.037768  0
C  C154  1  0.15726617  0.15791559  0.24016659  1  0.352383  0  -0.014807  -0.056172  0  4.03716  0
C  C155  1  0.91801706  0.41681417  0.25997446  1  0.319741  0  -0.014866  -0.05635  0  4.036693  0
C  C156  1  0.84259505  0.76321853  0.71175135  1  0.241807  0  -0.016327  -0.152787  0  3.994197  0
C  C157  1  0.05150991  0.63120687  0.78820206  1  0.323647  0  -0.016077  -0.151329  0  3.991271  0
C  C158  1  0.15742230  0.23678315  0.28825108  1  0.241556  0  -0.016536  -0.153036  0  3.994442  0
C  C159  1  0.94847535  0.36880136  0.21178881  1  0.323678  0  -0.015978  -0.151287  0  3.990637  0
C  C160  1  0.64537378  0.53586813  0.96333280  1  0.293969  0  0.100509  0.174499  0  4.00583  0
C  C161  1  0.57261215  0.18294848  0.53636697  1  0.34479  0  0.101631  0.17714  0  4.001741  0
C  C162  1  0.35465602  0.46413048  0.03668176  1  0.293242  0  0.100698  0.174804  0  4.006352  0
C  C163  1  0.42738876  0.81701845  0.46362598  1  0.342584  0  0.101636  0.176931  0  4.001158  0
C  C164  1  0.72689753  0.50306220  0.00289772  1  4e-05  0  -0.085257  -0.153093  0  3.926141  0
C  C165  1  0.50066774  0.22567725  0.49702234  1  0.037504  0  -0.085496  -0.155463  0  3.92584  0
C  C166  1  0.27312181  0.49693848  0.99711738  1  0.001133  0  -0.085336  -0.15348  0  3.925597  0
C  C167  1  0.49933670  0.77430773  0.50298579  1  0.039278  0  -0.085537  -0.155641  0  3.926116  0
C  C168  1  0.67780525  0.38331097  0.01657929  1  -0.045295  0  -0.089551  -0.117313  0  3.985096  0
C  C169  1  0.36721652  0.16310646  0.48321279  1  -0.07215  0  -0.089049  -0.115203  0  3.986834  0
C  C170  1  0.32221630  0.61671721  0.98343283  1  -0.04598  0  -0.089541  -0.117199  0  3.983545  0
C  C171  1  0.63278011  0.83688007  0.51678812  1  -0.071826  0  -0.089023  -0.114889  0  3.986686  0
C  C172  1  0.54919909  0.29722694  0.99184996  1  0.008902  0  -0.023076  0.067351  0  4.015126  0
C  C173  1  0.30551209  0.05884118  0.50764129  1  -0.072956  0  -0.023723  0.06582  0  4.017969  0
C  C174  1  0.45086817  0.70279379  0.00816013  1  0.00993  0  -0.023238  0.067148  0  4.014675  0
C  C175  1  0.69446681  0.94114994  0.49236399  1  -0.072715  0  -0.023658  0.065686  0  4.017979  0
C  C176  1  0.46842205  0.33309365  0.95370685  1  -0.060051  0  -0.091942  -0.123884  0  4.012813  0
C  C177  1  0.37923339  0.01569969  0.54565639  1  -0.080301  0  -0.092044  -0.123961  0  4.014184  0
C  C178  1  0.53160380  0.66689549  0.04629931  1  -0.060433  0  -0.091756  -0.12362  0  4.013222  0
C  C179  1  0.62075576  0.98427123  0.45433853  1  -0.079646  0  -0.092029  -0.123941  0  4.014281  0
C  C180  1  0.51582492  0.45102484  0.93920351  1  0.004877  0  -0.088346  -0.159773  0  4.012396  0
C  C181  1  0.51163268  0.07721337  0.56023615  1  0.004089  0  -0.089293  -0.160489  0  4.010424  0
C  C182  1  0.48418526  0.54896667  0.06079490  1  0.005507  0  -0.088645  -0.160341  0  4.013097  0
C  C183  1  0.48835565  0.92276909  0.43976019  1  0.003348  0  -0.08929  -0.160248  0  4.009871  0
C  C184  1  0.62451988  0.69035691  0.90391166  1  0.92402  0  0.134602  0.084895  0  3.952999  0
C  C185  1  0.78621753  0.22068367  0.59580654  1  0.949496  0  0.134795  0.086601  0  3.95371  0
C  C186  1  0.37547354  0.30963994  0.09608538  1  0.923709  0  0.134605  0.084914  0  3.952944  0
C  C187  1  0.21378030  0.77928652  0.40419646  1  0.948379  0  0.134885  0.08653  0  3.953586  0
C  C188  1  0.81362135  0.84942835  0.93963081  1  0.407365  0  -0.003099  -0.031776  0  3.973898  0
C  C189  1  0.90999847  0.37343309  0.55993501  1  0.416334  0  -0.003046  -0.029334  0  3.970224  0
C  C190  1  0.18637370  0.15057486  0.06036088  1  0.407405  0  -0.003031  -0.031693  0  3.974268  0
C  C191  1  0.08998647  0.62649137  0.44005125  1  0.415814  0  -0.003166  -0.029264  0  3.969958  0
C  C192  1  0.81297442  0.75729113  0.97121428  1  0.221227  0  0.000539  -0.102525  0  3.869124  0
C  C193  1  0.78641920  0.34168941  0.52835389  1  0.227917  0  -0.000224  -0.104988  0  3.86905  0
C  C194  1  0.18701989  0.24270807  0.02877686  1  0.221247  0  0.000461  -0.102672  0  3.868997  0
C  C195  1  0.21357769  0.65826413  0.47163463  1  0.227679  0  -0.000274  -0.105252  0  3.869271  0
C  C196  1  0.49725889  0.16607651  0.00390983  1  0.261754  0  -0.051468  -0.118142  0  3.90856  0
C  C197  1  0.16232239  0.99480254  0.49558385  1  0.310146  0  -0.052135  -0.121109  0  3.913675  0
C  C198  1  0.50277683  0.83392465  0.99609540  1  0.261192  0  -0.051141  -0.117674  0  3.908641  0
C  C199  1  0.83766626  0.00518853  0.50441717  1  0.310378  0  -0.052  -0.120706  0  3.913186  0
C  C200  1  0.55419629  0.05435136  0.92466306  1  0.936227  0  0.140894  0.092043  0  3.90488  0
C  C201  1  0.12948743  0.12977952  0.57505962  1  0.958313  0  0.141236  0.092521  0  3.906472  0
C  C202  1  0.44581158  0.94565048  0.07533242  1  0.936059  0  0.140775  0.091943  0  3.904992  0
C  C203  1  0.87053040  0.87022462  0.42493744  1  0.958495  0  0.141099  0.092362  0  3.906432  0
C  C204  1  0.36604307  0.92368076  0.86711500  1  0.353809  0  -0.01206  -0.054755  0  4.065645  0
C  C205  1  0.05725167  0.99857159  0.63251819  1  0.400756  0  -0.011568  -0.052928  0  4.059982  0
C  C206  1  0.63395271  0.07630162  0.13289961  1  0.352959  0  -0.01216  -0.054759  0  4.065403  0
C  C207  1  0.94273707  0.00143072  0.36747659  1  0.400501  0  -0.011589  -0.052886  0  4.060015  0
C  C208  1  0.34626984  0.98973289  0.91347823  1  0.282968  0  -0.00208  -0.125228  0  3.937424  0
C  C209  1  0.07707733  0.93300249  0.58597920  1  0.286646  0  -0.002091  -0.127565  0  3.937473  0
C  C210  1  0.65374218  0.01025664  0.08653753  1  0.283579  0  -0.001946  -0.125313  0  3.936854  0
C  C211  1  0.92290637  0.06700196  0.41401217  1  0.286475  0  -0.002141  -0.127804  0  3.937161  0
S  S212  1  0.91567024  0.15104890  0.87197437  1  3.748786  0  0.529501  1.403116  0  6.4582  0
S  S213  1  0.27893351  0.54346899  0.62788845  1  3.739362  0  0.529877  1.403291  0  6.457393  0
S  S214  1  0.08432652  0.84895288  0.12803259  1  3.748964  0  0.52972  1.403546  0  6.457367  0
S  S215  1  0.72109691  0.45651576  0.37211885  1  3.740784  0  0.529986  1.403518  0  6.45668  0
N  N216  1  0.51561362  0.11592038  0.70512185  1  -1.258402  0  -0.227031  0.005512  0  3.781996  0
N  N217  1  0.41093773  0.31043856  0.79447727  1  -1.268342  0  -0.227402  0.005026  0  3.781168  0
N  N218  1  0.48438667  0.88410299  0.29487806  1  -1.257562  0  -0.227165  0.005428  0  3.782062  0
N  N219  1  0.58903745  0.68955724  0.20552678  1  -1.268209  0  -0.22749  0.004861  0  3.781158  0
N  N220  1  0.53294857  0.96036183  0.74511107  1  -1.20493  0  -0.358353  -0.288204  0  3.521149  0
N  N221  1  0.21552785  0.28830570  0.75471779  1  -1.219562  0  -0.358444  -0.289408  0  3.522545  0
N  N222  1  0.46704392  0.03964181  0.25488178  1  -1.205623  0  -0.358403  -0.288283  0  3.521223  0
N  N223  1  0.78444878  0.71168497  0.24528516  1  -1.22016  0  -0.358621  -0.289834  0  3.522931  0
N  N224  1  0.71589041  0.69447137  0.67868623  1  -1.213895  0  -0.245225  0.042943  0  3.767737  0
N  N225  1  0.01591690  0.53758596  0.82129356  1  -1.210621  0  -0.245009  0.042407  0  3.76574  0
N  N226  1  0.28413382  0.30554654  0.32131100  1  -1.213333  0  -0.245067  0.042998  0  3.767748  0
N  N227  1  0.98407255  0.46244459  0.17871200  1  -1.211203  0  -0.245175  0.042313  0  3.766663  0
N  N228  1  0.71777344  0.82110495  0.75614433  1  -1.219293  0  -0.3556  -0.30078  0  3.486993  0
N  N229  1  0.06451801  0.46179425  0.74366745  1  -1.202309  0  -0.355173  -0.300591  0  3.48762  0
N  N230  1  0.28224809  0.17892494  0.24384373  1  -1.220186  0  -0.355519  -0.300725  0  3.487256  0
N  N231  1  0.93544561  0.53821724  0.25632668  1  -1.202574  0  -0.355226  -0.300598  0  3.487265  0
N  N232  1  0.69178955  0.65601696  0.94787664  1  -1.252462  0  -0.22776  0.00074  0  3.80746  0
N  N233  1  0.70820826  0.24424458  0.55180088  1  -1.305243  0  -0.227345  0.000845  0  3.806077  0
N  N234  1  0.30820237  0.34398714  0.05212231  1  -1.252477  0  -0.227806  0.000838  0  3.807519  0
N  N235  1  0.29178215  0.75571522  0.44819305  1  -1.305119  0  -0.227383  0.00104  0  3.805915  0
N  N236  1  0.69544077  0.80604430  0.89806064  1  -1.199566  0  -0.358947  -0.28327  0  3.533422  0
N  N237  1  0.90786751  0.29694036  0.60159523  1  -1.217534  0  -0.359547  -0.286696  0  3.536491  0
N  N238  1  0.30455237  0.19396178  0.10192988  1  -1.199408  0  -0.358863  -0.283165  0  3.53383  0
N  N239  1  0.09212119  0.70301600  0.39840477  1  -1.215787  0  -0.359601  -0.286857  0  3.536003  0
N  N240  1  0.46693924  0.07205723  0.94963749  1  -1.220092  0  -0.24647  0.03538  0  3.787834  0
N  N241  1  0.12268167  0.01790406  0.54992012  1  -1.233773  0  -0.247006  0.037898  0  3.789018  0
N  N242  1  0.53308087  0.92793056  0.05036566  1  -1.219939  0  -0.246405  0.035566  0  3.787129  0
N  N243  1  0.87731936  0.98210203  0.45008050  1  -1.233504  0  -0.24691  0.037951  0  3.788529  0
N  N244  1  0.49583561  0.96455294  0.87481692  1  -1.195932  0  -0.35083  -0.298052  0  3.46849  0
N  N245  1  0.08981135  0.12073822  0.62495793  1  -1.210162  0  -0.35142  -0.300551  0  3.467002  0
N  N246  1  0.50414778  0.03543058  0.12517712  1  -1.196242  0  -0.350902  -0.298216  0  3.468878  0
N  N247  1  0.91018808  0.87926591  0.37503538  1  -1.210047  0  -0.351355  -0.300412  0  3.466932  0
O  O248  1  0.42140510  0.69200858  0.79946133  1  -1.233412  0  -0.586993  -0.758369  0  2.014942  0
O  O249  1  0.89249058  0.12216439  0.70040014  1  -1.281943  0  -0.587221  -0.758662  0  2.014089  0
O  O250  1  0.57857148  0.30797809  0.20052932  1  -1.23237  0  -0.586868  -0.758251  0  2.015063  0
O  O251  1  0.10751745  0.87782776  0.29960750  1  -1.281883  0  -0.58719  -0.758541  0  2.014194  0
O  O252  1  0.78814121  0.08248527  0.88587880  1  -1.334784  0  -0.395291  -0.693619  0  2.252301  0
O  O253  1  0.19662946  0.40202405  0.61419244  1  -1.334416  0  -0.395637  -0.694458  0  2.254204  0
O  O254  1  0.21185704  0.91749030  0.11411956  1  -1.334775  0  -0.39533  -0.693843  0  2.252324  0
O  O255  1  0.80339276  0.59797451  0.38581810  1  -1.335525  0  -0.395669  -0.694525  0  2.253914  0
O  O256  1  0.88475748  0.17467489  0.80886491  1  -1.360565  0  -0.380915  -0.702929  0  2.266349  0
O  O257  1  0.36581271  0.57603801  0.69098890  1  -1.366445  0  -0.380682  -0.70194  0  2.267085  0
O  O258  1  0.11524647  0.82532310  0.19114395  1  -1.360612  0  -0.380909  -0.702958  0  2.265942  0
O  O259  1  0.63423742  0.42395997  0.30900748  1  -1.366068  0  -0.380693  -0.702059  0  2.266663  0
O  O260  1  0.98564978  0.07309048  0.87439723  1  -1.337451  0  -0.394854  -0.691101  0  2.105185  0
O  O261  1  0.19847700  0.61095888  0.62533906  1  -1.338193  0  -0.394868  -0.691098  0  2.104802  0
O  O262  1  0.01437466  0.92693875  0.12561305  1  -1.337402  0  -0.394833  -0.691136  0  2.10511  0
O  O263  1  0.80156909  0.38904895  0.37467083  1  -1.339269  0  -0.394884  -0.691039  0  2.104593  0
O  O264  1  0.98896499  0.27391800  0.91511738  1  -1.365646  0  -0.390791  -0.690807  0  2.129127  0
O  O265  1  0.35842457  0.57323475  0.58464775  1  -1.350977  0  -0.389784  -0.689748  0  2.129925  0
O  O266  1  0.01100095  0.72607666  0.08489152  1  -1.366021  0  -0.390955  -0.690972  0  2.128881  0
O  O267  1  0.64158607  0.42672743  0.41534499  1  -1.350543  0  -0.38975  -0.689797  0  2.130216  0
