# generated using pymatgen
data_Al4H11C32O20F
_symmetry_space_group_name_H-M   'P 1'
_cell_length_a   6.69360482
_cell_length_b   16.36375562
_cell_length_c   18.85578651
_cell_angle_alpha   73.85130019
_cell_angle_beta   90.05341423
_cell_angle_gamma   89.67936162
_symmetry_Int_Tables_number   1
_chemical_formula_structural   Al4H11C32O20F
_chemical_formula_sum   'Al4 H11 C32 O20 F1'
_cell_volume   1983.79276863
_cell_formula_units_Z   1
loop_
 _symmetry_equiv_pos_site_id
 _symmetry_equiv_pos_as_xyz
  1  'x, y, z'
loop_
 _atom_site_type_symbol
 _atom_site_label
 _atom_site_symmetry_multiplicity
 _atom_site_fract_x
 _atom_site_fract_y
 _atom_site_fract_z
 _atom_site_occupancy
 _atom_site_pbe_bader_charge
 _atom_site_pbe_bader_spin_density
 _atom_site_pbe_cm5_charge
 _atom_site_pbe_ddec_charge
 _atom_site_pbe_ddec_spin_density
 _atom_site_pbe_ddec_sum_bond_order
 _atom_site_pbe_magmom
Al  Al0  1  0.11591367  0.49980648  0.49843933  1  2.502609  0  0.405435  1.642598  0  2.579888  0
Al  Al1  1  0.61588463  0.50158214  0.49697406  1  2.501452  0  0.404333  1.643291  0  2.578691  0
Al  Al2  1  0.61834586  0.99987831  0.99979149  1  2.502682  0  0.404258  1.646311  0  2.580006  0
Al  Al3  1  0.11795471  0.99946888  0.99953730  1  2.50303  0  0.404815  1.644741  0  2.57871  0
H  H4  1  0.54788123  0.69714501  0.31120858  1  0.10363  0  0.109919  0.113315  0  1.006209  0
H  H5  1  0.54979095  0.81477084  0.19170889  1  0.082056  0  0.109224  0.113019  0  1.006635  0
H  H6  1  0.19017580  0.80326533  0.18745593  1  0.11177  0  0.108835  0.11227  0  1.008119  0
H  H7  1  0.18825592  0.68516662  0.30669084  1  0.11795  0  0.11015  0.1137  0  1.005691  0
H  H8  1  0.05648998  0.29766687  0.68033328  1  0.123213  0  0.105309  0.1112  0  1.031778  0
H  H9  1  0.04890310  0.18092109  0.79896871  1  0.098258  0  0.110615  0.118013  0  1.001796  0
H  H10  1  0.68543953  0.20296764  0.81945829  1  0.121459  0  0.11904  0.146187  0  0.990405  0
H  H11  1  0.36284275  0.60106690  0.51208446  1  0.634034  0  0.356634  0.437565  0  0.843708  0
H  H12  1  0.86307952  0.39292994  0.54208465  1  0.599868  0  0.354637  0.434338  0  0.848945  0
H  H13  1  0.37009106  0.89423387  0.99552202  1  0.61985  0  0.360259  0.440565  0  0.837682  0
H  H14  1  0.86790699  0.10267713  0.00886099  1  0.62102  0  0.358267  0.437631  0  0.841429  0
C  C15  1  0.36904419  0.41618251  0.41174817  1  1.712429  0  0.278174  0.694893  0  4.186247  0
C  C16  1  0.36837056  0.38392719  0.61059488  1  1.579941  0  0.270766  0.665796  0  4.083873  0
C  C17  1  0.86320065  0.58772191  0.58401584  1  1.697309  0  0.275022  0.701581  0  4.180753  0
C  C18  1  0.86738942  0.61528996  0.38582490  1  1.574943  0  0.274156  0.645771  0  4.089091  0
C  C19  1  0.68718328  0.72099761  0.28341449  1  0.017957  0  -0.077021  -0.089477  0  3.96419  0
C  C20  1  0.68822895  0.78577516  0.21758048  1  0.007743  0  -0.076742  -0.088666  0  3.96327  0
C  C21  1  0.87001629  0.81506912  0.18304530  1  -0.088975  0  -0.009171  -0.036016  0  3.959781  0
C  C22  1  0.05087478  0.77929556  0.21516474  1  -0.007018  0  -0.077606  -0.089468  0  3.965446  0
C  C23  1  0.04990233  0.71435265  0.28088514  1  -0.039837  0  -0.076312  -0.088917  0  3.96233  0
C  C24  1  0.86802075  0.68485937  0.31524221  1  -0.081061  0  -0.007608  -0.035285  0  3.960597  0
C  C25  1  0.86810991  0.86396590  0.86161977  1  0.080282  0  -0.001476  -0.143497  0  3.82774  0
C  C26  1  0.86788806  0.82007357  0.81841165  1  -0.167535  0  -0.004496  0.034493  0  4.254931  0
C  C27  1  0.86739443  0.77213672  0.77116335  1  -0.097214  0  0.002224  -0.003057  0  4.184571  0
C  C28  1  0.86615579  0.72790697  0.72778984  1  0.064661  0  0.00429  0.004119  0  4.182856  0
C  C29  1  0.86483408  0.68013868  0.68041777  1  -0.197218  0  -0.006972  0.02685  0  4.251428  0
C  C30  1  0.86388209  0.63680416  0.63676740  1  0.106769  0  0.001589  -0.132316  0  3.820365  0
C  C31  1  0.36828695  0.36569541  0.36007368  1  0.229152  0  0.007823  -0.124317  0  3.810505  0
C  C32  1  0.36806450  0.32147909  0.31714220  1  -0.290406  0  -0.005053  0.026983  0  4.247348  0
C  C33  1  0.36734880  0.27300865  0.27031162  1  -0.098364  0  0.006546  0.006699  0  4.181963  0
C  C34  1  0.36661877  0.22816852  0.22741856  1  0.059008  0  0.001063  -0.005736  0  4.182075  0
C  C35  1  0.36651357  0.17979237  0.18050357  1  -0.13478  0  -0.004665  0.036743  0  4.254358  0
C  C36  1  0.36613381  0.13580383  0.13736466  1  0.042647  0  -0.003044  -0.147768  0  3.833291  0
C  C37  1  0.19313450  0.27593395  0.71116401  1  0.019389  0  -0.075403  -0.063328  0  3.9713  0
C  C38  1  0.18858884  0.21143507  0.77698850  1  0.034322  0  -0.08245  -0.10843  0  3.968671  0
C  C39  1  0.36630941  0.18453459  0.81612723  1  -0.089321  0  -0.003851  0.000345  0  3.965621  0
C  C40  1  0.54715615  0.22312786  0.78896369  1  0.057436  0  -0.088547  -0.223781  0  3.963099  0
C  C41  1  0.54773359  0.28774164  0.72331993  1  0.408664  0  0.111749  0.283559  0  4.026647  0
C  C42  1  0.37269123  0.31570212  0.68226626  1  0.005247  0  -0.016423  -0.150044  0  3.942137  0
C  C43  1  0.36511630  0.11553395  0.88737436  1  1.581539  0  0.270536  0.640978  0  4.094074  0
C  C44  1  0.36774639  0.08573269  0.08555501  1  1.687506  0  0.27824  0.706678  0  4.172575  0
C  C45  1  0.87064853  0.88370265  0.11180060  1  1.570338  0  0.269499  0.642974  0  4.095646  0
C  C46  1  0.86775093  0.91418319  0.91333905  1  1.710277  0  0.279276  0.705597  0  4.172459  0
O  O47  1  0.53450803  0.40869298  0.57943818  1  -1.250003  0  -0.23737  -0.607739  0  2.372254  0
O  O48  1  0.19977092  0.43162017  0.43583953  1  -1.224563  0  -0.218585  -0.562639  0  2.289162  0
O  O49  1  0.03598420  0.58565301  0.41253809  1  -1.264675  0  -0.230633  -0.586813  0  2.354458  0
O  O50  1  0.19621611  0.41122551  0.58531937  1  -1.259588  0  -0.235928  -0.596881  0  2.33184  0
O  O51  1  0.03374164  0.57050793  0.56169163  1  -1.228469  0  -0.226363  -0.581812  0  2.281868  0
O  O52  1  0.53906823  0.43945529  0.42872229  1  -1.224264  0  -0.218473  -0.559205  0  2.284265  0
O  O53  1  0.36452039  0.55174110  0.49307920  1  -1.433706  0  -0.447451  -0.992764  0  2.180832  0
O  O54  1  0.69216806  0.56760467  0.56466032  1  -1.224841  0  -0.226867  -0.580343  0  2.279158  0
O  O55  1  0.69829255  0.59114612  0.41490556  1  -1.264291  0  -0.231869  -0.589172  0  2.350581  0
O  O56  1  0.86594584  0.44932320  0.50763630  1  -1.400239  0  -0.446054  -0.987989  0  2.177312  0
O  O57  1  0.19832985  0.06758387  0.06329830  1  -1.228893  0  -0.223708  -0.577452  0  2.282104  0
O  O58  1  0.53450616  0.09082993  0.91659552  1  -1.253311  0  -0.234698  -0.592046  0  2.352018  0
O  O59  1  0.69741242  0.93519041  0.93284588  1  -1.230157  0  -0.222862  -0.574196  0  2.281121  0
O  O60  1  0.53862749  0.06500536  0.06622136  1  -1.229942  0  -0.223694  -0.576186  0  2.282068  0
O  O61  1  0.70114139  0.90940004  0.08298743  1  -1.264682  0  -0.236715  -0.599809  0  2.356834  0
O  O62  1  0.19530909  0.08807161  0.91346423  1  -1.25191  0  -0.23298  -0.588627  0  2.346344  0
O  O63  1  0.36901854  0.94898051  0.00592631  1  -1.419758  0  -0.44746  -0.996031  0  2.191651  0
O  O64  1  0.04028678  0.91048788  0.08461338  1  -1.263329  0  -0.237026  -0.598485  0  2.35025  0
O  O65  1  0.03771023  0.93217624  0.93515849  1  -1.228751  0  -0.223384  -0.57477  0  2.282624  0
O  O66  1  0.86767561  0.05099070  0.99328198  1  -1.421933  0  -0.44736  -0.993289  0  2.185188  0
F  F67  1  0.72689365  0.32455892  0.70050733  1  -0.631405  0  -0.086359  -0.13245  0  1.382168  0
