# generated using pymatgen
data_ZnHC5O4
_symmetry_space_group_name_H-M   'P 1'
_cell_length_a   7.43772495
_cell_length_b   8.18815392
_cell_length_c   9.02403391
_cell_angle_alpha   89.20956836
_cell_angle_beta   114.35471894
_cell_angle_gamma   90.00998404
_symmetry_Int_Tables_number   1
_chemical_formula_structural   ZnHC5O4
_chemical_formula_sum   'Zn4 H4 C20 O16'
_cell_volume   500.61126480
_cell_formula_units_Z   4
loop_
 _symmetry_equiv_pos_site_id
 _symmetry_equiv_pos_as_xyz
  1  'x, y, z'
loop_
 _atom_site_type_symbol
 _atom_site_label
 _atom_site_symmetry_multiplicity
 _atom_site_fract_x
 _atom_site_fract_y
 _atom_site_fract_z
 _atom_site_occupancy
 _atom_site_pbe_bader_spin_density
 _atom_site_pbe_cm5_charge
 _atom_site_pbe_ddec_charge
 _atom_site_pbe_ddec_spin_density
 _atom_site_pbe_ddec_sum_bond_order
 _atom_site_pbe_magmom
Zn  Zn0  1  0.26098202  0.56171616  0.38154057  1  0  0.704929  0.951927  0  2.268535  0
Zn  Zn1  1  0.87910926  0.93831917  0.61840008  1  0  0.705007  0.952679  0  2.267623  0
Zn  Zn2  1  0.73901746  0.43828473  0.61845764  1  0  0.704916  0.951908  0  2.268588  0
Zn  Zn3  1  0.12089616  0.06167799  0.38160346  1  0  0.705027  0.952711  0  2.267571  0
H  H4  1  0.25606761  0.25012220  0.99991868  1  0  0.114388  0.1266  0  1.011481  0
H  H5  1  0.74393482  0.74988357  0.00008051  1  0  0.114411  0.126629  0  1.011469  0
H  H6  1  0.92307358  0.24985611  0.00015885  1  0  0.117617  0.133291  0  0.97614  0
H  H7  1  0.07692592  0.75013988  0.99984049  1  0  0.117628  0.133287  0  0.976144  0
C  C8  1  0.74778300  0.32092043  0.12857240  1  0  0.006707  -0.014348  0  3.928999  0
C  C9  1  0.61917550  0.17898427  0.87156462  1  0  0.006375  -0.014454  0  3.928049  0
C  C10  1  0.25221651  0.67907921  0.87142804  1  0  0.006694  -0.0144  0  3.929  0
C  C11  1  0.38082400  0.82101415  0.12843582  1  0  0.006359  -0.014467  0  3.928106  0
C  C12  1  0.55832673  0.32344681  0.12795236  1  0  -0.01037  -0.06512  0  3.926742  0
C  C13  1  0.43029590  0.17663649  0.87207841  1  0  -0.009614  -0.063596  0  3.924798  0
C  C14  1  0.44167276  0.67655408  0.87204585  1  0  -0.010337  -0.06505  0  3.926767  0
C  C15  1  0.56970359  0.82336561  0.12792091  1  0  -0.009643  -0.063644  0  3.924867  0
C  C16  1  0.40210177  0.25006822  0.99999749  1  0  -0.060061  -0.064832  0  3.898782  0
C  C17  1  0.59789919  0.74993509  0.00000232  1  0  -0.060066  -0.064839  0  3.898822  0
C  C18  1  0.77625307  0.24988775  0.00010467  1  0  -0.079728  -0.135591  0  3.928438  0
C  C19  1  0.22374790  0.75011068  0.99989516  1  0  -0.079754  -0.135603  0  3.928462  0
C  C20  1  0.92952917  0.39089632  0.25869047  1  0  0.229  0.620435  0  4.145563  0
C  C21  1  0.67063915  0.10903615  0.74140022  1  0  0.229276  0.620676  0  4.14626  0
C  C22  1  0.07047328  0.60910088  0.74130986  1  0  0.229071  0.62051  0  4.145521  0
C  C23  1  0.32936184  0.89095859  0.25860184  1  0  0.229208  0.620619  0  4.146397  0
C  C24  1  0.52560576  0.40184504  0.26326322  1  0  0.232463  0.617348  0  4.144562  0
C  C25  1  0.26220714  0.09826573  0.73670031  1  0  0.232569  0.617332  0  4.145012  0
C  C26  1  0.47439078  0.59815585  0.73673510  1  0  0.232446  0.617257  0  4.144772  0
C  C27  1  0.73779090  0.90173756  0.26330183  1  0  0.23258  0.617308  0  4.145017  0
O  O28  1  0.96982939  0.53968579  0.24568573  1  0  -0.293376  -0.494968  0  2.254995  0
O  O29  1  0.72392705  0.96026715  0.75433275  1  0  -0.293651  -0.495691  0  2.2555  0
O  O30  1  0.03017160  0.46031384  0.75431631  1  0  -0.293424  -0.494975  0  2.255023  0
O  O31  1  0.27607391  0.03973008  0.24566486  1  0  -0.293644  -0.495719  0  2.255513  0
O  O32  1  0.05115631  0.29670143  0.36813196  1  0  -0.310283  -0.557475  0  2.379316  0
O  O33  1  0.68270228  0.20325819  0.63195701  1  0  -0.310664  -0.55738  0  2.380018  0
O  O34  1  0.94884909  0.70329942  0.63186935  1  0  -0.310276  -0.557479  0  2.379305  0
O  O35  1  0.31729573  0.79673905  0.36803960  1  0  -0.310588  -0.557271  0  2.380107  0
O  O36  1  0.67972506  0.44444464  0.38622348  1  0  -0.304239  -0.546196  0  2.41017  0
O  O37  1  0.29353459  0.05546892  0.61390739  1  0  -0.304354  -0.54633  0  2.410475  0
O  O38  1  0.32027443  0.55555990  0.61377583  1  0  -0.304205  -0.546134  0  2.410357  0
O  O39  1  0.70646052  0.94453067  0.38609711  1  0  -0.304374  -0.546317  0  2.410414  0
O  O40  1  0.34882495  0.42338615  0.24647771  1  0  -0.301096  -0.54197  0  2.392303  0
O  O41  1  0.10203983  0.07687390  0.75324826  1  0  -0.300919  -0.542383  0  2.394281  0
O  O42  1  0.65117600  0.57661475  0.75351989  1  0  -0.301105  -0.541953  0  2.392272  0
O  O43  1  0.89795822  0.92313058  0.24675610  1  0  -0.300899  -0.542333  0  2.394311  0
