# generated using pymatgen
data_Ag3PH8(C7O3)2
_symmetry_space_group_name_H-M   'P 1'
_cell_length_a   5.83313815
_cell_length_b   16.27879459
_cell_length_c   16.20149231
_cell_angle_alpha   67.54317733
_cell_angle_beta   79.79468524
_cell_angle_gamma   80.13558583
_symmetry_Int_Tables_number   1
_chemical_formula_structural   Ag3PH8(C7O3)2
_chemical_formula_sum   'Ag12 P4 H32 C56 O24'
_cell_volume   1390.16604550
_cell_formula_units_Z   4
loop_
 _symmetry_equiv_pos_site_id
 _symmetry_equiv_pos_as_xyz
  1  'x, y, z'
loop_
 _atom_site_type_symbol
 _atom_site_label
 _atom_site_symmetry_multiplicity
 _atom_site_fract_x
 _atom_site_fract_y
 _atom_site_fract_z
 _atom_site_occupancy
 _atom_site_hle17_bader_spin_density
 _atom_site_hle17_ddec_charge
 _atom_site_hle17_ddec_spin_density
 _atom_site_hle17_ddec_sum_bond_order
 _atom_site_hle17_magmom
 _atom_site_hse06_10hf_bader_spin_density
 _atom_site_hse06_10hf_ddec_charge
 _atom_site_hse06_10hf_ddec_spin_density
 _atom_site_hse06_10hf_ddec_sum_bond_order
 _atom_site_hse06_10hf_magmom
 _atom_site_hse06_bader_spin_density
 _atom_site_hse06_ddec_charge
 _atom_site_hse06_ddec_spin_density
 _atom_site_hse06_ddec_sum_bond_order
 _atom_site_hse06_magmom
 _atom_site_pbe_bader_charge
 _atom_site_pbe_bader_spin_density
 _atom_site_pbe_cm5_charge
 _atom_site_pbe_ddec_charge
 _atom_site_pbe_ddec_spin_density
 _atom_site_pbe_ddec_sum_bond_order
 _atom_site_pbe_magmom
Ag  Ag0  1  0.10412752  0.38444748  0.21563321  1  0  0.592363  0  1.432832  0  0  0.483601  0  1.893421  0  0  0.518623  0  1.830324  0  0.632336  0  0.425761  0.45905  0  1.937155  0
Ag  Ag1  1  0.71347303  0.61567028  0.78484027  1  0  0.591167  0  1.436627  0  0  0.482255  0  1.897609  0  0  0.517411  0  1.834282  0  0.631912  0  0.425354  0.457592  0  1.941498  0
Ag  Ag2  1  0.21485445  0.78376487  0.61671737  1  0  0.591965  0  1.426819  0  0  0.482597  0  1.884662  0  0  0.51807  0  1.82152  0  0.633361  0  0.424556  0.457677  0  1.928429  0
Ag  Ag3  1  0.60498000  0.21524098  0.38366122  1  0  0.592066  0  1.425473  0  0  0.482308  0  1.884332  0  0  0.517771  0  1.821237  0  0.632023  0  0.425447  0.457435  0  1.928089  0
Ag  Ag4  1  0.76237997  0.32687343  0.14120383  1  0  0.697814  0  1.283693  0  0  0.59552  0  1.706503  0  0  0.626609  0  1.649206  0  0.689736  0  0.438743  0.573353  0  1.746506  0
Ag  Ag5  1  0.24432266  0.67355803  0.85805226  1  0  0.696531  0  1.29722  0  0  0.595174  0  1.720409  0  0  0.626001  0  1.663084  0  0.691141  0  0.438822  0.573242  0  1.760373  0
Ag  Ag6  1  0.74522320  0.85892220  0.67242701  1  0  0.696691  0  1.302552  0  0  0.596652  0  1.724064  0  0  0.62715  0  1.667063  0  0.691517  0  0.439961  0.574945  0  1.763769  0
Ag  Ag7  1  0.26186280  0.13903542  0.32778334  1  0  0.701465  0  1.277397  0  0  0.600146  0  1.697394  0  0  0.630973  0  1.640536  0  0.693583  0  0.439879  0.578118  0  1.737078  0
Ag  Ag8  1  0.01265921  0.52382410  0.04213806  1  0  0.657927  0  1.365887  0  0  0.537448  0  1.807978  0  0  0.574962  0  1.744576  0  0.647879  0  0.430761  0.510567  0  1.852335  0
Ag  Ag9  1  0.57570015  0.47763875  0.95769139  1  0  0.653784  0  1.372844  0  0  0.533445  0  1.815598  0  0  0.571113  0  1.751853  0  0.643192  0  0.429897  0.506472  0  1.860175  0
Ag  Ag10  1  0.07562208  0.95570062  0.47930432  1  0  0.651022  0  1.381852  0  0  0.531022  0  1.823915  0  0  0.568613  0  1.760316  0  0.641749  0  0.429916  0.504077  0  1.868355  0
Ag  Ag11  1  0.50863137  0.04249820  0.52334820  1  0  0.657703  0  1.369192  0  0  0.538956  0  1.808459  0  0  0.576066  0  1.745672  0  0.648273  0  0.431609  0.512368  0  1.852359  0
P  P12  1  0.12428640  0.39400294  0.91909915  1  0  1.17892  0  4.710189  0  0  1.051678  0  5.144206  0  0  1.093267  0  5.12921  0  3.044237  0  0.272553  1.022766  0  5.153815  0
P  P13  1  0.44302575  0.60817254  0.07967443  1  0  1.177518  0  4.709357  0  0  1.049954  0  5.143387  0  0  1.0915  0  5.128609  0  3.061719  0  0.272749  1.021069  0  5.15284  0
P  P14  1  0.93845496  0.08039478  0.60727103  1  0  1.176635  0  4.708818  0  0  1.048872  0  5.143984  0  0  1.090396  0  5.129244  0  3.054911  0  0.272249  1.020007  0  5.153406  0
P  P15  1  0.62515165  0.91761424  0.39569711  1  0  1.177749  0  4.710538  0  0  1.050618  0  5.145424  0  0  1.092147  0  5.130433  0  3.081776  0  0.271726  1.021756  0  5.155081  0
H  H16  1  0.58625271  0.12735768  0.11555531  1  0  0.109287  0  0.980082  0  0  0.117375  0  1.04245  0  0  0.12066  0  1.041496  0  0.110149  0  0.102827  0.114966  0  1.043286  0
H  H17  1  0.84882702  0.87390904  0.88435625  1  0  0.109609  0  0.978331  0  0  0.117468  0  1.041096  0  0  0.120674  0  1.040238  0  0.138426  0  0.103132  0.115118  0  1.041838  0
H  H18  1  0.35159175  0.88728503  0.87104241  1  0  0.110016  0  0.977784  0  0  0.117719  0  1.040516  0  0  0.121071  0  1.039479  0  0.1594  0  0.103164  0.115272  0  1.041389  0
H  H19  1  0.08387233  0.11526090  0.12569278  1  0  0.108786  0  0.976429  0  0  0.117403  0  1.038046  0  0  0.120612  0  1.037215  0  0.10911  0  0.1033  0.115042  0  1.038806  0
H  H20  1  0.77212334  0.07492911  0.99039321  1  0  0.080442  0  0.969028  0  0  0.0917  0  1.030731  0  0  0.094041  0  1.030167  0  0.056891  0  0.0979  0.090016  0  1.031196  0
H  H21  1  0.85057242  0.92845999  0.00886558  1  0  0.080953  0  0.968712  0  0  0.091604  0  1.031007  0  0  0.093893  0  1.030515  0  0.055251  0  0.097804  0.08996  0  1.031443  0
H  H22  1  0.35048887  0.01091505  0.92667399  1  0  0.080698  0  0.968835  0  0  0.091634  0  1.030891  0  0  0.093981  0  1.030323  0  0.074803  0  0.097897  0.089948  0  1.031365  0
H  H23  1  0.27416258  0.99099379  0.07350204  1  0  0.080354  0  0.96973  0  0  0.091156  0  1.03199  0  0  0.093514  0  1.031364  0  0.073878  0  0.09757  0.089482  0  1.032476  0
H  H24  1  0.67451534  0.16298699  0.83433379  1  0  0.084991  0  0.974914  0  0  0.095804  0  1.037668  0  0  0.097891  0  1.038052  0  0.095937  0  0.097232  0.09428  0  1.03755  0
H  H25  1  0.67466998  0.84212077  0.16418811  1  0  0.08505  0  0.972555  0  0  0.096343  0  1.034183  0  0  0.0984  0  1.034697  0  0.056989  0  0.097031  0.094848  0  1.033966  0
H  H26  1  0.16810386  0.16438671  0.84220002  1  0  0.085277  0  0.972448  0  0  0.09584  0  1.035063  0  0  0.09792  0  1.035503  0  0.068465  0  0.097114  0.094348  0  1.034859  0
H  H27  1  0.18278991  0.83485441  0.16375809  1  0  0.084803  0  0.973054  0  0  0.095612  0  1.035909  0  0  0.097677  0  1.036281  0  0.061241  0  0.097286  0.094139  0  1.035726  0
H  H28  1  0.40240572  0.30241754  0.80425786  1  0  0.0818  0  0.986455  0  0  0.091183  0  1.053136  0  0  0.093032  0  1.053822  0  0.049822  0  0.097516  0.089862  0  1.05273  0
H  H29  1  0.50932190  0.70209215  0.19415232  1  0  0.08002  0  0.990056  0  0  0.089984  0  1.056659  0  0  0.091733  0  1.057384  0  0.062018  0  0.097079  0.088717  0  1.056206  0
H  H30  1  0.00104211  0.19368090  0.70246727  1  0  0.08081  0  0.989155  0  0  0.090186  0  1.056234  0  0  0.092038  0  1.056893  0  0.103896  0  0.097064  0.088859  0  1.055839  0
H  H31  1  0.90991830  0.80398195  0.30462947  1  0  0.083266  0  0.983845  0  0  0.092413  0  1.050365  0  0  0.094288  0  1.05101  0  0.03601  0  0.098014  0.091074  0  1.049984  0
H  H32  1  0.86885087  0.30861678  0.84949423  1  0  0.092813  0  0.971809  0  0  0.103902  0  1.032768  0  0  0.105827  0  1.033271  0  0.119176  0  0.10158  0.10253  0  1.032473  0
H  H33  1  0.03422897  0.69347097  0.14819992  1  0  0.093436  0  0.970044  0  0  0.105086  0  1.030393  0  0  0.106973  0  1.03093  0  0.098115  0  0.102237  0.103762  0  1.030018  0
H  H34  1  0.52809435  0.14831706  0.69322148  1  0  0.093168  0  0.971701  0  0  0.104544  0  1.03241  0  0  0.106362  0  1.033106  0  0.085859  0  0.10184  0.103247  0  1.032003  0
H  H35  1  0.37212266  0.84835022  0.30914369  1  0  0.092584  0  0.973985  0  0  0.104572  0  1.03372  0  0  0.106442  0  1.034254  0  0.089026  0  0.101926  0.103237  0  1.033416  0
H  H36  1  0.78660473  0.33174253  0.69595571  1  0  0.081558  0  0.987186  0  0  0.092322  0  1.050699  0  0  0.093863  0  1.051924  0  0.070965  0  0.096208  0.091213  0  1.049989  0
H  H37  1  0.81624301  0.66846406  0.30096723  1  0  0.080972  0  0.986589  0  0  0.091899  0  1.050231  0  0  0.0934  0  1.051514  0  0.080318  0  0.095916  0.090814  0  1.049489  0
H  H38  1  0.31367206  0.30021222  0.66870218  1  0  0.080506  0  0.985885  0  0  0.091767  0  1.04921  0  0  0.09323  0  1.05053  0  0.07594  0  0.095683  0.090656  0  1.048499  0
H  H39  1  0.29034975  0.69558440  0.33117438  1  0  0.080139  0  0.988037  0  0  0.091504  0  1.051159  0  0  0.093018  0  1.052404  0  0.071931  0  0.096002  0.090402  0  1.050457  0
H  H40  1  0.93816870  0.45750805  0.56507442  1  0  0.07278  0  0.981408  0  0  0.084976  0  1.044116  0  0  0.086763  0  1.043852  0  0.050787  0  0.096797  0.083689  0  1.044372  0
H  H41  1  0.95392994  0.54129145  0.43188486  1  0  0.073309  0  0.982537  0  0  0.085073  0  1.045914  0  0  0.086867  0  1.045592  0  0.078982  0  0.096729  0.083731  0  1.046267  0
H  H42  1  0.45678208  0.43074389  0.54149255  1  0  0.073584  0  0.980899  0  0  0.085383  0  1.044091  0  0  0.087168  0  1.043831  0  0.053993  0  0.096823  0.084075  0  1.044401  0
H  H43  1  0.43981306  0.56512630  0.45686447  1  0  0.073415  0  0.980167  0  0  0.085319  0  1.042959  0  0  0.087076  0  1.042763  0  0.051362  0  0.096949  0.084068  0  1.043138  0
H  H44  1  0.15900170  0.56463846  0.58698128  1  0  0.099315  0  0.968612  0  0  0.109456  0  1.032007  0  0  0.112132  0  1.031906  0  0.098557  0  0.100809  0.107527  0  1.032216  0
H  H45  1  0.30101899  0.43461821  0.41060318  1  0  0.100839  0  0.965824  0  0  0.110769  0  1.029215  0  0  0.113466  0  1.02908  0  0.105924  0  0.101381  0.108818  0  1.029462  0
H  H46  1  0.80541703  0.40982054  0.43422273  1  0  0.099951  0  0.966857  0  0  0.10998  0  1.03058  0  0  0.112623  0  1.030507  0  0.096363  0  0.101042  0.10808  0  1.030769  0
H  H47  1  0.65911697  0.58658400  0.56484426  1  0  0.100202  0  0.967867  0  0  0.110317  0  1.031265  0  0  0.11294  0  1.031203  0  0.103625  0  0.101284  0.10843  0  1.031454  0
C  C48  1  0.28624330  0.27384269  0.10671329  1  0  0.652218  0  3.888076  0  0  0.598921  0  4.170769  0  0  0.635116  0  4.164014  0  1.569693  0  0.203091  0.573988  0  4.174697  0
C  C49  1  0.68210100  0.72737747  0.89278507  1  0  0.653999  0  3.885486  0  0  0.598223  0  4.171862  0  0  0.634516  0  4.164878  0  1.575031  0  0.202641  0.573272  0  4.175913  0
C  C50  1  0.18227221  0.89468951  0.72535734  1  0  0.650976  0  3.887783  0  0  0.595775  0  4.173809  0  0  0.632043  0  4.166952  0  1.567889  0  0.202135  0.57084  0  4.177783  0
C  C51  1  0.78614280  0.10531006  0.27442568  1  0  0.653669  0  3.883899  0  0  0.598752  0  4.16907  0  0  0.635043  0  4.162243  0  1.577817  0  0.203081  0.573789  0  4.173008  0
C  C52  1  0.39570954  0.24427336  0.03011900  1  0  -0.007782  0  3.688239  0  0  0.008128  0  3.916391  0  0  0.005291  0  3.935198  0  -0.064302  0  -0.001272  0.009862  0  3.903963  0
C  C53  1  0.68381514  0.75737727  0.96943051  1  0  -0.008096  0  3.684118  0  0  0.008915  0  3.912984  0  0  0.006098  0  3.93167  0  -0.059881  0  -0.000481  0.010624  0  3.900641  0
C  C54  1  0.18204944  0.97115276  0.75557660  1  0  -0.006285  0  3.680999  0  0  0.010237  0  3.910197  0  0  0.007512  0  3.92877  0  -0.04344  0  -0.000555  0.011863  0  3.897976  0
C  C55  1  0.89591077  0.02936442  0.24448368  1  0  -0.009274  0  3.687155  0  0  0.007727  0  3.915581  0  0  0.004816  0  3.934451  0  -0.033617  0  -0.001047  0.009516  0  3.903125  0
C  C56  1  0.54725914  0.16472801  0.04692214  1  0  -0.073  0  3.699177  0  0  -0.094222  0  3.943571  0  0  -0.095994  0  3.962806  0  -0.014561  0  -0.083748  -0.093047  0  3.930702  0
C  C57  1  0.77443405  0.83721608  0.95266236  1  0  -0.072911  0  3.696849  0  0  -0.093851  0  3.940428  0  0  -0.095545  0  3.95956  0  0.007644  0  -0.083705  -0.092737  0  3.927646  0
C  C58  1  0.27470013  0.95483950  0.83507471  1  0  -0.072672  0  3.693852  0  0  -0.093446  0  3.937944  0  0  -0.095162  0  3.956908  0  -0.044648  0  -0.082936  -0.092317  0  3.925286  0
C  C59  1  0.04703428  0.04664344  0.16393440  1  0  -0.072993  0  3.69827  0  0  -0.094372  0  3.942187  0  0  -0.096173  0  3.961552  0  -0.019982  0  -0.083615  -0.093185  0  3.929245  0
C  C60  1  0.64966980  0.13587314  0.97669040  1  0  -0.061883  0  3.768752  0  0  -0.073912  0  4.014692  0  0  -0.074669  0  4.034844  0  -0.049035  0  -0.087482  -0.073289  0  4.000963  0
C  C61  1  0.77382634  0.86734043  0.02250715  1  0  -0.06225  0  3.767092  0  0  -0.073593  0  4.012594  0  0  -0.074366  0  4.032813  0  -0.040241  0  -0.087656  -0.072989  0  3.998829  0
C  C62  1  0.27232951  0.02413745  0.86585119  1  0  -0.062054  0  3.765758  0  0  -0.07372  0  4.011688  0  0  -0.074527  0  4.03183  0  -0.10009  0  -0.087491  -0.073074  0  3.997981  0
C  C63  1  0.15200659  0.97689942  0.13520372  1  0  -0.059992  0  3.766821  0  0  -0.071722  0  4.012419  0  0  -0.072487  0  4.032601  0  -0.041859  0  -0.086388  -0.07112  0  3.998683  0
C  C64  1  0.59646997  0.18539774  0.88945257  1  0  -0.079561  0  3.781184  0  0  -0.092345  0  4.029435  0  0  -0.094707  0  4.050354  0  -0.061669  0  -0.093622  -0.090741  0  4.015213  0
C  C65  1  0.67709770  0.81877038  0.10932975  1  0  -0.077548  0  3.775657  0  0  -0.09036  0  4.023713  0  0  -0.092771  0  4.044729  0  -0.083571  0  -0.092936  -0.088735  0  4.009433  0
C  C66  1  0.17199211  0.10995708  0.81835839  1  0  -0.077772  0  3.777814  0  0  -0.090077  0  4.025764  0  0  -0.092453  0  4.046799  0  0.021768  0  -0.093092  -0.088473  0  4.011465  0
C  C67  1  0.10210352  0.88963541  0.18589443  1  0  -0.078266  0  3.776756  0  0  -0.091066  0  4.025239  0  0  -0.093335  0  4.046021  0  -0.049052  0  -0.093606  -0.089543  0  4.011125  0
C  C68  1  0.44247616  0.26408342  0.87262992  1  0  -0.057766  0  3.777066  0  0  -0.078017  0  4.021694  0  0  -0.0787  0  4.043388  0  -0.043505  0  -0.086125  -0.07745  0  4.007031  0
C  C69  1  0.58363841  0.73971224  0.12609117  1  0  -0.060195  0  3.777153  0  0  -0.080876  0  4.023151  0  0  -0.081541  0  4.044997  0  -0.028286  0  -0.086929  -0.080291  0  4.008361  0
C  C70  1  0.07736199  0.12633782  0.73951103  1  0  -0.061007  0  3.778602  0  0  -0.08091  0  4.023787  0  0  -0.081672  0  4.045636  0  -0.114241  0  -0.086906  -0.08028  0  4.009027  0
C  C71  1  0.94784503  0.87233891  0.26540129  1  0  -0.059019  0  3.774239  0  0  -0.07888  0  4.019965  0  0  -0.079536  0  4.04158  0  -0.031764  0  -0.085841  -0.07832  0  4.005406  0
C  C72  1  0.34013717  0.29508639  0.94201613  1  0  -0.217602  0  3.690636  0  0  -0.185432  0  3.927805  0  0  -0.192582  0  3.948694  0  -0.513317  0  -0.024953  -0.180789  0  3.914071  0
C  C73  1  0.58565059  0.70735731  0.05712354  1  0  -0.214202  0  3.682783  0  0  -0.183394  0  3.921918  0  0  -0.190499  0  3.942799  0  -0.528035  0  -0.024452  -0.178797  0  3.908194  0
C  C74  1  0.08100302  0.05793817  0.70649830  1  0  -0.215144  0  3.683907  0  0  -0.184401  0  3.92329  0  0  -0.191561  0  3.944222  0  -0.548469  0  -0.024526  -0.179771  0  3.909562  0
C  C75  1  0.84257973  0.94127283  0.29614076  1  0  -0.215228  0  3.688493  0  0  -0.184438  0  3.92738  0  0  -0.191627  0  3.948369  0  -0.546483  0  -0.024649  -0.179846  0  3.913701  0
C  C76  1  0.06997756  0.42035156  0.80447724  1  0  -0.248075  0  3.747198  0  0  -0.210852  0  3.979788  0  0  -0.220375  0  4.001393  0  -0.519122  0  -0.029351  -0.204654  0  3.965625  0
C  C77  1  0.29729432  0.58148666  0.19378220  1  0  -0.248087  0  3.746852  0  0  -0.20891  0  3.977046  0  0  -0.218442  0  3.998718  0  -0.534237  0  -0.028505  -0.202677  0  3.96284  0
C  C78  1  0.79419631  0.19381203  0.58083177  1  0  -0.247873  0  3.747205  0  0  -0.20909  0  3.977705  0  0  -0.218629  0  3.999406  0  -0.545953  0  -0.028829  -0.202792  0  3.963348  0
C  C79  1  0.57059655  0.80342712  0.42151455  1  0  -0.248516  0  3.746155  0  0  -0.211034  0  3.978404  0  0  -0.220548  0  3.999993  0  -0.532227  0  -0.029857  -0.204827  0  3.964228  0
C  C80  1  0.93690671  0.36326156  0.79128386  1  0  -0.036379  0  3.744186  0  0  -0.058508  0  3.99098  0  0  -0.057613  0  4.010642  0  -0.076026  0  -0.079211  -0.058957  0  3.977721  0
C  C81  1  0.09534251  0.63829517  0.20645336  1  0  -0.03845  0  3.744256  0  0  -0.061654  0  3.991458  0  0  -0.060715  0  4.011125  0  -0.053742  0  -0.079614  -0.062126  0  3.978203  0
C  C82  1  0.59137760  0.20632322  0.63796540  1  0  -0.038194  0  3.744519  0  0  -0.06122  0  3.991803  0  0  -0.060218  0  4.011401  0  -0.030842  0  -0.079498  -0.061732  0  3.978466  0
C  C83  1  0.43908702  0.79037236  0.36380554  1  0  -0.037098  0  3.744014  0  0  -0.059987  0  3.991205  0  0  -0.059033  0  4.010932  0  -0.028899  0  -0.079398  -0.060468  0  3.97786  0
C  C84  1  0.89061372  0.37612217  0.70568066  1  0  -0.069128  0  3.747169  0  0  -0.082863  0  3.996921  0  0  -0.084828  0  4.016284  0  -0.054382  0  -0.091437  -0.08166  0  3.983868  0
C  C85  1  0.97316463  0.62432097  0.29164000  1  0  -0.065931  0  3.745592  0  0  -0.080132  0  3.995689  0  0  -0.08207  0  4.015021  0  -0.054139  0  -0.090805  -0.078952  0  3.982648  0
C  C86  1  0.47126523  0.29105040  0.62429759  1  0  -0.065543  0  3.744969  0  0  -0.079785  0  3.994713  0  0  -0.081672  0  4.014017  0  -0.046083  0  -0.090513  -0.078593  0  3.981738  0
C  C87  1  0.39305303  0.70519511  0.37607091  1  0  -0.066513  0  3.744129  0  0  -0.080807  0  3.994161  0  0  -0.082727  0  4.013408  0  -0.073694  0  -0.091194  -0.079638  0  3.981216  0
C  C88  1  0.97419958  0.44780561  0.63209652  1  0  -0.042178  0  3.754432  0  0  -0.056661  0  4.004736  0  0  -0.055899  0  4.023445  0  -0.020777  0  -0.083623  -0.057016  0  3.992026  0
C  C89  1  0.04996151  0.55186076  0.36523154  1  0  -0.042105  0  3.755848  0  0  -0.056592  0  4.006094  0  0  -0.055743  0  4.024733  0  -0.091578  0  -0.083196  -0.056963  0  3.993443  0
C  C90  1  0.55103363  0.36442423  0.55182922  1  0  -0.043546  0  3.755611  0  0  -0.058107  0  4.006452  0  0  -0.057231  0  4.025007  0  -0.076348  0  -0.083779  -0.058539  0  3.993834  0
C  C91  1  0.47551523  0.63181620  0.44770212  1  0  -0.043376  0  3.755064  0  0  -0.057494  0  4.005559  0  0  -0.056687  0  4.024159  0  -0.017291  0  -0.08347  -0.057888  0  3.992939  0
C  C92  1  0.10169106  0.50662521  0.64399513  1  0  -0.095028  0  3.700864  0  0  -0.115786  0  3.947819  0  0  -0.118793  0  3.967214  0  -0.043748  0  -0.089985  -0.113874  0  3.934921  0
C  C93  1  0.24636252  0.49329113  0.35374883  1  0  -0.098619  0  3.704998  0  0  -0.119086  0  3.952598  0  0  -0.122127  0  3.971868  0  -0.03262  0  -0.0914  -0.117123  0  3.939781  0
C  C94  1  0.74839903  0.35313394  0.49293983  1  0  -0.094973  0  3.702074  0  0  -0.115728  0  3.94933  0  0  -0.11871  0  3.968756  0  -0.014368  0  -0.090767  -0.113831  0  3.936408  0
C  C95  1  0.60202258  0.64350657  0.50700806  1  0  -0.096201  0  3.702392  0  0  -0.117138  0  3.949385  0  0  -0.120094  0  3.96882  0  -0.050573  0  -0.090935  -0.115278  0  3.936485  0
C  C96  1  0.15419974  0.49274917  0.72987492  1  0  -0.010503  0  3.70101  0  0  0.007549  0  3.928385  0  0  0.006042  0  3.947146  0  -0.05208  0  -0.00297  0.008499  0  3.915872  0
C  C97  1  0.37403190  0.50819639  0.26833472  1  0  -0.008765  0  3.701912  0  0  0.008527  0  3.928959  0  0  0.007024  0  3.947743  0  -0.044635  0  -0.003063  0.0094  0  3.916534  0
C  C98  1  0.87389577  0.26818487  0.50753230  1  0  -0.011404  0  3.704863  0  0  0.006492  0  3.931539  0  0  0.00491  0  3.950449  0  -0.043963  0  -0.003198  0.007463  0  3.918913  0
C  C99  1  0.65401796  0.72899526  0.49377094  1  0  -0.00987  0  3.703453  0  0  0.008386  0  3.930345  0  0  0.006848  0  3.949101  0  -0.082882  0  -0.002631  0.009336  0  3.917851  0
C  C100  1  0.29077981  0.55803054  0.74073043  1  0  0.664058  0  3.887955  0  0  0.609081  0  4.1743  0  0  0.645112  0  4.169204  0  1.580455  0  0.207708  0.584389  0  4.176854  0
C  C101  1  0.58365124  0.44259510  0.25829753  1  0  0.661971  0  3.891152  0  0  0.607317  0  4.177166  0  0  0.643299  0  4.172103  0  1.580076  0  0.206816  0.582668  0  4.179701  0
C  C102  1  0.08446043  0.25834822  0.44154722  1  0  0.663148  0  3.891971  0  0  0.608194  0  4.178351  0  0  0.644197  0  4.173197  0  1.583913  0  0.206603  0.583522  0  4.180923  0
C  C103  1  0.79004382  0.73977561  0.55929369  1  0  0.662741  0  3.891777  0  0  0.607993  0  4.1776  0  0  0.64404  0  4.172438  0  1.597586  0  0.206942  0.583298  0  4.180197  0
O  O104  1  0.13795762  0.22815873  0.16555960  1  0  -0.629337  0  2.087669  0  0  -0.562043  0  2.354601  0  0  -0.592454  0  2.342407  0  -1.155822  0  -0.312784  -0.540498  0  2.36232  0
O  O105  1  0.55144905  0.77358885  0.83285529  1  0  -0.62985  0  2.090559  0  0  -0.561434  0  2.358531  0  0  -0.591825  0  2.346208  0  -1.160016  0  -0.313266  -0.539906  0  2.366216  0
O  O106  1  0.05239556  0.83429418  0.77217584  1  0  -0.629781  0  2.091951  0  0  -0.561416  0  2.359059  0  0  -0.591883  0  2.346891  0  -1.156057  0  -0.312513  -0.539881  0  2.366745  0
O  O107  1  0.63901547  0.16377671  0.22873843  1  0  -0.630514  0  2.088181  0  0  -0.562331  0  2.355842  0  0  -0.592817  0  2.343559  0  -1.159307  0  -0.31264  -0.540773  0  2.363623  0
O  O108  1  0.34495484  0.34678018  0.10612445  1  0  -0.65111  0  2.192326  0  0  -0.561481  0  2.473907  0  0  -0.59758  0  2.46038  0  -1.117311  0  -0.319405  -0.536136  0  2.482375  0
O  O109  1  0.80840333  0.65389836  0.89436518  1  0  -0.650614  0  2.189211  0  0  -0.561062  0  2.472425  0  0  -0.597195  0  2.459084  0  -1.119159  0  -0.319692  -0.535734  0  2.480754  0
O  O110  1  0.30978679  0.89636125  0.65144143  1  0  -0.650601  0  2.191332  0  0  -0.56093  0  2.472674  0  0  -0.596992  0  2.459266  0  -1.123458  0  -0.318986  -0.535566  0  2.480857  0
O  O111  1  0.84421590  0.10484861  0.34764037  1  0  -0.651328  0  2.188256  0  0  -0.561569  0  2.470109  0  0  -0.597653  0  2.456627  0  -1.112525  0  -0.319172  -0.53627  0  2.478555  0
O  O112  1  0.89697172  0.36687405  0.98125037  1  0  -0.804516  0  2.09554  0  0  -0.706234  0  2.384078  0  0  -0.740784  0  2.368117  0  -1.396014  0  -0.372976  -0.681531  0  2.3941  0
O  O113  1  0.25260763  0.63512951  0.01680045  1  0  -0.804839  0  2.100349  0  0  -0.706174  0  2.389401  0  0  -0.740738  0  2.373301  0  -1.392409  0  -0.3734  -0.681465  0  2.399512  0
O  O114  1  0.74769441  0.01734855  0.63477086  1  0  -0.802772  0  2.098507  0  0  -0.704605  0  2.38664  0  0  -0.739224  0  2.371033  0  -1.386452  0  -0.372783  -0.679873  0  2.396427  0
O  O115  1  0.39880961  0.97911186  0.36858221  1  0  -0.804774  0  2.093979  0  0  -0.706883  0  2.38227  0  0  -0.741284  0  2.366112  0  -1.395693  0  -0.37297  -0.682171  0  2.392135  0
O  O116  1  0.21797695  0.47393764  0.92444649  1  0  -0.816492  0  2.23392  0  0  -0.708966  0  2.529016  0  0  -0.743547  0  2.509933  0  -1.391582  0  -0.376095  -0.684404  0  2.541289  0
O  O117  1  0.61860435  0.52805462  0.07501956  1  0  -0.815966  0  2.234659  0  0  -0.708247  0  2.528861  0  0  -0.742805  0  2.509765  0  -1.398798  0  -0.375628  -0.683684  0  2.541126  0
O  O118  1  0.11495191  0.07598172  0.52653265  1  0  -0.817004  0  2.233371  0  0  -0.709477  0  2.526444  0  0  -0.743879  0  2.507362  0  -1.394403  0  -0.375876  -0.685063  0  2.538738  0
O  O119  1  0.71715312  0.92305707  0.47611112  1  0  -0.814717  0  2.234776  0  0  -0.70739  0  2.528482  0  0  -0.741843  0  2.509543  0  -1.392285  0  -0.375777  -0.682917  0  2.540648  0
O  O120  1  0.50942879  0.53772040  0.74291015  1  0  -0.591382  0  2.081084  0  0  -0.519242  0  2.345883  0  0  -0.554523  0  2.340066  0  -1.099378  0  -0.308963  -0.494489  0  2.348936  0
O  O121  1  0.78487846  0.46269450  0.25674030  1  0  -0.592321  0  2.087295  0  0  -0.519473  0  2.351664  0  0  -0.554879  0  2.346038  0  -1.115445  0  -0.309244  -0.494645  0  2.354626  0
O  O122  1  0.28519686  0.25690090  0.46179390  1  0  -0.591828  0  2.085871  0  0  -0.519151  0  2.350678  0  0  -0.554612  0  2.345065  0  -1.111556  0  -0.309409  -0.494279  0  2.353627  0
O  O123  1  0.00896528  0.74196648  0.53864930  1  0  -0.591852  0  2.078493  0  0  -0.520199  0  2.343162  0  0  -0.555493  0  2.337331  0  -1.119746  0  -0.308853  -0.495404  0  2.346147  0
O  O124  1  0.16848737  0.62959494  0.74574331  1  0  -0.651821  0  2.164379  0  0  -0.569629  0  2.455127  0  0  -0.60378  0  2.439777  0  -1.141253  0  -0.325685  -0.545569  0  2.464857  0
O  O125  1  0.53480439  0.37084795  0.25372947  1  0  -0.651434  0  2.159239  0  0  -0.570053  0  2.449839  0  0  -0.604041  0  2.434434  0  -1.132562  0  -0.325437  -0.546083  0  2.459625  0
O  O126  1  0.03704349  0.25366135  0.36939851  1  0  -0.653405  0  2.159343  0  0  -0.572191  0  2.450459  0  0  -0.606105  0  2.434876  0  -1.138395  0  -0.325828  -0.548243  0  2.460328  0
O  O127  1  0.66713355  0.74500946  0.63127013  1  0  -0.651722  0  2.167435  0  0  -0.570105  0  2.458509  0  0  -0.604161  0  2.442886  0  -1.13454  0  -0.325511  -0.54607  0  2.468348  0
