# generated using pymatgen
data_NdH13C16(NO4)4
_symmetry_space_group_name_H-M   'P 1'
_cell_length_a   8.75938376
_cell_length_b   8.93091832
_cell_length_c   16.61920746
_cell_angle_alpha   75.45861424
_cell_angle_beta   76.80660438
_cell_angle_gamma   62.17995805
_symmetry_Int_Tables_number   1
_chemical_formula_structural   NdH13C16(NO4)4
_chemical_formula_sum   'Nd2 H26 C32 N8 O32'
_cell_volume   1103.60096239
_cell_formula_units_Z   2
loop_
 _symmetry_equiv_pos_site_id
 _symmetry_equiv_pos_as_xyz
  1  'x, y, z'
loop_
 _atom_site_type_symbol
 _atom_site_label
 _atom_site_symmetry_multiplicity
 _atom_site_fract_x
 _atom_site_fract_y
 _atom_site_fract_z
 _atom_site_occupancy
 _atom_site_hle17_bader_spin_density
 _atom_site_hle17_ddec_charge
 _atom_site_hle17_ddec_spin_density
 _atom_site_hle17_ddec_sum_bond_order
 _atom_site_hle17_magmom
 _atom_site_hse06_10hf_bader_charge
 _atom_site_hse06_10hf_bader_spin_density
 _atom_site_hse06_10hf_ddec_charge
 _atom_site_hse06_10hf_ddec_spin_density
 _atom_site_hse06_10hf_ddec_sum_bond_order
 _atom_site_hse06_10hf_magmom
 _atom_site_hse06_bader_spin_density
 _atom_site_hse06_ddec_charge
 _atom_site_hse06_ddec_spin_density
 _atom_site_hse06_ddec_sum_bond_order
 _atom_site_hse06_magmom
 _atom_site_pbe_bader_spin_density
 _atom_site_pbe_cm5_charge
 _atom_site_pbe_ddec_charge
 _atom_site_pbe_ddec_spin_density
 _atom_site_pbe_ddec_sum_bond_order
 _atom_site_pbe_magmom
Nd  Nd0  1  0.83498097  0.75489784  0.98735212  1  0  2.336469  0  1.610657  0  2.293179  0  2.229969  0  1.969821  0  0  2.269323  0  1.928058  0  0  1.499579  2.145266  0  2.103063  0
Nd  Nd1  1  0.16501169  0.24511477  0.01264778  1  0  2.336451  0  1.610686  0  2.293181  0  2.22997  0  1.969847  0  0  2.269317  0  1.928087  0  0  1.499603  2.145192  0  2.103224  0
H  H2  1  0.44687141  0.88068714  0.41216943  1  0  0.145294  0  0.951879  0  0.189343  0  0.143116  0  1.028488  0  0  0.14782  0  1.024213  0  0  0.122407  0.139781  0  1.031589  0
H  H3  1  0.55312975  0.11929075  0.58782872  1  0  0.145362  0  0.951764  0  0.189201  0  0.143149  0  1.0284  0  0  0.147849  0  1.024121  0  0  0.122412  0.139818  0  1.031495  0
H  H4  1  0.90320701  0.96843720  0.30800386  1  0  0.13089  0  0.933614  0  0.173619  0  0.132058  0  1.004192  0  0  0.137002  0  0.999645  0  0  0.118519  0.128441  0  1.007593  0
H  H5  1  0.09680056  0.03154202  0.69199756  1  0  0.130846  0  0.933493  0  0.173787  0  0.132022  0  1.004083  0  0  0.136967  0  0.999531  0  0  0.11848  0.128407  0  1.007484  0
H  H6  1  0.82683667  0.02491686  0.16341066  1  0  0.132609  0  0.9341  0  0.178622  0  0.138468  0  0.995415  0  0  0.143191  0  0.992147  0  0  0.124056  0.134883  0  0.998224  0
H  H7  1  0.17316922  0.97507137  0.83658975  1  0  0.13255  0  0.934101  0  0.17862  0  0.138479  0  0.99534  0  0  0.143217  0  0.992069  0  0  0.124043  0.134892  0  0.998148  0
H  H8  1  0.41410920  0.65853651  0.56256304  1  0  0.140235  0  0.946151  0  0.177407  0  0.138446  0  1.021532  0  0  0.143497  0  1.016132  0  0  0.123028  0.134842  0  1.025389  0
H  H9  1  0.58589612  0.34145300  0.43743787  1  0  0.140273  0  0.946124  0  0.177474  0  0.13846  0  1.021504  0  0  0.14351  0  1.016105  0  0  0.123021  0.13486  0  1.02536  0
H  H10  1  0.96209519  0.58344603  0.56109190  1  0  0.122729  0  0.964042  0  0.146825  0  0.12236  0  1.039597  0  0  0.126463  0  1.035451  0  0  0.114565  0.119453  0  1.042576  0
H  H11  1  0.03790316  0.41655117  0.43891180  1  0  0.122694  0  0.964086  0  0.14717  0  0.122324  0  1.039627  0  0  0.126426  0  1.035482  0  0  0.11455  0.119415  0  1.042607  0
H  H12  1  0.91779978  0.53169458  0.71594158  1  0  0.120831  0  0.918537  0  0.114514  0  0.131472  0  0.971509  0  0  0.13518  0  0.970301  0  0  0.118484  0.128732  0  0.972752  0
H  H13  1  0.08220214  0.46831037  0.28406187  1  0  0.120884  0  0.918642  0  0.11426  0  0.131527  0  0.971594  0  0  0.135236  0  0.970386  0  0  0.118534  0.128768  0  0.972859  0
H  H14  1  0.35989149  0.39841662  0.11777739  1  0  0.14992  0  0.955364  0  0.084959  0  0.164589  0  1.019409  0  0  0.167515  0  1.018003  0  0  0.104134  0.16278  0  1.01985  0
H  H15  1  0.64010638  0.60158959  0.88222335  1  0  0.149882  0  0.955377  0  0.084865  0  0.164559  0  1.019409  0  0  0.167484  0  1.018002  0  0  0.104126  0.16275  0  1.01985  0
H  H16  1  0.41886372  0.57074607  0.07268926  1  0  0.16639  0  0.942524  0  0.125432  0  0.187526  0  0.995487  0  0  0.190503  0  0.994209  0  0  0.110385  0.185139  0  0.997078  0
H  H17  1  0.58113704  0.42925887  0.92731252  1  0  0.166356  0  0.942602  0  0.12544  0  0.187502  0  0.995553  0  0  0.190465  0  0.99429  0  0  0.110373  0.185116  0  0.997142  0
H  H18  1  0.26681177  0.58795358  0.16405572  1  0  0.140846  0  0.933194  0  0.046605  0  0.159302  0  0.993506  0  0  0.161876  0  0.991803  0  0  0.102006  0.15745  0  0.995025  0
H  H19  1  0.73318146  0.41205517  0.83594283  1  0  0.140843  0  0.93314  0  0.046637  0  0.159286  0  0.993462  0  0  0.161859  0  0.991759  0  0  0.101991  0.157436  0  0.994982  0
H  H20  1  0.51925484  0.74054797  0.11428494  1  0  0.437367  0  0.839907  0  0.624018  0  0.407741  0  0.910929  0  0  0.41669  0  0.897669  0  0  0.314809  0.40127  0  0.920371  0
H  H21  1  0.48073727  0.25946850  0.88571511  1  0  0.43738  0  0.839858  0  0.623987  0  0.407782  0  0.910856  0  0  0.416726  0  0.897604  0  0  0.314847  0.401312  0  0.920298  0
H  H22  1  0.44927590  0.84184030  0.02590270  1  0  0.419581  0  0.891085  0  0.651752  0  0.385926  0  0.961366  0  0  0.397349  0  0.944371  0  0  0.302449  0.378403  0  0.972067  0
H  H23  1  0.55072087  0.15817363  0.97409654  1  0  0.419619  0  0.891038  0  0.651887  0  0.385956  0  0.961329  0  0  0.39738  0  0.94433  0  0  0.302472  0.378433  0  0.97203  0
H  H24  1  0.89518624  0.08951831  0.92041620  1  0  0.446369  0  0.852631  0  0.666415  0  0.416735  0  0.912643  0  0  0.42792  0  0.896605  0  0  0.299916  0.40855  0  0.924282  0
H  H25  1  0.10481109  0.91049176  0.07958169  1  0  0.446357  0  0.852611  0  0.666447  0  0.416704  0  0.912652  0  0  0.427888  0  0.896617  0  0  0.299907  0.40852  0  0.924288  0
H  H26  1  0.82298333  0.06244190  0.84705974  1  0  0.420837  0  0.874567  0  0.644061  0  0.392171  0  0.934924  0  0  0.401641  0  0.920822  0  0  0.303878  0.385409  0  0.944837  0
H  H27  1  0.17701111  0.93757201  0.15293857  1  0  0.420719  0  0.874732  0  0.644247  0  0.392083  0  0.935033  0  0  0.401558  0  0.920922  0  0  0.303865  0.385324  0  0.94494  0
C  C28  1  0.54090130  0.04035173  0.11984579  1  0  0.70575  0  3.874253  0  1.639475  0  0.654647  0  4.174325  0  0  0.68929  0  4.162361  0  0  0.240018  0.631072  0  4.178064  0
C  C29  1  0.45909421  0.95965188  0.88015438  1  0  0.70565  0  3.874231  0  1.639515  0  0.654495  0  4.174369  0  0  0.689148  0  4.162408  0  0  0.239942  0.63092  0  4.178107  0
C  C30  1  0.59531793  0.98536722  0.20614944  1  0  -0.055085  0  3.648484  0  0.063458  0  -0.049212  0  3.893318  0  0  -0.050987  0  3.909299  0  0  0.015624  -0.048444  0  3.883599  0
C  C31  1  0.40468459  0.01463386  0.79384783  1  0  -0.055116  0  3.648353  0  0.063802  0  -0.049149  0  3.893115  0  0  -0.050967  0  3.90916  0  0  0.015602  -0.048381  0  3.883395  0
C  C32  1  0.49144107  0.94356754  0.27729086  1  0  0.094748  0  3.65547  0  0.186138  0  0.073608  0  3.903913  0  0  0.07231  0  3.924005  0  0  0.096086  0.074081  0  3.891157  0
C  C33  1  0.50855968  0.05643224  0.72270680  1  0  0.094789  0  3.65548  0  0.18655  0  0.073619  0  3.903861  0  0  0.072329  0  3.923968  0  0  0.096104  0.07409  0  3.891109  0
C  C34  1  0.52967380  0.91244139  0.35805076  1  0  -0.117791  0  3.66921  0  0.078028  0  -0.158997  0  3.937497  0  0  -0.158454  0  3.954818  0  0  -0.064438  -0.159049  0  3.925825  0
C  C35  1  0.47032402  0.08755709  0.64194863  1  0  -0.117896  0  3.669164  0  0.078107  0  -0.159074  0  3.937483  0  0  -0.15852  0  3.954787  0  0  -0.064455  -0.159123  0  3.925808  0
C  C36  1  0.67840240  0.92327735  0.36663114  1  0  0.097056  0  3.703884  0  0.181469  0  0.083211  0  3.956185  0  0  0.07981  0  3.980069  0  0  0.086514  0.085227  0  3.940152  0
C  C37  1  0.32160350  0.07670830  0.63336720  1  0  0.096941  0  3.70412  0  0.182063  0  0.083145  0  3.956435  0  0  0.079744  0  3.980308  0  0  0.086513  0.085163  0  3.940398  0
C  C38  1  0.78767478  0.96203271  0.29820425  1  0  -0.070388  0  3.657692  0  0.045762  0  -0.102856  0  3.922288  0  0  -0.102187  0  3.939574  0  0  -0.063801  -0.103048  0  3.910697  0
C  C39  1  0.21233457  0.03794781  0.70179498  1  0  -0.07029  0  3.657562  0  0.04512  0  -0.102755  0  3.922173  0  0  -0.102086  0  3.939465  0  0  -0.063724  -0.102951  0  3.910579  0
C  C40  1  0.74522087  0.99187715  0.21800326  1  0  -0.023744  0  3.635174  0  -0.014005  0  -0.049479  0  3.892246  0  0  -0.050506  0  3.908502  0  0  -0.057512  -0.04904  0  3.882058  0
C  C41  1  0.25479082  0.00810338  0.78199509  1  0  -0.0237  0  3.634977  0  -0.01418  0  -0.049524  0  3.892028  0  0  -0.050559  0  3.908307  0  0  -0.057521  -0.049084  0  3.881841  0
C  C42  1  0.10220722  0.53489401  0.82294665  1  0  0.713992  0  3.914947  0  1.713721  0  0.662084  0  4.226658  0  0  0.697823  0  4.212512  0  0  0.23109  0.637235  0  4.232178  0
C  C43  1  0.89779530  0.46510965  0.17705329  1  0  0.714085  0  3.914899  0  1.713098  0  0.662136  0  4.226663  0  0  0.697875  0  4.212513  0  0  0.231061  0.637285  0  4.23218  0
C  C44  1  0.14150633  0.56240272  0.72828696  1  0  -0.014275  0  3.619017  0  0.055982  0  -0.008695  0  3.861936  0  0  -0.006469  0  3.877598  0  0  0.024687  -0.01082  0  3.852968  0
C  C45  1  0.85849734  0.43759837  0.27171379  1  0  -0.01441  0  3.619065  0  0.056063  0  -0.008787  0  3.861974  0  0  -0.00656  0  3.877634  0  0  0.024635  -0.01091  0  3.853001  0
C  C46  1  0.27980492  0.59904551  0.68285087  1  0  0.058652  0  3.660703  0  0.124999  0  0.03812  0  3.914206  0  0  0.033389  0  3.935821  0  0  0.081865  0.040822  0  3.900249  0
C  C47  1  0.72020333  0.40094531  0.31715011  1  0  0.058802  0  3.660531  0  0.124691  0  0.038255  0  3.914001  0  0  0.033527  0  3.935611  0  0  0.081853  0.040956  0  3.900051  0
C  C48  1  0.30650879  0.62957372  0.59569001  1  0  -0.09088  0  3.693705  0  0.141937  0  -0.133813  0  3.966421  0  0  -0.129063  0  3.980284  0  0  -0.061033  -0.13626  0  3.956143  0
C  C49  1  0.69349306  0.37042092  0.40431121  1  0  -0.091096  0  3.693585  0  0.142037  0  -0.133928  0  3.966299  0  0  -0.129177  0  3.980171  0  0  -0.061063  -0.13638  0  3.956031  0
C  C50  1  0.19144765  0.62198237  0.55331964  1  0  0.077778  0  3.695664  0  0.265201  0  0.06344  0  3.946305  0  0  0.063309  0  3.971712  0  0  0.079926  0.066727  0  3.9313  0
C  C51  1  0.80855476  0.37801099  0.44668290  1  0  0.077966  0  3.695368  0  0.265319  0  0.063454  0  3.946164  0  0  0.063289  0  3.971576  0  0  0.079987  0.066742  0  3.931165  0
C  C52  1  0.05137382  0.58702322  0.59564543  1  0  -0.039838  0  3.666991  0  -0.016824  0  -0.077499  0  3.936827  0  0  -0.07242  0  3.951045  0  0  -0.059231  -0.080325  0  3.926415  0
C  C53  1  0.94862746  0.41297529  0.40435775  1  0  -0.039816  0  3.666919  0  -0.017248  0  -0.077395  0  3.936755  0  0  -0.072314  0  3.950984  0  0  -0.05918  -0.080219  0  3.926329  0
C  C54  1  0.02797426  0.55713594  0.68268379  1  0  -0.055952  0  3.655084  0  0.077946  0  -0.075244  0  3.904784  0  0  -0.080872  0  3.923851  0  0  -0.067797  -0.071918  0  3.892803  0
C  C55  1  0.97202937  0.44286258  0.31731851  1  0  -0.055988  0  3.655335  0  0.078191  0  -0.075318  0  3.905022  0  0  -0.080951  0  3.924093  0  0  -0.067869  -0.07198  0  3.893047  0
C  C56  1  0.31136710  0.53790582  0.10479896  1  0  -0.4698  0  3.638705  0  -0.075716  0  -0.546913  0  3.870457  0  0  -0.554196  0  3.871545  0  0  -0.243414  -0.542208  0  3.870335  0
C  C57  1  0.68863021  0.46210167  0.89520047  1  0  -0.469681  0  3.638696  0  -0.075746  0  -0.546825  0  3.870391  0  0  -0.554095  0  3.871491  0  0  -0.243383  -0.542118  0  3.870275  0
C  C58  1  0.16804359  0.61994802  0.05132735  1  0  0.80023  0  3.789043  0  1.555073  0  0.761369  0  4.079361  0  0  0.795482  0  4.069204  0  0  0.225604  0.738675  0  4.079493  0
C  C59  1  0.83195315  0.38006333  0.94867284  1  0  0.800043  0  3.789144  0  1.555327  0  0.761335  0  4.07925  0  0  0.795451  0  4.069084  0  0  0.225535  0.73863  0  4.079403  0
N  N60  1  0.33569832  0.92846701  0.26895890  1  0  0.490312  0  3.933066  0  0.394184  0  0.548342  0  4.188731  0  0  0.570928  0  4.193572  0  0  0.070426  0.533001  0  4.185992  0
N  N61  1  0.66430129  0.07153534  0.73103795  1  0  0.490299  0  3.933266  0  0.393502  0  0.54841  0  4.188824  0  0  0.570986  0  4.19367  0  0  0.070476  0.53307  0  4.186081  0
N  N62  1  0.71737307  0.89590192  0.45188556  1  0  0.467226  0  3.952779  0  0.365374  0  0.525005  0  4.207411  0  0  0.546252  0  4.215735  0  0  0.05799  0.51074  0  4.201756  0
N  N63  1  0.28262001  0.10408880  0.54811362  1  0  0.467769  0  3.952347  0  0.366499  0  0.525318  0  4.207257  0  0  0.546566  0  4.215576  0  0  0.058114  0.511053  0  4.201602  0
N  N64  1  0.40167975  0.60879533  0.72693242  1  0  0.470948  0  3.951732  0  0.345825  0  0.520819  0  4.218675  0  0  0.541862  0  4.227737  0  0  0.058321  0.506698  0  4.21286  0
N  N65  1  0.59832272  0.39120318  0.27306882  1  0  0.470866  0  3.951706  0  0.345851  0  0.520693  0  4.218718  0  0  0.54174  0  4.227778  0  0  0.058292  0.506573  0  4.212903  0
N  N66  1  0.21980956  0.65054765  0.46157273  1  0  0.48325  0  3.931964  0  0.328348  0  0.542342  0  4.179139  0  0  0.545467  0  4.216549  0  0  0.061532  0.527288  0  4.174707  0
N  N67  1  0.78019810  0.34944445  0.53842995  1  0  0.483177  0  3.931825  0  0.328375  0  0.542351  0  4.178992  0  0  0.545567  0  4.216259  0  0  0.061548  0.527295  0  4.174561  0
O  O68  1  0.66065403  0.01179792  0.05740689  1  0  -0.724207  0  2.05314  0  -1.225118  0  -0.670961  0  2.294692  0  0  -0.694679  0  2.281213  0  0  -0.368532  -0.647242  0  2.304019  0
O  O69  1  0.33933981  0.98821212  0.94258960  1  0  -0.724106  0  2.053146  0  -1.225043  0  -0.670884  0  2.294753  0  0  -0.694601  0  2.281275  0  0  -0.368487  -0.647154  0  2.304082  0
O  O70  1  0.37919989  0.11727434  0.11536027  1  0  -0.697691  0  2.030344  0  -1.204156  0  -0.656793  0  2.282322  0  0  -0.680469  0  2.272236  0  0  -0.367583  -0.633438  0  2.290447  0
O  O71  1  0.62079796  0.88272929  0.88463963  1  0  -0.697715  0  2.030367  0  -1.20409  0  -0.65679  0  2.282345  0  0  -0.680465  0  2.272256  0  0  -0.367602  -0.633446  0  2.290467  0
O  O72  1  0.54924625  0.74759756  0.05360532  1  0  -0.894561  0  1.934931  0  -1.25809  0  -0.851446  0  2.129966  0  0  -0.869121  0  2.100136  0  0  -0.628283  -0.832742  0  2.153378  0
O  O73  1  0.45074754  0.25240990  0.94639514  1  0  -0.894598  0  1.934875  0  -1.25815  0  -0.851505  0  2.129903  0  0  -0.869176  0  2.100077  0  0  -0.628349  -0.832787  0  2.153317  0
O  O74  1  0.35596797  0.82626717  0.22354910  1  0  -0.379525  0  1.82164  0  -0.516866  0  -0.370674  0  2.023491  0  0  -0.3869  0  2.017014  0  0  -0.119546  -0.360392  0  2.028773  0
O  O75  1  0.64403628  0.17373263  0.77644935  1  0  -0.37953  0  1.821683  0  -0.516832  0  -0.370715  0  2.023529  0  0  -0.386904  0  2.017028  0  0  -0.119593  -0.360433  0  2.028814  0
O  O76  1  0.88131404  0.00276744  0.89733736  1  0  -0.909634  0  1.85239  0  -1.304412  0  -0.866572  0  2.038176  0  0  -0.884151  0  2.005824  0  0  -0.642523  -0.847068  0  2.064267  0
O  O77  1  0.11868915  0.99724267  0.10265862  1  0  -0.909496  0  1.852537  0  -1.30465  0  -0.866442  0  2.03834  0  0  -0.883993  0  2.005936  0  0  -0.642506  -0.846928  0  2.064432  0
O  O78  1  0.19686896  0.01192463  0.30880284  1  0  -0.275778  0  1.750605  0  -0.404497  0  -0.275665  0  1.935412  0  0  -0.286595  0  1.931347  0  0  -0.081674  -0.268072  0  1.938317  0
O  O79  1  0.80312943  0.98807256  0.69119605  1  0  -0.27574  0  1.75072  0  -0.404515  0  -0.275657  0  1.935489  0  0  -0.286585  0  1.93143  0  0  -0.081638  -0.268067  0  1.938406  0
O  O80  1  0.66225083  0.80432607  0.50781418  1  0  -0.342761  0  1.751365  0  -0.472854  0  -0.336312  0  1.94368  0  0  -0.350442  0  1.941728  0  0  -0.126779  -0.326664  0  1.945041  0
O  O81  1  0.33773818  0.19566590  0.49218411  1  0  -0.342982  0  1.751134  0  -0.473974  0  -0.336431  0  1.943499  0  0  -0.35056  0  1.941545  0  0  -0.126886  -0.326792  0  1.944873  0
O  O82  1  0.80139548  0.96688381  0.46311476  1  0  -0.326387  0  1.748503  0  -0.448847  0  -0.322997  0  1.938016  0  0  -0.335768  0  1.93576  0  0  -0.118205  -0.314165  0  1.939555  0
O  O83  1  0.19859232  0.03310816  0.53688849  1  0  -0.326643  0  1.748388  0  -0.448898  0  -0.323138  0  1.937945  0  0  -0.33591  0  1.935686  0  0  -0.118251  -0.314308  0  1.939487  0
O  O84  1  0.16718074  0.38140794  0.86110415  1  0  -0.709287  0  2.011497  0  -1.216725  0  -0.670978  0  2.264568  0  0  -0.697776  0  2.256229  0  0  -0.368716  -0.644891  0  2.270711  0
O  O85  1  0.83281942  0.61859571  0.13889908  1  0  -0.709303  0  2.011525  0  -1.216064  0  -0.670983  0  2.264596  0  0  -0.69778  0  2.256252  0  0  -0.368659  -0.644908  0  2.270735  0
O  O86  1  0.99571378  0.66901266  0.85269730  1  0  -0.691539  0  2.016412  0  -1.210552  0  -0.65585  0  2.269373  0  0  -0.681822  0  2.258898  0  0  -0.374872  -0.629397  0  2.276655  0
O  O87  1  0.00429232  0.33099617  0.14729911  1  0  -0.691625  0  2.016401  0  -1.210598  0  -0.655907  0  2.269358  0  0  -0.681882  0  2.258881  0  0  -0.374932  -0.629447  0  2.276644  0
O  O88  1  0.37410817  0.58755246  0.80472406  1  0  -0.328548  0  1.793114  0  -0.440903  0  -0.308174  0  1.984753  0  0  -0.321352  0  1.983315  0  0  -0.098322  -0.299944  0  1.986134  0
O  O89  1  0.62589199  0.41244861  0.19527651  1  0  -0.328537  0  1.792988  0  -0.440859  0  -0.308123  0  1.98461  0  0  -0.321311  0  1.983181  0  0  -0.098335  -0.299892  0  1.985991  0
O  O90  1  0.52329458  0.63941857  0.68460198  1  0  -0.336472  0  1.753189  0  -0.460277  0  -0.334858  0  1.949994  0  0  -0.346742  0  1.94705  0  0  -0.127206  -0.326988  0  1.952189  0
O  O91  1  0.47671250  0.36057224  0.31539854  1  0  -0.336402  0  1.75327  0  -0.460264  0  -0.334782  0  1.950101  0  0  -0.346666  0  1.947156  0  0  -0.127137  -0.326914  0  1.952299  0
O  O92  1  0.34941797  0.67517479  0.42613722  1  0  -0.359797  0  1.812513  0  -0.487721  0  -0.352421  0  2.01998  0  0  -0.359871  0  2.027016  0  0  -0.129225  -0.343134  0  2.021792  0
O  O93  1  0.65058853  0.32481731  0.57386500  1  0  -0.359797  0  1.812449  0  -0.487667  0  -0.352361  0  2.019786  0  0  -0.359857  0  2.026819  0  0  -0.129224  -0.34309  0  2.021634  0
O  O94  1  0.11474336  0.64729270  0.42387002  1  0  -0.343385  0  1.777426  0  -0.461005  0  -0.339453  0  1.975691  0  0  -0.344513  0  1.980604  0  0  -0.124239  -0.331778  0  1.979095  0
O  O95  1  0.88526145  0.35270582  0.57613094  1  0  -0.343347  0  1.777441  0  -0.461136  0  -0.339489  0  1.97575  0  0  -0.344577  0  1.980614  0  0  -0.124243  -0.331807  0  1.979154  0
O  O96  1  0.13836511  0.52862573  0.01398808  1  0  -0.824257  0  2.141231  0  -1.239297  0  -0.773345  0  2.392151  0  0  -0.797764  0  2.380418  0  0  -0.447818  -0.743916  0  2.399986  0
O  O97  1  0.86162757  0.47138946  0.98601267  1  0  -0.824203  0  2.141114  0  -1.239591  0  -0.773362  0  2.392  0  0  -0.797778  0  2.380255  0  0  -0.447796  -0.743917  0  2.399819  0
O  O98  1  0.07045157  0.78146895  0.04229909  1  0  -0.688738  0  1.960232  0  -1.221816  0  -0.633709  0  2.179758  0  0  -0.658837  0  2.168978  0  0  -0.34715  -0.611045  0  2.187251  0
O  O99  1  0.92954281  0.21854240  0.95770439  1  0  -0.688574  0  1.960302  0  -1.221796  0  -0.633638  0  2.179794  0  0  -0.658769  0  2.169018  0  0  -0.347055  -0.610959  0  2.187293  0
