# generated using pymatgen
data_CdH8C12I2N4O
_symmetry_space_group_name_H-M   'P 1'
_cell_length_a   6.76811085
_cell_length_b   8.75068770
_cell_length_c   14.73574052
_cell_angle_alpha   89.99979868
_cell_angle_beta   89.99866136
_cell_angle_gamma   112.58400103
_symmetry_Int_Tables_number   1
_chemical_formula_structural   CdH8C12I2N4O
_chemical_formula_sum   'Cd2 H16 C24 I4 N8 O2'
_cell_volume   805.81004176
_cell_formula_units_Z   2
loop_
 _symmetry_equiv_pos_site_id
 _symmetry_equiv_pos_as_xyz
  1  'x, y, z'
loop_
 _atom_site_type_symbol
 _atom_site_label
 _atom_site_symmetry_multiplicity
 _atom_site_fract_x
 _atom_site_fract_y
 _atom_site_fract_z
 _atom_site_occupancy
 _atom_site_hle17_bader_spin_density
 _atom_site_hle17_ddec_charge
 _atom_site_hle17_ddec_spin_density
 _atom_site_hle17_ddec_sum_bond_order
 _atom_site_hle17_magmom
 _atom_site_hse06_10hf_bader_spin_density
 _atom_site_hse06_10hf_ddec_charge
 _atom_site_hse06_10hf_ddec_spin_density
 _atom_site_hse06_10hf_ddec_sum_bond_order
 _atom_site_hse06_10hf_magmom
 _atom_site_hse06_bader_spin_density
 _atom_site_hse06_ddec_charge
 _atom_site_hse06_ddec_spin_density
 _atom_site_hse06_ddec_sum_bond_order
 _atom_site_hse06_magmom
 _atom_site_pbe_bader_spin_density
 _atom_site_pbe_cm5_charge
 _atom_site_pbe_ddec_charge
 _atom_site_pbe_ddec_spin_density
 _atom_site_pbe_ddec_sum_bond_order
 _atom_site_pbe_magmom
Cd  Cd0  1  0.07339200  0.48515887  0.30662846  1  0  0.790369  0  2.056087  0  0  0.617312  0  2.52166  0  0  0.666475  0  2.484195  0  0  0.541353  0.583218  0  2.54687  0
Cd  Cd1  1  0.92659919  0.51485450  0.80662418  1  0  0.790446  0  2.055888  0  0  0.617369  0  2.521477  0  0  0.666538  0  2.484008  0  0  0.541341  0.583273  0  2.546687  0
H  H2  1  0.35792016  0.88981188  0.25953320  1  0  0.076786  0  0.949717  0  0  0.082701  0  1.016148  0  0  0.085867  0  1.013298  0  0  0.105419  0.080372  0  1.01823  0
H  H3  1  0.64209640  0.11019660  0.75953415  1  0  0.076814  0  0.949596  0  0  0.082738  0  1.016031  0  0  0.085902  0  1.013184  0  0  0.105416  0.080412  0  1.01812  0
H  H4  1  0.54047008  0.07745618  0.12891212  1  0  0.110643  0  0.946831  0  0  0.114915  0  1.015475  0  0  0.118801  0  1.013624  0  0  0.099362  0.112004  0  1.017095  0
H  H5  1  0.45955463  0.92252870  0.62892370  1  0  0.110699  0  0.946773  0  0  0.114935  0  1.015465  0  0  0.118831  0  1.013601  0  0  0.099333  0.112011  0  1.017096  0
H  H6  1  0.55756683  0.94968854  0.97858732  1  0  0.096682  0  0.967604  0  0  0.107162  0  1.027216  0  0  0.11018  0  1.025367  0  0  0.093666  0.104873  0  1.02874  0
H  H7  1  0.44241024  0.05028248  0.47859986  1  0  0.096687  0  0.967618  0  0  0.107131  0  1.02728  0  0  0.110171  0  1.025406  0  0  0.093627  0.104829  0  1.028826  0
H  H8  1  0.40114811  0.63887376  0.96390293  1  0  0.117666  0  0.963857  0  0  0.122333  0  1.034112  0  0  0.126455  0  1.031625  0  0  0.098063  0.119287  0  1.036112  0
H  H9  1  0.59880574  0.36108998  0.46389448  1  0  0.117626  0  0.963754  0  0  0.122294  0  1.03406  0  0  0.126411  0  1.031592  0  0  0.098024  0.119254  0  1.036037  0
H  H10  1  0.17403168  0.17561014  0.87734978  1  0  0.117757  0  0.96059  0  0  0.121346  0  1.030584  0  0  0.125439  0  1.028002  0  0  0.09993  0.118426  0  1.03253  0
H  H11  1  0.82596987  0.82440224  0.37736098  1  0  0.117764  0  0.96061  0  0  0.121356  0  1.030632  0  0  0.125448  0  1.028049  0  0  0.099953  0.118434  0  1.032573  0
H  H12  1  0.09357058  0.91957652  0.78458217  1  0  0.085414  0  0.97233  0  0  0.089313  0  1.042162  0  0  0.092702  0  1.038691  0  0  0.114241  0.086841  0  1.0447  0
H  H13  1  0.90645800  0.08041344  0.28457564  1  0  0.085216  0  0.972452  0  0  0.089227  0  1.042171  0  0  0.092615  0  1.038701  0  0  0.114233  0.086737  0  1.044725  0
H  H14  1  0.84879021  0.61448536  0.00694181  1  0  0.072484  0  0.98958  0  0  0.075196  0  1.064412  0  0  0.078548  0  1.061437  0  0  0.092548  0.072741  0  1.066587  0
H  H15  1  0.15118097  0.38552891  0.50692596  1  0  0.072491  0  0.989668  0  0  0.07524  0  1.064417  0  0  0.078594  0  1.061437  0  0  0.092584  0.072785  0  1.066587  0
H  H16  1  0.92403964  0.85702490  0.11034853  1  0  0.118286  0  0.935139  0  0  0.126484  0  0.995602  0  0  0.130168  0  0.99412  0  0  0.112192  0.123842  0  0.996825  0
H  H17  1  0.07595430  0.14301103  0.61034427  1  0  0.118251  0  0.935081  0  0  0.126437  0  0.995549  0  0  0.130121  0  0.994065  0  0  0.112155  0.123794  0  0.996777  0
C  C18  1  0.37039538  0.84040828  0.19259193  1  0  0.137344  0  3.69909  0  0  0.110692  0  3.944498  0  0  0.116769  0  3.962378  0  0  0.052758  0.106823  0  3.932193  0
C  C19  1  0.62961725  0.15958605  0.69258871  1  0  0.137345  0  3.699331  0  0  0.110664  0  3.944769  0  0  0.116739  0  3.962652  0  0  0.052703  0.106788  0  3.932478  0
C  C20  1  0.47204318  0.94343260  0.11994023  1  0  -0.098274  0  3.683728  0  0  -0.113493  0  3.936304  0  0  -0.118988  0  3.956681  0  0  -0.077501  -0.109895  0  3.922742  0
C  C21  1  0.52796805  0.05655434  0.61995011  1  0  -0.098294  0  3.68368  0  0  -0.113464  0  3.936252  0  0  -0.118969  0  3.956634  0  0  -0.07735  -0.109853  0  3.922695  0
C  C22  1  0.48258219  0.87147939  0.03658132  1  0  -0.000197  0  3.706139  0  0  -0.015237  0  3.950625  0  0  -0.013549  0  3.970645  0  0  -0.066748  -0.016208  0  3.937255  0
C  C23  1  0.51739915  0.12849614  0.53658241  1  0  -0.000154  0  3.705683  0  0  -0.015153  0  3.950152  0  0  -0.013488  0  3.970175  0  0  -0.066707  -0.016108  0  3.93677  0
C  C24  1  0.39545287  0.69967105  0.02800970  1  0  -0.109627  0  3.664148  0  0  -0.131762  0  3.910115  0  0  -0.136728  0  3.930035  0  0  -0.073946  -0.128416  0  3.896945  0
C  C25  1  0.60452244  0.30030656  0.52800594  1  0  -0.10954  0  3.663977  0  0  -0.131698  0  3.910062  0  0  -0.136675  0  3.929984  0  0  -0.073929  -0.128349  0  3.896887  0
C  C26  1  0.29840432  0.60690643  0.10442376  1  0  0.134916  0  3.811882  0  0  0.135424  0  4.053093  0  0  0.138312  0  4.073692  0  0  0.115232  0.133368  0  4.039167  0
C  C27  1  0.70159113  0.39308570  0.60440944  1  0  0.135053  0  3.811771  0  0  0.135483  0  4.053143  0  0  0.138385  0  4.07372  0  0  0.11531  0.133426  0  4.039222  0
C  C28  1  0.20392190  0.42753909  0.10458128  1  0  0.34755  0  3.695515  0  0  0.306855  0  3.973097  0  0  0.326154  0  3.978861  0  0  0.23118  0.294022  0  3.968899  0
C  C29  1  0.79606999  0.57245177  0.60456680  1  0  0.347668  0  3.695367  0  0  0.306985  0  3.972944  0  0  0.32628  0  3.978708  0  0  0.231259  0.294137  0  3.96876  0
C  C30  1  0.09742721  0.17597814  0.06100180  1  0  0.356958  0  3.690077  0  0  0.31998  0  3.977066  0  0  0.337001  0  3.983034  0  0  0.228498  0.308591  0  3.97298  0
C  C31  1  0.90257809  0.82403083  0.56100169  1  0  0.357268  0  3.689553  0  0  0.319982  0  3.976937  0  0  0.337002  0  3.982914  0  0  0.228494  0.308587  0  3.972861  0
C  C32  1  0.05679565  0.03556699  0.00169858  1  0  0.025711  0  3.812309  0  0  0.03754  0  4.050827  0  0  0.03811  0  4.071693  0  0  0.008844  0.037244  0  4.036869  0
C  C33  1  0.94321275  0.96444929  0.50170009  1  0  0.025555  0  3.812469  0  0  0.03753  0  4.05098  0  0  0.038088  0  4.07187  0  0  0.00881  0.037227  0  4.037025  0
C  C34  1  0.10445421  0.05371556  0.90883982  1  0  -0.118905  0  3.685049  0  0  -0.140935  0  3.934225  0  0  -0.145722  0  3.952883  0  0  -0.077117  -0.137983  0  3.921862  0
C  C35  1  0.89555467  0.94629118  0.40884299  1  0  -0.118967  0  3.68481  0  0  -0.14105  0  3.934001  0  0  -0.145835  0  3.952661  0  0  -0.077124  -0.138087  0  3.921621  0
C  C36  1  0.06024126  0.91126148  0.85715333  1  0  0.129208  0  3.67242  0  0  0.102118  0  3.918416  0  0  0.108243  0  3.936039  0  0  0.046324  0.098162  0  3.906441  0
C  C37  1  0.93977871  0.08874568  0.35715023  1  0  0.129526  0  3.671986  0  0  0.102349  0  3.918006  0  0  0.10848  0  3.935621  0  0  0.046382  0.098403  0  3.906043  0
C  C38  1  0.92331996  0.74120296  0.98155862  1  0  0.11826  0  3.718728  0  0  0.090942  0  3.966854  0  0  0.096379  0  3.986495  0  0  0.03732  0.087398  0  3.953636  0
C  C39  1  0.07667166  0.25881228  0.48154750  1  0  0.118088  0  3.718729  0  0  0.090738  0  3.966939  0  0  0.096177  0  3.986578  0  0  0.037207  0.0872  0  3.953717  0
C  C40  1  0.96399130  0.87585840  0.03855377  1  0  -0.125518  0  3.699561  0  0  -0.144906  0  3.94587  0  0  -0.151189  0  3.968012  0  0  -0.074389  -0.140902  0  3.931253  0
C  C41  1  0.03600807  0.12416270  0.53854801  1  0  -0.125406  0  3.699515  0  0  -0.144769  0  3.945812  0  0  -0.151048  0  3.967956  0  0  -0.074375  -0.140766  0  3.931204  0
I  I42  1  0.66266517  0.46396521  0.26507768  1  0  -0.525117  0  0.915518  0  0  -0.479635  0  1.2007  0  0  -0.498029  0  1.180324  0  0  -0.308719  -0.466494  0  1.214435  0
I  I43  1  0.33734439  0.53603649  0.76509533  1  0  -0.525107  0  0.915452  0  0  -0.479631  0  1.200626  0  0  -0.498026  0  1.180245  0  0  -0.308702  -0.466484  0  1.214365  0
I  I44  1  0.30718545  0.70703922  0.44026889  1  0  -0.498883  0  1.07725  0  0  -0.458483  0  1.405658  0  0  -0.477042  0  1.384691  0  0  -0.248543  -0.444688  0  1.4198  0
I  I45  1  0.69285369  0.29297560  0.94028149  1  0  -0.49886  0  1.077134  0  0  -0.458494  0  1.405621  0  0  -0.47705  0  1.384648  0  0  -0.248548  -0.444692  0  1.419775  0
N  N46  1  0.28391531  0.67567217  0.18508043  1  0  -0.327047  0  3.235419  0  0  -0.260159  0  3.484212  0  0  -0.277785  0  3.505311  0  0  -0.314635  -0.248054  0  3.469714  0
N  N47  1  0.71609730  0.32432417  0.68506736  1  0  -0.327373  0  3.235448  0  0  -0.260431  0  3.484265  0  0  -0.278057  0  3.505353  0  0  -0.314717  -0.248314  0  3.469755  0
N  N48  1  0.10916734  0.33400995  0.17398104  1  0  -0.255521  0  3.120422  0  0  -0.203919  0  3.406339  0  0  -0.219552  0  3.420293  0  0  -0.226189  -0.193324  0  3.39681  0
N  N49  1  0.89082349  0.66597504  0.67396902  1  0  -0.255695  0  3.120557  0  0  -0.204058  0  3.406438  0  0  -0.219691  0  3.42039  0  0  -0.226395  -0.193459  0  3.396909  0
N  N50  1  0.04020936  0.17218383  0.14631749  1  0  -0.240847  0  2.912252  0  0  -0.225105  0  3.188148  0  0  -0.233058  0  3.200443  0  0  -0.203364  -0.219696  0  3.17988  0
N  N51  1  0.95978747  0.82780279  0.64631605  1  0  -0.24092  0  2.912184  0  0  -0.22508  0  3.188147  0  0  -0.233026  0  3.200433  0  0  -0.203299  -0.219677  0  3.179891  0
N  N52  1  0.97148393  0.75779199  0.89253136  1  0  -0.301098  0  3.24338  0  0  -0.224335  0  3.502156  0  0  -0.243316  0  3.522859  0  0  -0.32493  -0.21136  0  3.487828  0
N  N53  1  0.02852179  0.24221269  0.39252059  1  0  -0.301041  0  3.243252  0  0  -0.22429  0  3.50211  0  0  -0.243261  0  3.522784  0  0  -0.324898  -0.211319  0  3.487782  0
O  O54  1  0.20417295  0.33507828  0.03087494  1  0  -0.234991  0  2.3498  0  0  -0.162318  0  2.571437  0  0  -0.180625  0  2.573677  0  0  -0.08084  -0.150172  0  2.569797  0
O  O55  1  0.79582717  0.66493127  0.53086623  1  0  -0.235148  0  2.349595  0  0  -0.162367  0  2.571275  0  0  -0.180677  0  2.573527  0  0  -0.080793  -0.15021  0  2.569637  0
