# generated using pymatgen
data_La2B5H7(C2O7)2
_symmetry_space_group_name_H-M   'P 1'
_cell_length_a   6.49087599
_cell_length_b   10.89908303
_cell_length_c   11.42312366
_cell_angle_alpha   61.51306286
_cell_angle_beta   89.87780310
_cell_angle_gamma   89.74446226
_symmetry_Int_Tables_number   1
_chemical_formula_structural   La2B5H7(C2O7)2
_chemical_formula_sum   'La4 B10 H14 C8 O28'
_cell_volume   710.27427014
_cell_formula_units_Z   2
loop_
 _symmetry_equiv_pos_site_id
 _symmetry_equiv_pos_as_xyz
  1  'x, y, z'
loop_
 _atom_site_type_symbol
 _atom_site_label
 _atom_site_symmetry_multiplicity
 _atom_site_fract_x
 _atom_site_fract_y
 _atom_site_fract_z
 _atom_site_occupancy
 _atom_site_hle17_bader_spin_density
 _atom_site_hle17_ddec_charge
 _atom_site_hle17_ddec_spin_density
 _atom_site_hle17_ddec_sum_bond_order
 _atom_site_hle17_magmom
 _atom_site_hse06_10hf_bader_spin_density
 _atom_site_hse06_10hf_ddec_charge
 _atom_site_hse06_10hf_ddec_spin_density
 _atom_site_hse06_10hf_ddec_sum_bond_order
 _atom_site_hse06_10hf_magmom
 _atom_site_hse06_bader_spin_density
 _atom_site_hse06_ddec_charge
 _atom_site_hse06_ddec_spin_density
 _atom_site_hse06_ddec_sum_bond_order
 _atom_site_hse06_magmom
 _atom_site_pbe_bader_spin_density
 _atom_site_pbe_cm5_charge
 _atom_site_pbe_ddec_charge
 _atom_site_pbe_ddec_spin_density
 _atom_site_pbe_ddec_sum_bond_order
 _atom_site_pbe_magmom
La  La0  1  0.83573421  0.38470082  0.47904235  1  0  2.168828  0  1.715589  0  0  2.044419  0  2.19141  0  0  2.143085  0  2.099006  0  0  1.664063  1.969319  0  2.257661  0
La  La1  1  0.33586668  0.86382713  0.52087294  1  0  2.169536  0  1.713245  0  0  2.044981  0  2.188889  0  0  2.143568  0  2.096599  0  0  1.663789  1.969949  0  2.255051  0
La  La2  1  0.66480656  0.81299069  0.13565095  1  0  2.16122  0  1.669959  0  0  2.033129  0  2.159752  0  0  2.134467  0  2.06641  0  0  1.555593  1.957774  0  2.223828  0
La  La3  1  0.16477192  0.94845905  0.86449223  1  0  2.160879  0  1.671758  0  0  2.032605  0  2.161566  0  0  2.133872  0  2.068289  0  0  1.555768  1.957243  0  2.225712  0
B  B4  1  0.32096470  0.58856066  0.40987265  1  0  1.28  0  2.67391  0  0  1.11435  0  3.010784  0  0  1.149706  0  2.980105  0  0  0.081757  1.089203  0  3.032528  0
B  B5  1  0.82094652  0.99846626  0.59008777  1  0  1.282228  0  2.670578  0  0  1.116487  0  3.007466  0  0  1.151825  0  2.976771  0  0  0.082012  1.091359  0  3.029204  0
B  B6  1  0.21103935  0.79707295  0.19468760  1  0  1.179394  0  2.909398  0  0  1.027096  0  3.23936  0  0  1.069723  0  3.201224  0  0  0.04054  0.995255  0  3.269228  0
B  B7  1  0.71107807  0.99166225  0.80534798  1  0  1.180336  0  2.907585  0  0  1.027331  0  3.239297  0  0  1.069447  0  3.202537  0  0  0.041398  0.995891  0  3.268133  0
B  B8  1  0.97375422  0.68997179  0.39023532  1  0  1.209801  0  2.782728  0  0  1.045886  0  3.115292  0  0  1.079399  0  3.089941  0  0  0.019793  1.02219  0  3.132843  0
B  B9  1  0.47369858  0.08020933  0.60984088  1  0  1.209267  0  2.78459  0  0  1.045071  0  3.117392  0  0  1.078898  0  3.091123  0  0  0.02033  1.021096  0  3.135617  0
B  B10  1  0.36868380  0.33085342  0.46583097  1  0  1.200223  0  2.836098  0  0  1.045053  0  3.155263  0  0  1.08783  0  3.114343  0  0  0.105891  1.014544  0  3.183936  0
B  B11  1  0.86872212  0.79666416  0.53420578  1  0  1.200091  0  2.836601  0  0  1.044994  0  3.155475  0  0  1.08812  0  3.113529  0  0  0.105742  1.014292  0  3.184854  0
B  B12  1  0.62999939  0.62847283  0.51853900  1  0  1.206826  0  2.784663  0  0  1.045529  0  3.118752  0  0  1.079155  0  3.092758  0  0  0.00908  1.021412  0  3.1376  0
B  B13  1  0.13000730  0.14700250  0.48149668  1  0  1.207391  0  2.782555  0  0  1.045999  0  3.117431  0  0  1.079591  0  3.091593  0  0  0.009535  1.022058  0  3.135797  0
H  H14  1  0.07787987  0.37272295  0.17968251  1  0  0.137509  0  0.958864  0  0  0.153493  0  1.022341  0  0  0.156685  0  1.020199  0  0  0.103392  0.151129  0  1.024088  0
H  H15  1  0.57771013  0.55312787  0.82013289  1  0  0.137518  0  0.958853  0  0  0.153524  0  1.022426  0  0  0.156742  0  1.020273  0  0  0.103171  0.151115  0  1.024209  0
H  H16  1  0.26138931  0.51076801  0.12158778  1  0  0.15618  0  0.92585  0  0  0.177141  0  0.980143  0  0  0.180163  0  0.978632  0  0  0.116042  0.174925  0  0.98142  0
H  H17  1  0.76102578  0.63316624  0.87826460  1  0  0.156045  0  0.925286  0  0  0.177108  0  0.979553  0  0  0.180126  0  0.978036  0  0  0.116234  0.174895  0  0.980802  0
H  H18  1  0.09439348  0.49780714  0.00555589  1  0  0.137914  0  0.94457  0  0  0.159365  0  1.001191  0  0  0.161399  0  1.000841  0  0  0.104516  0.157857  0  1.001586  0
H  H19  1  0.59439805  0.50386488  0.99429833  1  0  0.137094  0  0.94441  0  0  0.159048  0  1.00064  0  0  0.161084  0  1.000282  0  0  0.104511  0.157531  0  1.001039  0
H  H20  1  0.71591679  0.26703030  0.14053696  1  0  0.128473  0  0.950987  0  0  0.147406  0  1.009415  0  0  0.149739  0  1.008294  0  0  0.094484  0.145684  0  1.010392  0
H  H21  1  0.21596555  0.40734738  0.85939734  1  0  0.128629  0  0.950972  0  0  0.147659  0  1.009308  0  0  0.150001  0  1.008185  0  0  0.094424  0.14594  0  1.010282  0
H  H22  1  0.67612581  0.17659982  0.31826424  1  0  0.150093  0  0.965679  0  0  0.160681  0  1.039455  0  0  0.164246  0  1.037455  0  0  0.112453  0.158006  0  1.041203  0
H  H23  1  0.17613980  0.49480918  0.68167293  1  0  0.150703  0  0.965636  0  0  0.161446  0  1.039181  0  0  0.165029  0  1.037147  0  0  0.112621  0.158777  0  1.040925  0
H  H24  1  0.46113695  0.23312414  0.21224212  1  0  0.150408  0  0.942104  0  0  0.169492  0  0.999391  0  0  0.172317  0  0.997975  0  0  0.106569  0.167443  0  1.000497  0
H  H25  1  0.96114331  0.44537784  0.78770575  1  0  0.150868  0  0.942053  0  0  0.169818  0  0.999417  0  0  0.172618  0  0.99805  0  0  0.10654  0.167791  0  1.000492  0
H  H26  1  0.57885592  0.43780708  0.68460761  1  0  0.42784  0  0.813835  0  0  0.414756  0  0.859147  0  0  0.422488  0  0.851691  0  0  0.351422  0.409159  0  0.864618  0
H  H27  1  0.07907118  0.12244655  0.31537122  1  0  0.427817  0  0.81419  0  0  0.414704  0  0.85955  0  0  0.422445  0  0.852085  0  0  0.351462  0.409085  0  0.865056  0
C  C28  1  0.95506995  0.57811154  0.12499492  1  0  0.788906  0  3.804531  0  0  0.754328  0  4.095429  0  0  0.790646  0  4.086574  0  0  0.2381  0.729116  0  4.100759  0
C  C29  1  0.45457946  0.70342483  0.87524937  1  0  0.788842  0  3.803695  0  0  0.752603  0  4.096934  0  0  0.789007  0  4.088026  0  0  0.237313  0.727368  0  4.102231  0
C  C30  1  0.10472303  0.48205820  0.10775634  1  0  -0.460856  0  3.633414  0  0  -0.537951  0  3.862928  0  0  -0.544654  0  3.862942  0  0  -0.234217  -0.533143  0  3.863054  0
C  C31  1  0.60446762  0.59044081  0.89216024  1  0  -0.459758  0  3.632294  0  0  -0.536994  0  3.86199  0  0  -0.543727  0  3.862011  0  0  -0.233771  -0.53219  0  3.862201  0
C  C32  1  0.61376356  0.05455878  0.22079736  1  0  0.781485  0  3.807631  0  0  0.75104  0  4.096112  0  0  0.786331  0  4.088898  0  0  0.233671  0.726687  0  4.100138  0
C  C33  1  0.11339333  0.27532397  0.77900727  1  0  0.784353  0  3.804876  0  0  0.752967  0  4.094606  0  0  0.788248  0  4.087351  0  0  0.234524  0.728618  0  4.098659  0
C  C34  1  0.61867108  0.19255706  0.22149940  1  0  -0.471478  0  3.645337  0  0  -0.54718  0  3.878107  0  0  -0.554143  0  3.878029  0  0  -0.239955  -0.542285  0  3.878517  0
C  C35  1  0.11861283  0.41398706  0.77840041  1  0  -0.473449  0  3.645906  0  0  -0.549207  0  3.879058  0  0  -0.556175  0  3.879005  0  0  -0.240142  -0.544327  0  3.879448  0
O  O36  1  0.43352087  0.46198518  0.43178855  1  0  -0.912036  0  2.183389  0  0  -0.804537  0  2.45166  0  0  -0.836214  0  2.430125  0  0  -0.203564  -0.781687  0  2.466291  0
O  O37  1  0.93350122  0.89381342  0.56816004  1  0  -0.912337  0  2.182974  0  0  -0.804869  0  2.451313  0  0  -0.836557  0  2.429732  0  0  -0.20388  -0.782026  0  2.465994  0
O  O38  1  0.35350152  0.69212158  0.26818836  1  0  -0.934695  0  2.173389  0  0  -0.827659  0  2.441945  0  0  -0.861349  0  2.421509  0  0  -0.25834  -0.803122  0  2.455441  0
O  O39  1  0.85352909  0.96028258  0.73179582  1  0  -0.935783  0  2.17416  0  0  -0.828506  0  2.44282  0  0  -0.862247  0  2.422573  0  0  -0.258441  -0.803974  0  2.456187  0
O  O40  1  0.10014808  0.56382875  0.43615089  1  0  -0.967357  0  2.103216  0  0  -0.863994  0  2.372298  0  0  -0.8966  0  2.356488  0  0  -0.290349  -0.840009  0  2.382345  0
O  O41  1  0.60009299  0.00000413  0.56385224  1  0  -0.968562  0  2.10392  0  0  -0.864362  0  2.37204  0  0  -0.897132  0  2.356436  0  0  -0.290484  -0.840281  0  2.381946  0
O  O42  1  0.27786817  0.89782088  0.07607753  1  0  -1.03255  0  1.855836  0  0  -0.961585  0  2.140495  0  0  -1.006949  0  2.120914  0  0  -0.499634  -0.927796  0  2.152486  0
O  O43  1  0.77803952  0.97353020  0.92406589  1  0  -1.032856  0  1.855928  0  0  -0.961683  0  2.140768  0  0  -1.007048  0  2.121393  0  0  -0.500361  -0.927907  0  2.152588  0
O  O44  1  0.01565274  0.79017444  0.24792089  1  0  -0.913795  0  2.144829  0  0  -0.803604  0  2.405236  0  0  -0.836253  0  2.385365  0  0  -0.238047  -0.779934  0  2.418363  0
O  O45  1  0.51571030  0.03808865  0.75216142  1  0  -0.913207  0  2.143441  0  0  -0.802792  0  2.404113  0  0  -0.835171  0  2.383898  0  0  -0.238086  -0.779257  0  2.417391  0
O  O46  1  0.51895343  0.23131650  0.53040418  1  0  -0.913246  0  2.172072  0  0  -0.801849  0  2.433841  0  0  -0.834213  0  2.412736  0  0  -0.240214  -0.778223  0  2.44782  0
O  O47  1  0.01904512  0.76163028  0.46970126  1  0  -0.913153  0  2.171297  0  0  -0.802047  0  2.433267  0  0  -0.834348  0  2.412157  0  0  -0.239926  -0.778461  0  2.447277  0
O  O48  1  0.75470607  0.65357422  0.39989977  1  0  -0.990876  0  2.141625  0  0  -0.885439  0  2.406888  0  0  -0.92054  0  2.394229  0  0  -0.283555  -0.859572  0  2.414746  0
O  O49  1  0.25465377  0.05347515  0.60015629  1  0  -0.990293  0  2.141019  0  0  -0.885291  0  2.406769  0  0  -0.920215  0  2.393711  0  0  -0.283559  -0.859583  0  2.414947  0
O  O50  1  0.67967585  0.73433683  0.56339612  1  0  -0.909006  0  2.155929  0  0  -0.798304  0  2.418402  0  0  -0.831001  0  2.397695  0  0  -0.240902  -0.774577  0  2.432327  0
O  O51  1  0.17964467  0.29771343  0.43665806  1  0  -0.908766  0  2.155318  0  0  -0.798062  0  2.417795  0  0  -0.830658  0  2.396999  0  0  -0.241165  -0.774404  0  2.431739  0
O  O52  1  0.69050978  0.48544672  0.62296508  1  0  -0.887187  0  1.954373  0  0  -0.819095  0  2.184713  0  0  -0.84513  0  2.164834  0  0  -0.449002  -0.80001  0  2.198223  0
O  O53  1  0.19068007  0.10840375  0.37704874  1  0  -0.887596  0  1.954002  0  0  -0.819527  0  2.184622  0  0  -0.845548  0  2.164678  0  0  -0.449511  -0.800466  0  2.19819  0
O  O54  1  0.41094381  0.64246403  0.49509871  1  0  -0.971055  0  2.097696  0  0  -0.872435  0  2.371017  0  0  -0.903538  0  2.353818  0  0  -0.271724  -0.849509  0  2.382496  0
O  O55  1  0.91090727  0.13755703  0.50481984  1  0  -0.97118  0  2.09702  0  0  -0.872627  0  2.370434  0  0  -0.903803  0  2.353386  0  0  -0.271356  -0.849602  0  2.381631  0
O  O56  1  0.95672666  0.70793521  0.04030256  1  0  -0.750114  0  1.993569  0  0  -0.698658  0  2.247067  0  0  -0.734623  0  2.239681  0  0  -0.351488  -0.672568  0  2.251045  0
O  O57  1  0.45624538  0.74833392  0.96015054  1  0  -0.750444  0  1.994266  0  0  -0.698139  0  2.248114  0  0  -0.734152  0  2.240753  0  0  -0.351532  -0.672028  0  2.25206  0
O  O58  1  0.82759062  0.53037415  0.22266917  1  0  -0.75176  0  1.915629  0  0  -0.703786  0  2.165154  0  0  -0.739273  0  2.155167  0  0  -0.370127  -0.678205  0  2.171689  0
O  O59  1  0.32701993  0.75350982  0.77760422  1  0  -0.751677  0  1.914546  0  0  -0.703016  0  2.164494  0  0  -0.73855  0  2.154523  0  0  -0.369784  -0.677404  0  2.170987  0
O  O60  1  0.71973328  0.03905612  0.13584398  1  0  -0.644891  0  1.906917  0  0  -0.605874  0  2.136893  0  0  -0.63558  0  2.125977  0  0  -0.361596  -0.584689  0  2.143727  0
O  O61  1  0.21965170  0.17491313  0.86373161  1  0  -0.64684  0  1.906135  0  0  -0.606822  0  2.13603  0  0  -0.636546  0  2.125117  0  0  -0.362257  -0.585629  0  2.14288  0
O  O62  1  0.50318358  0.95399814  0.30772172  1  0  -0.754893  0  1.96642  0  0  -0.711855  0  2.226898  0  0  -0.748101  0  2.216785  0  0  -0.404616  -0.684957  0  2.232412  0
O  O63  1  0.00228700  0.26173155  0.69228255  1  0  -0.755005  0  1.967104  0  0  -0.711757  0  2.22785  0  0  -0.747965  0  2.217789  0  0  -0.405155  -0.684888  0  2.233342  0
