# generated using pymatgen
data_ZnH14C14Br2(N2O)2
_symmetry_space_group_name_H-M   'P 1'
_cell_length_a   7.50480338
_cell_length_b   12.21005041
_cell_length_c   22.76751512
_cell_angle_alpha   90.00006888
_cell_angle_beta   90.00000390
_cell_angle_gamma   90.00002590
_symmetry_Int_Tables_number   1
_chemical_formula_structural   ZnH14C14Br2(N2O)2
_chemical_formula_sum   'Zn4 H56 C56 Br8 N16 O8'
_cell_volume   2086.27910783
_cell_formula_units_Z   4
loop_
 _symmetry_equiv_pos_site_id
 _symmetry_equiv_pos_as_xyz
  1  'x, y, z'
loop_
 _atom_site_type_symbol
 _atom_site_label
 _atom_site_symmetry_multiplicity
 _atom_site_fract_x
 _atom_site_fract_y
 _atom_site_fract_z
 _atom_site_occupancy
 _atom_site_hle17_bader_spin_density
 _atom_site_hle17_ddec_charge
 _atom_site_hle17_ddec_spin_density
 _atom_site_hle17_ddec_sum_bond_order
 _atom_site_hle17_magmom
 _atom_site_hse06_10hf_bader_spin_density
 _atom_site_hse06_10hf_ddec_charge
 _atom_site_hse06_10hf_ddec_spin_density
 _atom_site_hse06_10hf_ddec_sum_bond_order
 _atom_site_hse06_10hf_magmom
 _atom_site_hse06_bader_spin_density
 _atom_site_hse06_ddec_charge
 _atom_site_hse06_ddec_spin_density
 _atom_site_hse06_ddec_sum_bond_order
 _atom_site_hse06_magmom
 _atom_site_pbe_bader_spin_density
 _atom_site_pbe_cm5_charge
 _atom_site_pbe_ddec_charge
 _atom_site_pbe_ddec_spin_density
 _atom_site_pbe_ddec_sum_bond_order
 _atom_site_pbe_magmom
Zn  Zn0  1  0.25000010  0.50000071  0.25017503  1  0  0.763783  0  2.160613  0  0  0.582778  0  2.650827  0  0  0.624251  0  2.606759  0  0  0.517774  0.554391  0  2.680682  0
Zn  Zn1  1  0.25000028  0.99999946  0.24982513  1  0  0.763757  0  2.160632  0  0  0.582742  0  2.650852  0  0  0.624213  0  2.606783  0  0  0.517766  0.554356  0  2.680704  0
Zn  Zn2  1  0.74999992  0.49999970  0.74982464  1  0  0.763718  0  2.160606  0  0  0.582715  0  2.650829  0  0  0.624187  0  2.60676  0  0  0.51775  0.554329  0  2.680679  0
Zn  Zn3  1  0.74999974  0.00000013  0.75017498  1  0  0.763717  0  2.160591  0  0  0.582727  0  2.650813  0  0  0.624202  0  2.606745  0  0  0.517749  0.554343  0  2.680664  0
H  H4  1  0.49492207  0.99194858  0.09289672  1  0  0.28686  0  0.916296  0  0  0.264795  0  0.990655  0  0  0.272893  0  0.98436  0  0  0.297539  0.259044  0  0.99515  0
H  H5  1  0.00507543  0.00805085  0.09289683  1  0  0.286874  0  0.916306  0  0  0.264808  0  0.990657  0  0  0.272906  0  0.984363  0  0  0.297552  0.259056  0  0.995152  0
H  H6  1  0.00507564  0.49194847  0.40710387  1  0  0.286823  0  0.916354  0  0  0.264796  0  0.990706  0  0  0.272894  0  0.984412  0  0  0.297531  0.259041  0  0.995202  0
H  H7  1  0.49492325  0.50805084  0.40710345  1  0  0.286851  0  0.916299  0  0  0.264781  0  0.990656  0  0  0.272879  0  0.984362  0  0  0.29754  0.259035  0  0.99515  0
H  H8  1  0.50507529  0.00805101  0.90710339  1  0  0.286852  0  0.916332  0  0  0.26479  0  0.990687  0  0  0.272888  0  0.984392  0  0  0.297538  0.25904  0  0.995183  0
H  H9  1  0.99492326  0.99194956  0.90710371  1  0  0.286853  0  0.916287  0  0  0.2648  0  0.990641  0  0  0.272899  0  0.984346  0  0  0.297556  0.259046  0  0.995136  0
H  H10  1  0.99492305  0.50805112  0.59289623  1  0  0.286836  0  0.916325  0  0  0.264782  0  0.990676  0  0  0.272881  0  0.984382  0  0  0.297539  0.259031  0  0.995172  0
H  H11  1  0.50507543  0.49194875  0.59289622  1  0  0.286802  0  0.916356  0  0  0.264772  0  0.990714  0  0  0.272872  0  0.984419  0  0  0.297524  0.259017  0  0.995211  0
H  H12  1  0.14668898  0.66294259  0.15745701  1  0  0.076044  0  0.93074  0  0  0.086278  0  0.991771  0  0  0.088866  0  0.989127  0  0  0.113261  0.084322  0  0.993766  0
H  H13  1  0.35331386  0.33705780  0.15745647  1  0  0.07611  0  0.930731  0  0  0.086317  0  0.991773  0  0  0.088926  0  0.989107  0  0  0.113284  0.084361  0  0.993766  0
H  H14  1  0.35331515  0.16294243  0.34254337  1  0  0.076054  0  0.930732  0  0  0.08629  0  0.991754  0  0  0.08888  0  0.989107  0  0  0.113271  0.084335  0  0.993747  0
H  H15  1  0.14668906  0.83705837  0.34254270  1  0  0.07607  0  0.930744  0  0  0.086308  0  0.991764  0  0  0.088895  0  0.98912  0  0  0.113281  0.084351  0  0.993758  0
H  H16  1  0.85331370  0.33705700  0.84254354  1  0  0.076075  0  0.930721  0  0  0.086307  0  0.991744  0  0  0.088901  0  0.989093  0  0  0.113283  0.084351  0  0.993737  0
H  H17  1  0.64668616  0.66294343  0.84254364  1  0  0.076047  0  0.930731  0  0  0.086279  0  0.991752  0  0  0.088874  0  0.9891  0  0  0.113283  0.084323  0  0.993745  0
H  H18  1  0.64668487  0.83705552  0.65745674  1  0  0.076051  0  0.930708  0  0  0.086278  0  0.991733  0  0  0.088874  0  0.989079  0  0  0.113278  0.084322  0  0.993726  0
H  H19  1  0.85331362  0.16294285  0.65745609  1  0  0.076081  0  0.930736  0  0  0.086312  0  0.991759  0  0  0.088907  0  0.989108  0  0  0.113288  0.084356  0  0.993753  0
H  H20  1  0.29490876  0.80297390  0.09489951  1  0  0.135455  0  0.968716  0  0  0.14124  0  1.033946  0  0  0.145239  0  1.031697  0  0  0.108873  0.138336  0  1.035779  0
H  H21  1  0.20508873  0.19702635  0.09489931  1  0  0.135425  0  0.968758  0  0  0.141213  0  1.033989  0  0  0.145213  0  1.031734  0  0  0.108867  0.13831  0  1.03582  0
H  H22  1  0.20508880  0.30297384  0.40510052  1  0  0.135424  0  0.968776  0  0  0.141212  0  1.034006  0  0  0.145211  0  1.031754  0  0  0.10887  0.138307  0  1.035839  0
H  H23  1  0.29491009  0.69702628  0.40510021  1  0  0.135441  0  0.968739  0  0  0.141225  0  1.03397  0  0  0.145224  0  1.031717  0  0  0.108874  0.13832  0  1.035804  0
H  H24  1  0.70508992  0.19702569  0.90510060  1  0  0.135421  0  0.968769  0  0  0.141207  0  1.034003  0  0  0.145206  0  1.031753  0  0  0.108861  0.138303  0  1.035835  0
H  H25  1  0.79490995  0.80297488  0.90510080  1  0  0.135415  0  0.968775  0  0  0.141199  0  1.034013  0  0  0.145197  0  1.031766  0  0  0.108858  0.138295  0  1.035847  0
H  H26  1  0.79491122  0.69702411  0.59489871  1  0  0.135409  0  0.968827  0  0  0.141201  0  1.034063  0  0  0.145199  0  1.031815  0  0  0.108857  0.138297  0  1.035895  0
H  H27  1  0.70508860  0.30297331  0.59489902  1  0  0.135413  0  0.968776  0  0  0.1412  0  1.034006  0  0  0.145199  0  1.031753  0  0  0.108864  0.138297  0  1.035836  0
H  H28  1  0.79374259  0.70945684  0.17638005  1  0  0.110616  0  0.957831  0  0  0.119465  0  1.021248  0  0  0.122859  0  1.020222  0  0  0.100513  0.116974  0  1.022222  0
H  H29  1  0.70625714  0.29054373  0.17638123  1  0  0.110602  0  0.957849  0  0  0.119444  0  1.021276  0  0  0.122823  0  1.020266  0  0  0.100501  0.116953  0  1.02225  0
H  H30  1  0.70625845  0.20945578  0.32361862  1  0  0.110603  0  0.957836  0  0  0.119447  0  1.021261  0  0  0.122825  0  1.020252  0  0  0.10052  0.116957  0  1.022234  0
H  H31  1  0.79374397  0.79054266  0.32361924  1  0  0.110589  0  0.957914  0  0  0.119438  0  1.02133  0  0  0.122827  0  1.02031  0  0  0.100514  0.116939  0  1.022312  0
H  H32  1  0.20625876  0.29054357  0.82361874  1  0  0.110599  0  0.957848  0  0  0.119443  0  1.021274  0  0  0.122822  0  1.020265  0  0  0.100519  0.116953  0  1.022247  0
H  H33  1  0.29374155  0.70945668  0.82361888  1  0  0.110592  0  0.957854  0  0  0.119437  0  1.021281  0  0  0.122815  0  1.020272  0  0  0.100515  0.116947  0  1.022254  0
H  H34  1  0.29374023  0.79054381  0.67638061  1  0  0.110613  0  0.957853  0  0  0.119456  0  1.021279  0  0  0.122834  0  1.02027  0  0  0.100528  0.116965  0  1.022253  0
H  H35  1  0.20625871  0.20945611  0.67638130  1  0  0.110605  0  0.957844  0  0  0.11945  0  1.021268  0  0  0.122828  0  1.02026  0  0  0.100518  0.116959  0  1.02224  0
H  H36  1  0.62515185  0.57079488  0.23437140  1  0  0.070209  0  0.989308  0  0  0.072976  0  1.066063  0  0  0.075802  0  1.063378  0  0  0.096671  0.070861  0  1.068036  0
H  H37  1  0.87484922  0.42920582  0.23437136  1  0  0.07021  0  0.989302  0  0  0.07298  0  1.066051  0  0  0.075807  0  1.063365  0  0  0.096672  0.070865  0  1.068022  0
H  H38  1  0.87485042  0.07079538  0.26562893  1  0  0.070202  0  0.989363  0  0  0.072968  0  1.066105  0  0  0.075795  0  1.063419  0  0  0.096663  0.070851  0  1.068086  0
H  H39  1  0.62515332  0.92920458  0.26562833  1  0  0.070224  0  0.98927  0  0  0.072978  0  1.066038  0  0  0.075803  0  1.063355  0  0  0.096676  0.070864  0  1.068009  0
H  H40  1  0.37485083  0.42920471  0.76562915  1  0  0.070221  0  0.98935  0  0  0.072986  0  1.066085  0  0  0.075813  0  1.0634  0  0  0.096674  0.070868  0  1.068069  0
H  H41  1  0.12514947  0.57079541  0.76562919  1  0  0.07021  0  0.989369  0  0  0.07297  0  1.066108  0  0  0.075797  0  1.063422  0  0  0.096666  0.070851  0  1.068093  0
H  H42  1  0.12514960  0.92920503  0.73437074  1  0  0.070209  0  0.989367  0  0  0.072975  0  1.0661  0  0  0.075802  0  1.063414  0  0  0.09667  0.070859  0  1.068077  0
H  H43  1  0.37485069  0.07079501  0.73437090  1  0  0.070203  0  0.989365  0  0  0.07297  0  1.066105  0  0  0.075797  0  1.063419  0  0  0.096665  0.07085  0  1.068094  0
H  H44  1  0.76279714  0.88663786  0.12325661  1  0  0.079926  0  0.967204  0  0  0.094007  0  1.036647  0  0  0.094869  0  1.036119  0  0  0.096386  0.093304  0  1.0372  0
H  H45  1  0.73720125  0.11336177  0.12325680  1  0  0.079919  0  0.967194  0  0  0.094  0  1.036644  0  0  0.094863  0  1.036116  0  0  0.096388  0.093297  0  1.037197  0
H  H46  1  0.73720137  0.38663775  0.37674349  1  0  0.079939  0  0.967216  0  0  0.094014  0  1.036658  0  0  0.094874  0  1.036132  0  0  0.096386  0.093309  0  1.037214  0
H  H47  1  0.76279706  0.61336163  0.37674356  1  0  0.079909  0  0.967186  0  0  0.093994  0  1.036633  0  0  0.094857  0  1.036105  0  0  0.096364  0.093291  0  1.037183  0
H  H48  1  0.23720155  0.11336091  0.87674350  1  0  0.07995  0  0.967166  0  0  0.094009  0  1.036636  0  0  0.09487  0  1.036109  0  0  0.096379  0.093306  0  1.037189  0
H  H49  1  0.26279744  0.88663946  0.87674375  1  0  0.079941  0  0.967196  0  0  0.09403  0  1.036636  0  0  0.094891  0  1.036108  0  0  0.096394  0.093325  0  1.03719  0
H  H50  1  0.26279731  0.61336184  0.62325618  1  0  0.079923  0  0.967173  0  0  0.094009  0  1.036615  0  0  0.094869  0  1.036088  0  0  0.096371  0.093304  0  1.037166  0
H  H51  1  0.23720162  0.38663796  0.62325611  1  0  0.079905  0  0.967242  0  0  0.09399  0  1.036671  0  0  0.094851  0  1.036144  0  0  0.096368  0.093286  0  1.037221  0
H  H52  1  0.73520677  0.80756686  0.05893336  1  0  0.102162  0  0.899759  0  0  0.119908  0  0.953419  0  0  0.12182  0  0.951498  0  0  0.122989  0.118407  0  0.954963  0
H  H53  1  0.76479160  0.19243345  0.05893360  1  0  0.102131  0  0.899759  0  0  0.119863  0  0.953448  0  0  0.121777  0  0.951524  0  0  0.122957  0.118364  0  0.954994  0
H  H54  1  0.76479301  0.30756526  0.44106669  1  0  0.102162  0  0.899756  0  0  0.119898  0  0.953423  0  0  0.121809  0  0.951501  0  0  0.122972  0.118398  0  0.954968  0
H  H55  1  0.73520677  0.69243345  0.44106681  1  0  0.102142  0  0.899766  0  0  0.119886  0  0.953432  0  0  0.121799  0  0.95151  0  0  0.122982  0.118385  0  0.954975  0
H  H56  1  0.26479191  0.19243273  0.94106719  1  0  0.10216  0  0.899763  0  0  0.119905  0  0.953426  0  0  0.121818  0  0.951503  0  0  0.122985  0.118404  0  0.95497  0
H  H57  1  0.23520709  0.80756778  0.94106695  1  0  0.102167  0  0.89979  0  0  0.119913  0  0.953451  0  0  0.121824  0  0.95153  0  0  0.122982  0.118411  0  0.954996  0
H  H58  1  0.23520701  0.69243351  0.55893386  1  0  0.102175  0  0.899748  0  0  0.119896  0  0.953441  0  0  0.121807  0  0.95152  0  0  0.122973  0.118394  0  0.954986  0
H  H59  1  0.26479192  0.30756614  0.55893286  1  0  0.102237  0  0.899707  0  0  0.119938  0  0.953412  0  0  0.121848  0  0.951492  0  0  0.123005  0.118438  0  0.954957  0
C  C60  1  0.29077404  0.67412274  0.15918624  1  0  0.142063  0  3.704755  0  0  0.108491  0  3.955176  0  0  0.116717  0  3.972921  0  0  0.04649  0.103233  0  3.943148  0
C  C61  1  0.20922614  0.32587765  0.15918568  1  0  0.141893  0  3.704873  0  0  0.108364  0  3.955294  0  0  0.116569  0  3.97304  0  0  0.04646  0.103107  0  3.943266  0
C  C62  1  0.20922743  0.17412254  0.34081371  1  0  0.141979  0  3.704775  0  0  0.10842  0  3.955198  0  0  0.116644  0  3.972946  0  0  0.046468  0.103164  0  3.943169  0
C  C63  1  0.29077411  0.82587744  0.34081348  1  0  0.141996  0  3.704812  0  0  0.108419  0  3.955238  0  0  0.116645  0  3.972985  0  0  0.046471  0.103162  0  3.943211  0
C  C64  1  0.70922598  0.32587603  0.84081387  1  0  0.141934  0  3.704808  0  0  0.108375  0  3.955239  0  0  0.116593  0  3.972986  0  0  0.046444  0.103119  0  3.94321  0
C  C65  1  0.79077388  0.67412358  0.84081399  1  0  0.142065  0  3.704774  0  0  0.108523  0  3.9552  0  0  0.116741  0  3.972944  0  0  0.046516  0.103267  0  3.943174  0
C  C66  1  0.79077392  0.82587623  0.65918552  1  0  0.142042  0  3.704751  0  0  0.10852  0  3.955173  0  0  0.116738  0  3.972915  0  0  0.046516  0.103264  0  3.943146  0
C  C67  1  0.70922591  0.17412215  0.65918531  1  0  0.141929  0  3.704888  0  0  0.108394  0  3.955318  0  0  0.116612  0  3.973066  0  0  0.046463  0.103137  0  3.943289  0
C  C68  1  0.37434721  0.75260642  0.12455490  1  0  -0.165896  0  3.683314  0  0  -0.183627  0  3.92646  0  0  -0.19227  0  3.947308  0  0  -0.08461  -0.17817  0  3.912677  0
C  C69  1  0.12565429  0.24739471  0.12455430  1  0  -0.165835  0  3.683316  0  0  -0.183596  0  3.926434  0  0  -0.192241  0  3.947295  0  0  -0.084645  -0.17814  0  3.912653  0
C  C70  1  0.12565432  0.25260628  0.37544553  1  0  -0.165817  0  3.683249  0  0  -0.183577  0  3.926371  0  0  -0.192219  0  3.947221  0  0  -0.084621  -0.178121  0  3.912591  0
C  C71  1  0.37434590  0.74739297  0.37544482  1  0  -0.165837  0  3.683397  0  0  -0.183566  0  3.92654  0  0  -0.192208  0  3.947388  0  0  -0.084615  -0.178111  0  3.912758  0
C  C72  1  0.62565548  0.24739317  0.87544521  1  0  -0.165845  0  3.6833  0  0  -0.183613  0  3.926416  0  0  -0.192257  0  3.947268  0  0  -0.084634  -0.178157  0  3.912633  0
C  C73  1  0.87434439  0.75260651  0.87544537  1  0  -0.165869  0  3.683277  0  0  -0.183636  0  3.926382  0  0  -0.192282  0  3.947239  0  0  -0.084636  -0.17818  0  3.912602  0
C  C74  1  0.87434436  0.74739249  0.62455370  1  0  -0.165855  0  3.683343  0  0  -0.183642  0  3.926478  0  0  -0.192289  0  3.947338  0  0  -0.084661  -0.178187  0  3.912697  0
C  C75  1  0.62565412  0.25260499  0.62455397  1  0  -0.165807  0  3.683302  0  0  -0.183562  0  3.926415  0  0  -0.192205  0  3.947271  0  0  -0.084634  -0.178107  0  3.912633  0
C  C76  1  0.55871980  0.76631237  0.12951944  1  0  0.144099  0  3.68935  0  0  0.159569  0  3.926917  0  0  0.164772  0  3.948528  0  0  0.019009  0.156252  0  3.912202  0
C  C77  1  0.94127859  0.23368727  0.12951971  1  0  0.144036  0  3.689414  0  0  0.159584  0  3.926887  0  0  0.164787  0  3.948494  0  0  0.019035  0.156266  0  3.912175  0
C  C78  1  0.94127863  0.26631231  0.37048014  1  0  0.144047  0  3.689414  0  0  0.159592  0  3.92687  0  0  0.164793  0  3.94848  0  0  0.01904  0.156275  0  3.912158  0
C  C79  1  0.55871848  0.73368624  0.37048029  1  0  0.143949  0  3.689538  0  0  0.159418  0  3.927099  0  0  0.164619  0  3.948714  0  0  0.018986  0.156103  0  3.91238  0
C  C80  1  0.44127889  0.23368640  0.87048023  1  0  0.144055  0  3.689389  0  0  0.159639  0  3.926798  0  0  0.164841  0  3.948407  0  0  0.019062  0.156323  0  3.912082  0
C  C81  1  0.05872143  0.76631396  0.87047996  1  0  0.144071  0  3.68939  0  0  0.159655  0  3.92681  0  0  0.164856  0  3.948418  0  0  0.019073  0.156338  0  3.912095  0
C  C82  1  0.05872006  0.73368647  0.62951997  1  0  0.143955  0  3.689518  0  0  0.159516  0  3.926973  0  0  0.164715  0  3.948583  0  0  0.019027  0.1562  0  3.912256  0
C  C83  1  0.44127888  0.26631253  0.62951982  1  0  0.144044  0  3.689449  0  0  0.159588  0  3.926901  0  0  0.164788  0  3.948511  0  0  0.019047  0.15627  0  3.912188  0
C  C84  1  0.65078481  0.69978199  0.16948996  1  0  -0.167934  0  3.715666  0  0  -0.184562  0  3.95726  0  0  -0.193669  0  3.979861  0  0  -0.08689  -0.178714  0  3.942168  0
C  C85  1  0.84921758  0.30021856  0.16949028  1  0  -0.167883  0  3.71574  0  0  -0.184526  0  3.957316  0  0  -0.193621  0  3.979923  0  0  -0.086855  -0.178678  0  3.942223  0
C  C86  1  0.84921756  0.19978263  0.33051001  1  0  -0.167856  0  3.715695  0  0  -0.184502  0  3.957274  0  0  -0.193595  0  3.979883  0  0  -0.086885  -0.178654  0  3.942181  0
C  C87  1  0.65078487  0.80021665  0.33050932  1  0  -0.167784  0  3.715749  0  0  -0.18441  0  3.957309  0  0  -0.193512  0  3.979916  0  0  -0.086865  -0.178557  0  3.94222  0
C  C88  1  0.34921920  0.30021678  0.83051015  1  0  -0.167868  0  3.715729  0  0  -0.184527  0  3.957283  0  0  -0.193623  0  3.979894  0  0  -0.086915  -0.178679  0  3.942188  0
C  C89  1  0.15078111  0.69978349  0.83050983  1  0  -0.167872  0  3.715738  0  0  -0.184531  0  3.957293  0  0  -0.193626  0  3.979902  0  0  -0.086912  -0.178683  0  3.942198  0
C  C90  1  0.15078113  0.80021614  0.66949054  1  0  -0.167833  0  3.715874  0  0  -0.18448  0  3.95742  0  0  -0.193573  0  3.98003  0  0  -0.086887  -0.178633  0  3.942326  0
C  C91  1  0.34921782  0.19978294  0.66948991  1  0  -0.167864  0  3.715701  0  0  -0.184509  0  3.957277  0  0  -0.193603  0  3.979887  0  0  -0.086887  -0.17866  0  3.942181  0
C  C92  1  0.55837597  0.62300265  0.20225460  1  0  0.122607  0  3.724387  0  0  0.09333  0  3.967967  0  0  0.100199  0  3.987787  0  0  0.036098  0.089003  0  3.954487  0
C  C93  1  0.94162776  0.37699716  0.20225453  1  0  0.122575  0  3.724499  0  0  0.093311  0  3.968086  0  0  0.100182  0  3.987901  0  0  0.03609  0.088985  0  3.954606  0
C  C94  1  0.94162901  0.12300323  0.29774576  1  0  0.122573  0  3.724455  0  0  0.093305  0  3.968047  0  0  0.100175  0  3.987861  0  0  0.036099  0.088979  0  3.954564  0
C  C95  1  0.55837607  0.87699679  0.29774468  1  0  0.122543  0  3.724389  0  0  0.093281  0  3.967946  0  0  0.100149  0  3.987766  0  0  0.036096  0.088956  0  3.954463  0
C  C96  1  0.44162938  0.37699612  0.79774595  1  0  0.122562  0  3.72455  0  0  0.093305  0  3.968122  0  0  0.100176  0  3.987939  0  0  0.036117  0.088978  0  3.954639  0
C  C97  1  0.05837093  0.62300488  0.79774558  1  0  0.122581  0  3.724544  0  0  0.093338  0  3.968119  0  0  0.100208  0  3.987934  0  0  0.03613  0.089012  0  3.954636  0
C  C98  1  0.05837234  0.87699554  0.70225435  1  0  0.122568  0  3.72462  0  0  0.093325  0  3.968197  0  0  0.100196  0  3.988012  0  0  0.036119  0.089  0  3.954714  0
C  C99  1  0.44162927  0.12300362  0.70225455  1  0  0.122578  0  3.724508  0  0  0.093329  0  3.968108  0  0  0.100199  0  3.987924  0  0  0.03611  0.089001  0  3.954621  0
C  C100  1  0.66184444  0.84920799  0.09440892  1  0  -0.001146  0  3.682738  0  0  -0.063428  0  3.932061  0  0  -0.059568  0  3.942046  0  0  -0.052523  -0.065905  0  3.925133  0
C  C101  1  0.83815527  0.15079239  0.09440957  1  0  -0.001091  0  3.682767  0  0  -0.063389  0  3.932075  0  0  -0.059531  0  3.942059  0  0  -0.052516  -0.065872  0  3.925148  0
C  C102  1  0.83815537  0.34920716  0.40559116  1  0  -0.001203  0  3.682822  0  0  -0.063423  0  3.932103  0  0  -0.059559  0  3.942089  0  0  -0.052522  -0.065908  0  3.925172  0
C  C103  1  0.66184440  0.65079229  0.40559125  1  0  -0.001092  0  3.682716  0  0  -0.063382  0  3.932028  0  0  -0.059524  0  3.942013  0  0  -0.052508  -0.065852  0  3.925103  0
C  C104  1  0.33815557  0.15079160  0.90559119  1  0  -0.001192  0  3.682819  0  0  -0.063486  0  3.932115  0  0  -0.059625  0  3.942102  0  0  -0.052536  -0.065962  0  3.925189  0
C  C105  1  0.16184475  0.84920883  0.90559142  1  0  -0.00119  0  3.682824  0  0  -0.063495  0  3.932141  0  0  -0.059631  0  3.942123  0  0  -0.052538  -0.065975  0  3.925208  0
C  C106  1  0.16184465  0.65078998  0.59440851  1  0  -0.001158  0  3.682821  0  0  -0.063428  0  3.932116  0  0  -0.059562  0  3.9421  0  0  -0.052503  -0.065901  0  3.925181  0
C  C107  1  0.33815428  0.34920730  0.59440842  1  0  -0.001269  0  3.682882  0  0  -0.063472  0  3.932169  0  0  -0.059607  0  3.942154  0  0  -0.052544  -0.065954  0  3.925235  0
C  C108  1  0.54999610  0.94762271  0.00889939  1  0  0.442934  0  3.866368  0  0  0.399828  0  4.15772  0  0  0.424846  0  4.157478  0  0  0.23697  0.382914  0  4.157401  0
C  C109  1  0.95000359  0.05237830  0.00889911  1  0  0.44285  0  3.866384  0  0  0.399763  0  4.157706  0  0  0.424786  0  4.157456  0  0  0.236945  0.382848  0  4.15739  0
C  C110  1  0.95000112  0.44762291  0.49110118  1  0  0.442781  0  3.866249  0  0  0.399713  0  4.157667  0  0  0.424743  0  4.157413  0  0  0.236896  0.382793  0  4.157349  0
C  C111  1  0.54999734  0.55237591  0.49110121  1  0  0.442752  0  3.866419  0  0  0.399667  0  4.157756  0  0  0.424682  0  4.157525  0  0  0.236901  0.382761  0  4.157441  0
C  C112  1  0.45000125  0.05237770  0.99110159  1  0  0.442809  0  3.866497  0  0  0.399685  0  4.157879  0  0  0.424714  0  4.157624  0  0  0.236867  0.382777  0  4.157555  0
C  C113  1  0.04999776  0.94762292  0.99110144  1  0  0.442891  0  3.866432  0  0  0.399764  0  4.157826  0  0  0.424788  0  4.157578  0  0  0.236932  0.382847  0  4.157505  0
C  C114  1  0.04999890  0.55238077  0.50889805  1  0  0.442927  0  3.866512  0  0  0.399762  0  4.157979  0  0  0.42478  0  4.157737  0  0  0.236893  0.382848  0  4.157666  0
C  C115  1  0.45000001  0.44762041  0.50889802  1  0  0.442918  0  3.86652  0  0  0.39978  0  4.158004  0  0  0.424805  0  4.157761  0  0  0.236893  0.38286  0  4.157686  0
Br  Br116  1  0.01714527  0.59159413  0.30178499  1  0  -0.520479  0  1.015036  0  0  -0.462518  0  1.325681  0  0  -0.478754  0  1.300491  0  0  -0.252312  -0.45075  0  1.343032  0
Br  Br117  1  0.48285360  0.40840576  0.30178494  1  0  -0.52048  0  1.015027  0  0  -0.462515  0  1.325668  0  0  -0.478749  0  1.300472  0  0  -0.252314  -0.450745  0  1.343019  0
Br  Br118  1  0.48285214  0.09159369  0.19821490  1  0  -0.520466  0  1.015029  0  0  -0.462503  0  1.32568  0  0  -0.478737  0  1.300484  0  0  -0.252312  -0.450734  0  1.343032  0
Br  Br119  1  0.01714671  0.90840679  0.19821516  1  0  -0.520465  0  1.015037  0  0  -0.462495  0  1.325668  0  0  -0.478727  0  1.300474  0  0  -0.252307  -0.450725  0  1.34302  0
Br  Br120  1  0.98285342  0.40840628  0.69821512  1  0  -0.520467  0  1.015038  0  0  -0.462509  0  1.325687  0  0  -0.47874  0  1.300487  0  0  -0.252311  -0.450737  0  1.343039  0
Br  Br121  1  0.51714775  0.59159465  0.69821561  1  0  -0.520465  0  1.015025  0  0  -0.462505  0  1.325671  0  0  -0.478739  0  1.300474  0  0  -0.252317  -0.450735  0  1.343024  0
Br  Br122  1  0.51715054  0.90840508  0.80178608  1  0  -0.520464  0  1.015012  0  0  -0.462505  0  1.325655  0  0  -0.478738  0  1.300457  0  0  -0.252319  -0.450736  0  1.343013  0
Br  Br123  1  0.98285198  0.09159443  0.80178451  1  0  -0.520465  0  1.015028  0  0  -0.462501  0  1.325675  0  0  -0.478735  0  1.300478  0  0  -0.25231  -0.450733  0  1.34303  0
N  N124  1  0.38027270  0.60988392  0.19725405  1  0  -0.322181  0  3.341176  0  0  -0.232591  0  3.608096  0  0  -0.253036  0  3.625597  0  0  -0.340395  -0.218896  0  3.595943  0
N  N125  1  0.11972882  0.39011656  0.19725354  1  0  -0.322071  0  3.341255  0  0  -0.232527  0  3.608208  0  0  -0.252972  0  3.625713  0  0  -0.340389  -0.218833  0  3.596055  0
N  N126  1  0.11973006  0.10988360  0.30274629  1  0  -0.32212  0  3.341225  0  0  -0.232558  0  3.608168  0  0  -0.253003  0  3.62567  0  0  -0.340399  -0.218864  0  3.596014  0
N  N127  1  0.38027414  0.89011629  0.30274567  1  0  -0.322113  0  3.341218  0  0  -0.232527  0  3.608134  0  0  -0.252969  0  3.625632  0  0  -0.34038  -0.218833  0  3.595981  0
N  N128  1  0.61972865  0.39011486  0.80274650  1  0  -0.322052  0  3.341196  0  0  -0.232493  0  3.608126  0  0  -0.252935  0  3.625626  0  0  -0.340374  -0.218798  0  3.595973  0
N  N129  1  0.88026987  0.60988466  0.80274657  1  0  -0.322116  0  3.341222  0  0  -0.232586  0  3.608182  0  0  -0.25303  0  3.625684  0  0  -0.340427  -0.218896  0  3.596032  0
N  N130  1  0.88026996  0.89011517  0.69725294  1  0  -0.322084  0  3.341225  0  0  -0.232563  0  3.608185  0  0  -0.253008  0  3.625689  0  0  -0.340405  -0.218874  0  3.596036  0
N  N131  1  0.61972854  0.10988412  0.69725312  1  0  -0.322073  0  3.341315  0  0  -0.232565  0  3.608294  0  0  -0.25301  0  3.625799  0  0  -0.34039  -0.218869  0  3.596138  0
N  N132  1  0.55622678  0.93393487  0.06742796  1  0  -0.387663  0  3.385971  0  0  -0.327187  0  3.628486  0  0  -0.348632  0  3.640415  0  0  -0.413136  -0.312476  0  3.620055  0
N  N133  1  0.94377292  0.06606545  0.06742856  1  0  -0.387651  0  3.385908  0  0  -0.327175  0  3.628431  0  0  -0.348622  0  3.640356  0  0  -0.413122  -0.312456  0  3.619995  0
N  N134  1  0.94377176  0.43393412  0.43257217  1  0  -0.38754  0  3.38601  0  0  -0.327217  0  3.628651  0  0  -0.34867  0  3.640578  0  0  -0.413097  -0.312488  0  3.620204  0
N  N135  1  0.55622668  0.56606456  0.43257221  1  0  -0.387607  0  3.385969  0  0  -0.327103  0  3.628463  0  0  -0.348547  0  3.640394  0  0  -0.413117  -0.312415  0  3.620048  0
N  N136  1  0.44377190  0.06606472  0.93257171  1  0  -0.387628  0  3.385954  0  0  -0.32716  0  3.628493  0  0  -0.34861  0  3.640419  0  0  -0.413125  -0.312456  0  3.620066  0
N  N137  1  0.05622576  0.93393577  0.93257243  1  0  -0.387594  0  3.385917  0  0  -0.327152  0  3.62848  0  0  -0.348602  0  3.640407  0  0  -0.413125  -0.312425  0  3.620034  0
N  N138  1  0.05622692  0.56606465  0.56742838  1  0  -0.387616  0  3.385898  0  0  -0.327156  0  3.628483  0  0  -0.348604  0  3.640412  0  0  -0.413126  -0.312445  0  3.62005  0
N  N139  1  0.44377200  0.43393421  0.56742790  1  0  -0.387501  0  3.38589  0  0  -0.327155  0  3.628536  0  0  -0.348607  0  3.640465  0  0  -0.413076  -0.312426  0  3.620088  0
O  O140  1  0.61750228  0.88554297  0.97184153  1  0  -0.529581  0  1.937808  0  0  -0.497373  0  2.157719  0  0  -0.515091  0  2.150906  0  0  -0.303826  -0.484943  0  2.162031  0
O  O141  1  0.88249761  0.11445692  0.97184216  1  0  -0.52953  0  1.937879  0  0  -0.497327  0  2.157771  0  0  -0.515046  0  2.150954  0  0  -0.303807  -0.4849  0  2.16209  0
O  O142  1  0.88249500  0.38554294  0.52815878  1  0  -0.529512  0  1.937756  0  0  -0.497278  0  2.157646  0  0  -0.514999  0  2.150825  0  0  -0.303774  -0.484852  0  2.161967  0
O  O143  1  0.61750347  0.61445514  0.52815885  1  0  -0.529504  0  1.937824  0  0  -0.497297  0  2.157723  0  0  -0.515012  0  2.15091  0  0  -0.303784  -0.484866  0  2.162029  0
O  O144  1  0.38249641  0.11445661  0.02815814  1  0  -0.529448  0  1.93799  0  0  -0.497231  0  2.157898  0  0  -0.514951  0  2.151074  0  0  -0.303711  -0.484806  0  2.162215  0
O  O145  1  0.11750108  0.88554430  0.02815883  1  0  -0.529553  0  1.937869  0  0  -0.497333  0  2.157777  0  0  -0.515049  0  2.150956  0  0  -0.30381  -0.484908  0  2.162098  0
O  O146  1  0.11750235  0.61445501  0.47184177  1  0  -0.529514  0  1.93818  0  0  -0.497276  0  2.15812  0  0  -0.514992  0  2.151305  0  0  -0.303737  -0.484848  0  2.162435  0
O  O147  1  0.38249789  0.38554281  0.47184170  1  0  -0.529528  0  1.938125  0  0  -0.497297  0  2.158065  0  0  -0.515013  0  2.151245  0  0  -0.303764  -0.484872  0  2.162388  0
