# generated using pymatgen
data_AgH8C12N4ClO4
_symmetry_space_group_name_H-M   'P 1'
_cell_length_a   7.15274332
_cell_length_b   14.16803831
_cell_length_c   14.74899652
_cell_angle_alpha   89.99970478
_cell_angle_beta   90.00010253
_cell_angle_gamma   104.60473691
_symmetry_Int_Tables_number   1
_chemical_formula_structural   AgH8C12N4ClO4
_chemical_formula_sum   'Ag4 H32 C48 N16 Cl4 O16'
_cell_volume   1446.37310790
_cell_formula_units_Z   4
loop_
 _symmetry_equiv_pos_site_id
 _symmetry_equiv_pos_as_xyz
  1  'x, y, z'
loop_
 _atom_site_type_symbol
 _atom_site_label
 _atom_site_symmetry_multiplicity
 _atom_site_fract_x
 _atom_site_fract_y
 _atom_site_fract_z
 _atom_site_occupancy
 _atom_site_hle17_bader_spin_density
 _atom_site_hle17_ddec_charge
 _atom_site_hle17_ddec_spin_density
 _atom_site_hle17_ddec_sum_bond_order
 _atom_site_hle17_magmom
 _atom_site_hse06_10hf_bader_spin_density
 _atom_site_hse06_10hf_ddec_charge
 _atom_site_hse06_10hf_ddec_spin_density
 _atom_site_hse06_10hf_ddec_sum_bond_order
 _atom_site_hse06_10hf_magmom
 _atom_site_hse06_bader_spin_density
 _atom_site_hse06_ddec_charge
 _atom_site_hse06_ddec_spin_density
 _atom_site_hse06_ddec_sum_bond_order
 _atom_site_hse06_magmom
 _atom_site_pbe_bader_spin_density
 _atom_site_pbe_cm5_charge
 _atom_site_pbe_ddec_charge
 _atom_site_pbe_ddec_spin_density
 _atom_site_pbe_ddec_sum_bond_order
 _atom_site_pbe_magmom
Ag  Ag0  1  0.15001082  0.00004028  0.37136702  1  0  0.592744  0  1.41074  0  0  0.470374  0  1.843717  0  0  0.488661  0  1.802626  0  0  0.488553  0.459828  0  1.871615  0
Ag  Ag1  1  0.34998635  0.99995970  0.87136543  1  0  0.592815  0  1.410652  0  0  0.470445  0  1.843659  0  0  0.48873  0  1.802568  0  0  0.488559  0.459891  0  1.871554  0
Ag  Ag2  1  0.84999037  0.99996072  0.62863320  1  0  0.592796  0  1.410644  0  0  0.470417  0  1.843633  0  0  0.488707  0  1.80254  0  0  0.488555  0.459866  0  1.87153  0
Ag  Ag3  1  0.65001272  0.00003984  0.12863480  1  0  0.592802  0  1.410629  0  0  0.470413  0  1.843654  0  0  0.4887  0  1.802562  0  0  0.488552  0.459864  0  1.87155  0
H  H4  1  0.38352234  0.16770771  0.49070500  1  0  0.096793  0  0.949875  0  0  0.104748  0  1.013918  0  0  0.107022  0  1.011955  0  0  0.118996  0.102938  0  1.015552  0
H  H5  1  0.11647533  0.83229238  0.99070607  1  0  0.096761  0  0.949938  0  0  0.104713  0  1.013975  0  0  0.106985  0  1.012019  0  0  0.118983  0.102903  0  1.015608  0
H  H6  1  0.78420078  0.16762652  0.50935526  1  0  0.097482  0  0.949216  0  0  0.105424  0  1.013246  0  0  0.107677  0  1.0113  0  0  0.119269  0.103643  0  1.014856  0
H  H7  1  0.71580116  0.83237540  0.00935414  1  0  0.097483  0  0.949225  0  0  0.105425  0  1.013257  0  0  0.107677  0  1.011313  0  0  0.119255  0.103645  0  1.014867  0
H  H8  1  0.61647850  0.83229256  0.50929387  1  0  0.096766  0  0.949912  0  0  0.104679  0  1.014003  0  0  0.106944  0  1.012043  0  0  0.118974  0.102869  0  1.015636  0
H  H9  1  0.88352624  0.16770935  0.00929552  1  0  0.096746  0  0.949951  0  0  0.104651  0  1.014043  0  0  0.106916  0  1.012083  0  0  0.118974  0.102841  0  1.015675  0
H  H10  1  0.21580078  0.83237522  0.49064497  1  0  0.097482  0  0.949223  0  0  0.105427  0  1.013248  0  0  0.10768  0  1.0113  0  0  0.119265  0.103646  0  1.014861  0
H  H11  1  0.28419828  0.16762488  0.99064609  1  0  0.097461  0  0.949257  0  0  0.105406  0  1.01328  0  0  0.107658  0  1.011337  0  0  0.119248  0.103625  0  1.01489  0
H  H12  1  0.47598835  0.35050741  0.49439229  1  0  0.122426  0  0.963498  0  0  0.130494  0  1.026618  0  0  0.13398  0  1.025084  0  0  0.110366  0.128031  0  1.027835  0
H  H13  1  0.02400858  0.64949121  0.99439419  1  0  0.122388  0  0.963508  0  0  0.13049  0  1.0266  0  0  0.133977  0  1.025066  0  0  0.110348  0.128027  0  1.027818  0
H  H14  1  0.87418908  0.35045633  0.50570239  1  0  0.122779  0  0.962094  0  0  0.130407  0  1.025665  0  0  0.133831  0  1.024195  0  0  0.110429  0.127991  0  1.026815  0
H  H15  1  0.62581285  0.64954561  0.00570549  1  0  0.122772  0  0.962088  0  0  0.1304  0  1.025669  0  0  0.133824  0  1.024191  0  0  0.110429  0.127987  0  1.026819  0
H  H16  1  0.52401211  0.64949214  0.50560725  1  0  0.122431  0  0.963454  0  0  0.130521  0  1.026555  0  0  0.134008  0  1.025021  0  0  0.110377  0.128056  0  1.027775  0
H  H17  1  0.97599261  0.35050980  0.00560672  1  0  0.122401  0  0.963506  0  0  0.1305  0  1.026598  0  0  0.133986  0  1.025066  0  0  0.110357  0.128038  0  1.027815  0
H  H18  1  0.12581035  0.64954395  0.49429445  1  0  0.122789  0  0.962048  0  0  0.130394  0  1.025643  0  0  0.13383  0  1.024149  0  0  0.110402  0.127983  0  1.026792  0
H  H19  1  0.37418695  0.35045540  0.99429541  1  0  0.122813  0  0.962058  0  0  0.130424  0  1.025652  0  0  0.133849  0  1.024172  0  0  0.110433  0.128009  0  1.026801  0
H  H20  1  0.10207068  0.34452212  0.26183124  1  0  0.117937  0  0.949472  0  0  0.125654  0  1.011364  0  0  0.128498  0  1.011163  0  0  0.111383  0.123671  0  1.011605  0
H  H21  1  0.39792637  0.65547844  0.76183343  1  0  0.117928  0  0.949519  0  0  0.125611  0  1.01144  0  0  0.128454  0  1.011241  0  0  0.11135  0.123628  0  1.01168  0
H  H22  1  0.24283872  0.34444976  0.73800132  1  0  0.118323  0  0.950256  0  0  0.126448  0  1.011495  0  0  0.129213  0  1.011394  0  0  0.111669  0.124502  0  1.011692  0
H  H23  1  0.25715970  0.65555092  0.23800112  1  0  0.118351  0  0.950225  0  0  0.126479  0  1.01146  0  0  0.129245  0  1.011358  0  0  0.111671  0.124532  0  1.011658  0
H  H24  1  0.89792523  0.65547670  0.73816898  1  0  0.117942  0  0.94949  0  0  0.125671  0  1.011361  0  0  0.128516  0  1.011157  0  0  0.111377  0.123689  0  1.0116  0
H  H25  1  0.60207550  0.34452111  0.23816815  1  0  0.117915  0  0.949556  0  0  0.12561  0  1.011463  0  0  0.128453  0  1.011263  0  0  0.111339  0.123626  0  1.011705  0
H  H26  1  0.75715761  0.65555270  0.26199822  1  0  0.118329  0  0.950198  0  0  0.126455  0  1.01145  0  0  0.12922  0  1.011347  0  0  0.111667  0.124506  0  1.011651  0
H  H27  1  0.74283797  0.34444863  0.76199911  1  0  0.118356  0  0.950221  0  0  0.12648  0  1.011467  0  0  0.129246  0  1.011365  0  0  0.111683  0.124532  0  1.011665  0
H  H28  1  0.02409270  0.16170817  0.26907147  1  0  0.099426  0  0.950344  0  0  0.106816  0  1.015118  0  0  0.109203  0  1.013246  0  0  0.118504  0.104876  0  1.016807  0
H  H29  1  0.47590363  0.83829089  0.76907282  1  0  0.099438  0  0.950336  0  0  0.106787  0  1.015159  0  0  0.109163  0  1.013314  0  0  0.118487  0.104849  0  1.016842  0
H  H30  1  0.13716976  0.16162845  0.73114635  1  0  0.100137  0  0.949811  0  0  0.10701  0  1.01509  0  0  0.109408  0  1.013218  0  0  0.118548  0.105063  0  1.016788  0
H  H31  1  0.36282866  0.83837226  0.23114397  1  0  0.100181  0  0.949912  0  0  0.107062  0  1.015186  0  0  0.109459  0  1.013315  0  0  0.118583  0.105114  0  1.016886  0
H  H32  1  0.97590145  0.83828991  0.73092943  1  0  0.099404  0  0.950328  0  0  0.10676  0  1.015155  0  0  0.109147  0  1.013281  0  0  0.118452  0.104811  0  1.016867  0
H  H33  1  0.52409751  0.16170720  0.23092808  1  0  0.099395  0  0.950286  0  0  0.106796  0  1.015063  0  0  0.109173  0  1.013216  0  0  0.11848  0.104854  0  1.016753  0
H  H34  1  0.86283077  0.83837401  0.26885320  1  0  0.100234  0  0.949831  0  0  0.107068  0  1.015162  0  0  0.109468  0  1.013287  0  0  0.118576  0.105122  0  1.016861  0
H  H35  1  0.63716835  0.16162874  0.76885557  1  0  0.10014  0  0.949815  0  0  0.107003  0  1.015112  0  0  0.1094  0  1.013239  0  0  0.118549  0.105055  0  1.016808  0
C  C36  1  0.32486779  0.20994648  0.44153000  1  0  0.141079  0  3.656838  0  0  0.113011  0  3.900404  0  0  0.118632  0  3.919305  0  0  0.054636  0.109171  0  3.888019  0
C  C37  1  0.17513085  0.79005314  0.94153268  1  0  0.141105  0  3.656814  0  0  0.113044  0  3.900356  0  0  0.118662  0  3.919254  0  0  0.054667  0.109202  0  3.887968  0
C  C38  1  0.88495472  0.20988953  0.55855651  1  0  0.138835  0  3.655839  0  0  0.110985  0  3.899458  0  0  0.116542  0  3.918457  0  0  0.054359  0.107173  0  3.886983  0
C  C39  1  0.61504691  0.79011140  0.05855619  1  0  0.138734  0  3.65589  0  0  0.110882  0  3.899493  0  0  0.11644  0  3.91849  0  0  0.05428  0.107068  0  3.887021  0
C  C40  1  0.67513232  0.79005234  0.55846955  1  0  0.141049  0  3.656932  0  0  0.113005  0  3.90054  0  0  0.118636  0  3.919435  0  0  0.054641  0.109163  0  3.888154  0
C  C41  1  0.82487071  0.20994859  0.05846822  1  0  0.14111  0  3.656853  0  0  0.113066  0  3.900443  0  0  0.118699  0  3.919333  0  0  0.054649  0.109225  0  3.888055  0
C  C42  1  0.11504928  0.79011147  0.44144236  1  0  0.138864  0  3.655825  0  0  0.111015  0  3.899445  0  0  0.116572  0  3.918446  0  0  0.054369  0.107201  0  3.886978  0
C  C43  1  0.38495113  0.20988888  0.94144471  1  0  0.138814  0  3.655887  0  0  0.110977  0  3.899483  0  0  0.116535  0  3.91848  0  0  0.054364  0.107162  0  3.887014  0
C  C44  1  0.37650428  0.31132825  0.44312988  1  0  -0.133821  0  3.671203  0  0  -0.154943  0  3.913939  0  0  -0.161265  0  3.934561  0  0  -0.068769  -0.150744  0  3.900087  0
C  C45  1  0.12349819  0.68867063  0.94313234  1  0  -0.133811  0  3.671211  0  0  -0.154961  0  3.91395  0  0  -0.161283  0  3.934577  0  0  -0.068787  -0.15076  0  3.900097  0
C  C46  1  0.93470146  0.31127218  0.55690871  1  0  -0.133623  0  3.670451  0  0  -0.153822  0  3.912863  0  0  -0.16013  0  3.933641  0  0  -0.068718  -0.14959  0  3.898859  0
C  C47  1  0.56530156  0.68872876  0.05690953  1  0  -0.133536  0  3.67051  0  0  -0.153742  0  3.912921  0  0  -0.160045  0  3.933696  0  0  -0.068695  -0.14951  0  3.898916  0
C  C48  1  0.62349759  0.68867130  0.55686899  1  0  -0.133798  0  3.671256  0  0  -0.154932  0  3.913977  0  0  -0.161256  0  3.934599  0  0  -0.068805  -0.150734  0  3.900128  0
C  C49  1  0.87650264  0.31132964  0.05686788  1  0  -0.133806  0  3.671305  0  0  -0.154968  0  3.914013  0  0  -0.161291  0  3.934636  0  0  -0.068802  -0.150768  0  3.900158  0
C  C50  1  0.06530010  0.68872955  0.44308813  1  0  -0.133614  0  3.670473  0  0  -0.153806  0  3.912902  0  0  -0.160116  0  3.933691  0  0  -0.068719  -0.149573  0  3.898897  0
C  C51  1  0.43469751  0.31127079  0.94309070  1  0  -0.133634  0  3.670573  0  0  -0.153829  0  3.91299  0  0  -0.160132  0  3.933764  0  0  -0.068741  -0.149599  0  3.898984  0
C  C52  1  0.29576253  0.36130702  0.37765882  1  0  0.065064  0  3.869314  0  0  0.080753  0  4.102202  0  0  0.082844  0  4.122045  0  0  0.019004  0.07942  0  4.08871  0
C  C53  1  0.20423604  0.63869294  0.87766161  1  0  0.065178  0  3.869179  0  0  0.080824  0  4.102128  0  0  0.082914  0  4.121972  0  0  0.019036  0.079488  0  4.088633  0
C  C54  1  0.06571450  0.36124050  0.62222791  1  0  0.065369  0  3.869592  0  0  0.080306  0  4.103502  0  0  0.082376  0  4.123377  0  0  0.019113  0.079002  0  4.089948  0
C  C55  1  0.43428556  0.63876152  0.12222794  1  0  0.065245  0  3.869702  0  0  0.080187  0  4.10361  0  0  0.082256  0  4.123489  0  0  0.019108  0.078881  0  4.090058  0
C  C56  1  0.70423654  0.63869253  0.62234072  1  0  0.065012  0  3.869426  0  0  0.080702  0  4.102313  0  0  0.082792  0  4.12216  0  0  0.018995  0.07937  0  4.088819  0
C  C57  1  0.79576442  0.36130661  0.12233998  1  0  0.06507  0  3.869378  0  0  0.080803  0  4.102198  0  0  0.082892  0  4.122044  0  0  0.019043  0.079466  0  4.088703  0
C  C58  1  0.93428567  0.63876123  0.37777029  1  0  0.065086  0  3.86996  0  0  0.080059  0  4.103839  0  0  0.082127  0  4.123718  0  0  0.01905  0.078755  0  4.090286  0
C  C59  1  0.56571247  0.36123876  0.87777229  1  0  0.0652  0  3.869847  0  0  0.080155  0  4.103731  0  0  0.082223  0  4.123609  0  0  0.019084  0.078851  0  4.090177  0
C  C60  1  0.34386318  0.46534630  0.37694532  1  0  0.277296  0  3.724886  0  0  0.263076  0  3.99516  0  0  0.273616  0  4.012121  0  0  0.196814  0.255864  0  3.983826  0
C  C61  1  0.15613569  0.53465147  0.87694451  1  0  0.27718  0  3.725005  0  0  0.262966  0  3.995296  0  0  0.273506  0  4.012259  0  0  0.196782  0.255754  0  3.983958  0
C  C62  1  0.12159904  0.46528430  0.62300264  1  0  0.277457  0  3.72338  0  0  0.263412  0  3.993949  0  0  0.273936  0  4.010995  0  0  0.197362  0.256225  0  3.982496  0
C  C63  1  0.37839926  0.53471699  0.12300178  1  0  0.277425  0  3.723573  0  0  0.263373  0  3.994152  0  0  0.273896  0  4.011197  0  0  0.197333  0.256186  0  3.982697  0
C  C64  1  0.65613376  0.53465179  0.62305491  1  0  0.277284  0  3.725024  0  0  0.263063  0  3.995294  0  0  0.273602  0  4.012255  0  0  0.196834  0.25585  0  3.983959  0
C  C65  1  0.84386544  0.46534661  0.12305436  1  0  0.277257  0  3.724973  0  0  0.263021  0  3.995238  0  0  0.273562  0  4.012201  0  0  0.196824  0.255809  0  3.983899  0
C  C66  1  0.87840046  0.53471890  0.37699691  1  0  0.277428  0  3.723419  0  0  0.263368  0  3.993996  0  0  0.273892  0  4.01104  0  0  0.197295  0.25618  0  3.982542  0
C  C67  1  0.62159981  0.46528256  0.87699776  1  0  0.277461  0  3.723384  0  0  0.263408  0  3.993959  0  0  0.273932  0  4.011003  0  0  0.197345  0.25622  0  3.982505  0
C  C68  1  0.16625532  0.30795846  0.31359352  1  0  -0.124452  0  3.673893  0  0  -0.144096  0  3.915955  0  0  -0.149734  0  3.935811  0  0  -0.06634  -0.140366  0  3.902622  0
C  C69  1  0.33374385  0.69204037  0.81359480  1  0  -0.124482  0  3.673874  0  0  -0.144074  0  3.915915  0  0  -0.149709  0  3.935768  0  0  -0.06635  -0.140345  0  3.902583  0
C  C70  1  0.14192763  0.30789002  0.68631447  1  0  -0.124603  0  3.675012  0  0  -0.144381  0  3.916992  0  0  -0.149992  0  3.936905  0  0  -0.066249  -0.140642  0  3.903618  0
C  C71  1  0.35806933  0.69211093  0.18631349  1  0  -0.124561  0  3.675046  0  0  -0.144333  0  3.91702  0  0  -0.149944  0  3.936934  0  0  -0.066212  -0.140593  0  3.90365  0
C  C72  1  0.83374198  0.69204036  0.68640670  1  0  -0.124428  0  3.674057  0  0  -0.144067  0  3.916078  0  0  -0.149706  0  3.935938  0  0  -0.066304  -0.140335  0  3.902741  0
C  C73  1  0.66625662  0.30795918  0.18640611  1  0  -0.124414  0  3.674063  0  0  -0.144043  0  3.916088  0  0  -0.149678  0  3.935942  0  0  -0.066314  -0.140313  0  3.902756  0
C  C74  1  0.85807113  0.69211172  0.31368440  1  0  -0.124455  0  3.675149  0  0  -0.14424  0  3.917109  0  0  -0.14985  0  3.937024  0  0  -0.066172  -0.140497  0  3.903738  0
C  C75  1  0.64192591  0.30788934  0.81368606  1  0  -0.124556  0  3.675169  0  0  -0.144338  0  3.917125  0  0  -0.149949  0  3.93704  0  0  -0.066242  -0.1406  0  3.903752  0
C  C76  1  0.12291807  0.20669203  0.31740690  1  0  0.128169  0  3.663473  0  0  0.100121  0  3.906347  0  0  0.105491  0  3.925015  0  0  0.05332  0.096409  0  3.894181  0
C  C77  1  0.37707904  0.79330824  0.81740838  1  0  0.128188  0  3.663544  0  0  0.10016  0  3.906403  0  0  0.105525  0  3.925068  0  0  0.053347  0.096445  0  3.894236  0
C  C78  1  0.08360235  0.20662765  0.68269546  1  0  0.126743  0  3.663907  0  0  0.099239  0  3.906926  0  0  0.104566  0  3.925717  0  0  0.053088  0.095551  0  3.894657  0
C  C79  1  0.41639462  0.79337332  0.18269403  1  0  0.126756  0  3.663961  0  0  0.099222  0  3.907005  0  0  0.104551  0  3.925795  0  0  0.053061  0.095534  0  3.894741  0
C  C80  1  0.87707924  0.79330679  0.68259333  1  0  0.128237  0  3.663545  0  0  0.100209  0  3.906422  0  0  0.105579  0  3.925094  0  0  0.053366  0.096493  0  3.89425  0
C  C81  1  0.62292216  0.20669276  0.18259320  1  0  0.128223  0  3.663466  0  0  0.100157  0  3.90633  0  0  0.105523  0  3.924996  0  0  0.053336  0.096444  0  3.894164  0
C  C82  1  0.91639885  0.79337335  0.31730341  1  0  0.126698  0  3.664013  0  0  0.099206  0  3.90707  0  0  0.104533  0  3.92586  0  0  0.053073  0.095519  0  3.894804  0
C  C83  1  0.58360099  0.20662769  0.81730619  1  0  0.12678  0  3.663972  0  0  0.099289  0  3.906984  0  0  0.104617  0  3.925776  0  0  0.053132  0.095599  0  3.894717  0
N  N84  1  0.20110531  0.15856762  0.37981875  1  0  -0.266727  0  3.274398  0  0  -0.185465  0  3.546013  0  0  -0.201222  0  3.561913  0  0  -0.328412  -0.175385  0  3.535836  0
N  N85  1  0.29889430  0.84143160  0.87982061  1  0  -0.266787  0  3.274458  0  0  -0.185507  0  3.54605  0  0  -0.201255  0  3.561944  0  0  -0.328429  -0.175421  0  3.535864  0
N  N86  1  0.95725870  0.15851386  0.62032833  1  0  -0.264575  0  3.273469  0  0  -0.183536  0  3.544946  0  0  -0.199373  0  3.561003  0  0  -0.327642  -0.173335  0  3.534601  0
N  N87  1  0.54273989  0.84148894  0.12032634  1  0  -0.264578  0  3.273461  0  0  -0.183526  0  3.544932  0  0  -0.199363  0  3.560988  0  0  -0.327597  -0.173326  0  3.534589  0
N  N88  1  0.79889376  0.84143193  0.62018079  1  0  -0.266721  0  3.274404  0  0  -0.18546  0  3.54601  0  0  -0.201222  0  3.561914  0  0  -0.32839  -0.175373  0  3.535826  0
N  N89  1  0.70110933  0.15856868  0.12018029  1  0  -0.266778  0  3.274261  0  0  -0.185492  0  3.545871  0  0  -0.201248  0  3.561769  0  0  -0.328407  -0.175409  0  3.535689  0
N  N90  1  0.04274499  0.84148933  0.37967054  1  0  -0.264598  0  3.273495  0  0  -0.183562  0  3.544988  0  0  -0.199397  0  3.561042  0  0  -0.327655  -0.173362  0  3.534649  0
N  N91  1  0.45725535  0.15851134  0.87967389  1  0  -0.264565  0  3.273402  0  0  -0.183556  0  3.544899  0  0  -0.199392  0  3.560955  0  0  -0.32767  -0.173357  0  3.534555  0
N  N92  1  0.38289350  0.55052447  0.37684071  1  0  -0.398126  0  2.583496  0  0  -0.376265  0  2.805198  0  0  -0.386975  0  2.818704  0  0  -0.295525  -0.369164  0  2.796279  0
N  N93  1  0.11710538  0.44947330  0.87684300  1  0  -0.398038  0  2.583681  0  0  -0.37616  0  2.805365  0  0  -0.386869  0  2.818871  0  0  -0.295473  -0.369059  0  2.796442  0
N  N94  1  0.16750788  0.55045976  0.62329535  1  0  -0.398283  0  2.581834  0  0  -0.376231  0  2.803443  0  0  -0.387041  0  2.817031  0  0  -0.295866  -0.368991  0  2.794391  0
N  N95  1  0.33248975  0.44954298  0.12329284  1  0  -0.398246  0  2.582092  0  0  -0.37619  0  2.8037  0  0  -0.386995  0  2.817289  0  0  -0.29587  -0.368946  0  2.794645  0
N  N96  1  0.61710520  0.44947435  0.62315816  1  0  -0.398099  0  2.583639  0  0  -0.376247  0  2.805362  0  0  -0.386955  0  2.818868  0  0  -0.29554  -0.369145  0  2.796441  0
N  N97  1  0.88289509  0.55052624  0.12315655  1  0  -0.398058  0  2.583554  0  0  -0.3762  0  2.805274  0  0  -0.38691  0  2.818781  0  0  -0.295503  -0.369099  0  2.796352  0
N  N98  1  0.83248493  0.44954124  0.37670488  1  0  -0.398167  0  2.581741  0  0  -0.376123  0  2.80337  0  0  -0.386929  0  2.81696  0  0  -0.295782  -0.368878  0  2.794316  0
N  N99  1  0.66750938  0.55045949  0.87670738  1  0  -0.398229  0  2.581797  0  0  -0.376179  0  2.803413  0  0  -0.386985  0  2.817002  0  0  -0.295838  -0.368939  0  2.79436  0
Cl  Cl100  1  0.34130333  0.99998653  0.62546395  1  0  1.392218  0  6.161573  0  0  1.336728  0  6.713815  0  0  1.388001  0  6.691566  0  0  0.722804  1.301461  0  6.727621  0
Cl  Cl101  1  0.15870190  0.00001183  0.12546284  1  0  1.392334  0  6.161281  0  0  1.336864  0  6.713521  0  0  1.388138  0  6.691265  0  0  0.722852  1.301593  0  6.727335  0
Cl  Cl102  1  0.65870030  0.00001375  0.37453492  1  0  1.392157  0  6.161626  0  0  1.336682  0  6.713873  0  0  1.387954  0  6.691624  0  0  0.72277  1.301413  0  6.727684  0
Cl  Cl103  1  0.84130131  0.99998480  0.87453806  1  0  1.392447  0  6.161523  0  0  1.337  0  6.713701  0  0  1.388272  0  6.691451  0  0  0.722927  1.301732  0  6.727511  0
O  O104  1  0.22149991  0.99987684  0.54497164  1  0  -0.569298  0  1.978877  0  0  -0.547527  0  2.280747  0  0  -0.562109  0  2.261171  0  0  -0.31777  -0.537294  0  2.293661  0
O  O105  1  0.27850068  0.00012121  0.04496928  1  0  -0.569362  0  1.978809  0  0  -0.547608  0  2.280687  0  0  -0.562192  0  2.261108  0  0  -0.317822  -0.537373  0  2.293611  0
O  O106  1  0.77849983  0.00012125  0.45502858  1  0  -0.569282  0  1.978834  0  0  -0.547502  0  2.280658  0  0  -0.56208  0  2.261077  0  0  -0.317759  -0.537273  0  2.29359  0
O  O107  1  0.72149839  0.99987834  0.95503027  1  0  -0.569357  0  1.978785  0  0  -0.547599  0  2.280658  0  0  -0.562181  0  2.261077  0  0  -0.317809  -0.537357  0  2.293548  0
O  O108  1  0.22085706  0.00000127  0.70662241  1  0  -0.580207  0  1.953547  0  0  -0.552498  0  2.248935  0  0  -0.567846  0  2.22982  0  0  -0.320825  -0.541672  0  2.261534  0
O  O109  1  0.27915354  0.99999885  0.20661984  1  0  -0.580238  0  1.953552  0  0  -0.552538  0  2.248943  0  0  -0.567878  0  2.22982  0  0  -0.320817  -0.541718  0  2.261551  0
O  O110  1  0.77914547  0.99999682  0.29337850  1  0  -0.580176  0  1.953651  0  0  -0.55247  0  2.249033  0  0  -0.567819  0  2.229919  0  0  -0.320817  -0.541646  0  2.26164  0
O  O111  1  0.72085604  0.00000215  0.79337971  1  0  -0.580282  0  1.953672  0  0  -0.55259  0  2.249058  0  0  -0.56793  0  2.22994  0  0  -0.320835  -0.541768  0  2.261661  0
O  O112  1  0.50125419  0.08757587  0.62554968  1  0  -0.54299  0  1.867347  0  0  -0.517942  0  2.117006  0  0  -0.533661  0  2.104287  0  0  -0.310923  -0.506642  0  2.125075  0
O  O113  1  0.99875164  0.91242179  0.12555180  1  0  -0.543035  0  1.867323  0  0  -0.517975  0  2.11697  0  0  -0.533697  0  2.104252  0  0  -0.310923  -0.506675  0  2.125044  0
O  O114  1  0.58594518  0.08751327  0.37432245  1  0  -0.543616  0  1.867076  0  0  -0.518308  0  2.116445  0  0  -0.534163  0  2.103949  0  0  -0.311155  -0.50699  0  2.124527  0
O  O115  1  0.91405362  0.91248528  0.87432677  1  0  -0.543669  0  1.867046  0  0  -0.518362  0  2.116413  0  0  -0.534212  0  2.103913  0  0  -0.311212  -0.50705  0  2.124496  0
O  O116  1  0.49874251  0.91242732  0.37445055  1  0  -0.542975  0  1.867379  0  0  -0.517956  0  2.117058  0  0  -0.53368  0  2.104354  0  0  -0.310924  -0.506651  0  2.125125  0
O  O117  1  0.00125953  0.08757119  0.87445317  1  0  -0.543049  0  1.867331  0  0  -0.518035  0  2.117015  0  0  -0.53376  0  2.104299  0  0  -0.310958  -0.506736  0  2.125086  0
O  O118  1  0.41406373  0.91248919  0.62567710  1  0  -0.543632  0  1.867039  0  0  -0.518316  0  2.116403  0  0  -0.534167  0  2.103903  0  0  -0.311172  -0.507  0  2.124485  0
O  O119  1  0.08593973  0.08750843  0.12567549  1  0  -0.543579  0  1.866857  0  0  -0.518299  0  2.116263  0  0  -0.534154  0  2.103758  0  0  -0.311162  -0.506983  0  2.124348  0
