# generated using pymatgen
data_CsH5C6(NO3)2
_symmetry_space_group_name_H-M   'P 1'
_cell_length_a   5.55135486
_cell_length_b   7.76733233
_cell_length_c   22.42049626
_cell_angle_alpha   90.00010268
_cell_angle_beta   90.00109488
_cell_angle_gamma   89.00751030
_symmetry_Int_Tables_number   1
_chemical_formula_structural   CsH5C6(NO3)2
_chemical_formula_sum   'Cs4 H20 C24 N8 O24'
_cell_volume   966.60922969
_cell_formula_units_Z   4
loop_
 _symmetry_equiv_pos_site_id
 _symmetry_equiv_pos_as_xyz
  1  'x, y, z'
loop_
 _atom_site_type_symbol
 _atom_site_label
 _atom_site_symmetry_multiplicity
 _atom_site_fract_x
 _atom_site_fract_y
 _atom_site_fract_z
 _atom_site_occupancy
 _atom_site_hle17_bader_spin_density
 _atom_site_hle17_ddec_charge
 _atom_site_hle17_ddec_spin_density
 _atom_site_hle17_ddec_sum_bond_order
 _atom_site_hle17_magmom
 _atom_site_hse06_10hf_bader_spin_density
 _atom_site_hse06_10hf_ddec_charge
 _atom_site_hse06_10hf_ddec_spin_density
 _atom_site_hse06_10hf_ddec_sum_bond_order
 _atom_site_hse06_10hf_magmom
 _atom_site_hse06_bader_spin_density
 _atom_site_hse06_ddec_charge
 _atom_site_hse06_ddec_spin_density
 _atom_site_hse06_ddec_sum_bond_order
 _atom_site_hse06_magmom
 _atom_site_pbe_bader_spin_density
 _atom_site_pbe_cm5_charge
 _atom_site_pbe_ddec_charge
 _atom_site_pbe_ddec_spin_density
 _atom_site_pbe_ddec_sum_bond_order
 _atom_site_pbe_magmom
Cs  Cs0  1  0.31602650  0.26297741  0.51633987  1  0  0.954652  0  0.547918  0  0  0.900062  0  0.78129  0  0  0.916588  0  0.754483  0  0  0.87689  0.887816  0  0.800228  0
Cs  Cs1  1  0.68397568  0.23702867  0.01633827  1  0  0.954639  0  0.547883  0  0  0.900049  0  0.78124  0  0  0.916578  0  0.754424  0  0  0.876832  0.887766  0  0.800198  0
Cs  Cs2  1  0.68397463  0.73703161  0.48365951  1  0  0.954661  0  0.547886  0  0  0.900063  0  0.781262  0  0  0.916588  0  0.754456  0  0  0.87688  0.887813  0  0.8002  0
Cs  Cs3  1  0.31605237  0.76297335  0.98366111  1  0  0.954643  0  0.547891  0  0  0.900041  0  0.781278  0  0  0.916575  0  0.754461  0  0  0.876826  0.887781  0  0.800188  0
H  H4  1  0.95178841  0.11184233  0.73531481  1  0  0.128651  0  0.95598  0  0  0.132006  0  1.025621  0  0  0.135933  0  1.02159  0  0  0.120199  0.129112  0  1.028569  0
H  H5  1  0.04821335  0.38814682  0.23531528  1  0  0.128586  0  0.955975  0  0  0.131945  0  1.02565  0  0  0.135876  0  1.021619  0  0  0.120178  0.129049  0  1.028598  0
H  H6  1  0.04821254  0.88815510  0.26468546  1  0  0.128633  0  0.95598  0  0  0.131962  0  1.02567  0  0  0.135888  0  1.021636  0  0  0.120197  0.129067  0  1.028614  0
H  H7  1  0.95178743  0.61184031  0.76468277  1  0  0.12859  0  0.956089  0  0  0.131932  0  1.025762  0  0  0.135857  0  1.021736  0  0  0.120162  0.129039  0  1.028703  0
H  H8  1  0.32532197  0.83827450  0.79391959  1  0  0.125853  0  0.946782  0  0  0.131173  0  1.0113  0  0  0.135198  0  1.007159  0  0  0.115794  0.128234  0  1.014366  0
H  H9  1  0.67466994  0.66172894  0.29393262  1  0  0.125754  0  0.946869  0  0  0.131089  0  1.011331  0  0  0.1351  0  1.007226  0  0  0.115727  0.128164  0  1.014347  0
H  H10  1  0.67466121  0.16173874  0.20607756  1  0  0.12581  0  0.946965  0  0  0.131137  0  1.011469  0  0  0.135163  0  1.007326  0  0  0.115802  0.128212  0  1.014503  0
H  H11  1  0.32532011  0.33826356  0.70607434  1  0  0.125777  0  0.946955  0  0  0.131056  0  1.011521  0  0  0.135079  0  1.007384  0  0  0.115737  0.128151  0  1.014489  0
H  H12  1  0.20361553  0.79622677  0.68823033  1  0  0.12566  0  0.950301  0  0  0.133976  0  1.011782  0  0  0.137895  0  1.010733  0  0  0.106774  0.131196  0  1.012806  0
H  H13  1  0.79639538  0.70375645  0.18824476  1  0  0.125657  0  0.950579  0  0  0.134037  0  1.011958  0  0  0.137957  0  1.010905  0  0  0.106767  0.131253  0  1.012987  0
H  H14  1  0.79638545  0.20377323  0.31176593  1  0  0.125645  0  0.950437  0  0  0.134002  0  1.011848  0  0  0.137921  0  1.010799  0  0  0.106781  0.131217  0  1.012876  0
H  H15  1  0.20360556  0.29624098  0.81176310  1  0  0.125581  0  0.950511  0  0  0.133985  0  1.011883  0  0  0.137906  0  1.010833  0  0  0.106767  0.131201  0  1.012911  0
H  H16  1  0.06116499  0.60644873  0.58842175  1  0  0.399121  0  0.91001  0  0  0.369875  0  0.972629  0  0  0.380414  0  0.956787  0  0  0.284036  0.362415  0  0.983856  0
H  H17  1  0.93884068  0.89354182  0.08841771  1  0  0.399134  0  0.91001  0  0  0.369965  0  0.972482  0  0  0.380495  0  0.956657  0  0  0.284085  0.362504  0  0.983711  0
H  H18  1  0.93883415  0.39354873  0.41157942  1  0  0.39911  0  0.910034  0  0  0.369915  0  0.972559  0  0  0.380447  0  0.956729  0  0  0.284036  0.362457  0  0.983783  0
H  H19  1  0.06117835  0.10645910  0.91157900  1  0  0.399088  0  0.910068  0  0  0.3699  0  0.97258  0  0  0.380435  0  0.956747  0  0  0.284053  0.362438  0  0.983809  0
H  H20  1  0.24440019  0.74629742  0.57200772  1  0  0.407532  0  0.904541  0  0  0.378766  0  0.966916  0  0  0.389993  0  0.95049  0  0  0.278727  0.370836  0  0.978486  0
H  H21  1  0.75559318  0.75369202  0.07201311  1  0  0.407573  0  0.904452  0  0  0.378865  0  0.966763  0  0  0.390097  0  0.950332  0  0  0.278734  0.370937  0  0.978334  0
H  H22  1  0.75559003  0.25370538  0.42799077  1  0  0.407628  0  0.904403  0  0  0.378887  0  0.966759  0  0  0.390115  0  0.950331  0  0  0.27876  0.370957  0  0.978332  0
H  H23  1  0.24442049  0.24631159  0.92798672  1  0  0.407573  0  0.90444  0  0  0.37884  0  0.966782  0  0  0.39007  0  0.950353  0  0  0.278731  0.370913  0  0.978348  0
C  C24  1  0.50397668  0.92964282  0.64903425  1  0  0.393256  0  3.833577  0  0  0.372457  0  4.108923  0  0  0.396147  0  4.117925  0  0  0.12001  0.356893  0  4.102266  0
C  C25  1  0.49602551  0.57035326  0.14904383  1  0  0.393543  0  3.8335  0  0  0.372675  0  4.10896  0  0  0.396364  0  4.117965  0  0  0.120085  0.357109  0  4.102309  0
C  C26  1  0.49602072  0.07035855  0.35096246  1  0  0.393289  0  3.83376  0  0  0.372471  0  4.109105  0  0  0.39616  0  4.118112  0  0  0.119996  0.356913  0  4.102444  0
C  C27  1  0.50398457  0.42965170  0.85096269  1  0  0.392983  0  3.834326  0  0  0.372243  0  4.109509  0  0  0.39593  0  4.118522  0  0  0.119936  0.356685  0  4.102851  0
C  C28  1  0.72144502  0.02182128  0.66571417  1  0  -0.055959  0  3.599217  0  0  -0.064904  0  3.858369  0  0  -0.078917  0  3.879452  0  0  0.067823  -0.056178  0  3.844351  0
C  C29  1  0.27855608  0.47817913  0.16571963  1  0  -0.05601  0  3.599095  0  0  -0.065004  0  3.85838  0  0  -0.079012  0  3.879461  0  0  0.067812  -0.056273  0  3.844356  0
C  C30  1  0.27856142  0.97818118  0.33428521  1  0  -0.056011  0  3.599317  0  0  -0.064848  0  3.85836  0  0  -0.078856  0  3.879438  0  0  0.067888  -0.05613  0  3.844347  0
C  C31  1  0.72144315  0.52182349  0.83428199  1  0  -0.055904  0  3.599257  0  0  -0.064734  0  3.858168  0  0  -0.078737  0  3.879245  0  0  0.067841  -0.056033  0  3.844184  0
C  C32  1  0.78870748  0.04282936  0.72490836  1  0  -0.096848  0  3.746172  0  0  -0.136555  0  4.017868  0  0  -0.126229  0  4.033241  0  0  -0.06899  -0.142464  0  4.006584  0
C  C33  1  0.21127535  0.45716141  0.22490952  1  0  -0.096646  0  3.745505  0  0  -0.136408  0  4.017305  0  0  -0.12608  0  4.032669  0  0  -0.069031  -0.142317  0  4.006015  0
C  C34  1  0.21128085  0.95716832  0.27509147  1  0  -0.096741  0  3.745779  0  0  -0.136551  0  4.017497  0  0  -0.126217  0  4.032859  0  0  -0.069067  -0.142452  0  4.006201  0
C  C35  1  0.78872193  0.54283223  0.77509343  1  0  -0.096776  0  3.745611  0  0  -0.136538  0  4.017317  0  0  -0.126206  0  4.032681  0  0  -0.069023  -0.142441  0  4.006036  0
C  C36  1  0.64799234  0.97659772  0.77034186  1  0  0.044008  0  3.755721  0  0  0.024239  0  4.014063  0  0  0.015745  0  4.043459  0  0  0.063288  0.032092  0  3.996049  0
C  C37  1  0.35200642  0.52340289  0.27035351  1  0  0.043875  0  3.754929  0  0  0.024103  0  4.013243  0  0  0.015588  0  4.042634  0  0  0.063396  0.031957  0  3.995226  0
C  C38  1  0.35200337  0.02341012  0.22965396  1  0  0.043827  0  3.755566  0  0  0.024213  0  4.013757  0  0  0.015652  0  4.043118  0  0  0.063334  0.032061  0  3.995741  0
C  C39  1  0.64798175  0.47658450  0.72964944  1  0  0.043978  0  3.75527  0  0  0.024122  0  4.013656  0  0  0.015608  0  4.043048  0  0  0.063399  0.031978  0  3.995634  0
C  C40  1  0.43345023  0.88766559  0.75740547  1  0  -0.061008  0  3.735556  0  0  -0.084053  0  3.994848  0  0  -0.077648  0  4.013581  0  0  -0.075949  -0.087542  0  3.981441  0
C  C41  1  0.56654002  0.61232741  0.25741224  1  0  -0.060775  0  3.735422  0  0  -0.08374  0  3.994638  0  0  -0.077331  0  4.01337  0  0  -0.075808  -0.087232  0  3.981228  0
C  C42  1  0.56654185  0.11234103  0.24259169  1  0  -0.060811  0  3.735498  0  0  -0.083901  0  3.99474  0  0  -0.077494  0  4.013482  0  0  -0.075902  -0.087395  0  3.981341  0
C  C43  1  0.43344823  0.38766513  0.74258982  1  0  -0.060845  0  3.735689  0  0  -0.083757  0  3.994914  0  0  -0.077346  0  4.013652  0  0  -0.075884  -0.087243  0  3.981521  0
C  C44  1  0.36688501  0.86553069  0.69916309  1  0  -0.18653  0  3.659704  0  0  -0.208994  0  3.920251  0  0  -0.22244  0  3.94193  0  0  -0.103328  -0.200417  0  3.905728  0
C  C45  1  0.63312517  0.63445775  0.19917281  1  0  -0.186758  0  3.660097  0  0  -0.209298  0  3.920603  0  0  -0.222753  0  3.942283  0  0  -0.103425  -0.200714  0  3.906074  0
C  C46  1  0.63312142  0.13447178  0.30083585  1  0  -0.186612  0  3.659816  0  0  -0.209129  0  3.920381  0  0  -0.222579  0  3.942061  0  0  -0.103381  -0.200554  0  3.905859  0
C  C47  1  0.36687217  0.36553976  0.80083014  1  0  -0.186444  0  3.659797  0  0  -0.209082  0  3.920302  0  0  -0.222538  0  3.941987  0  0  -0.103377  -0.200503  0  3.905778  0
N  N48  1  0.87630340  0.09880758  0.62204375  1  0  0.524046  0  3.903885  0  0  0.55367  0  4.198672  0  0  0.576898  0  4.207366  0  0  0.019988  0.538236  0  4.192751  0
N  N49  1  0.12368463  0.40118515  0.12204586  1  0  0.524114  0  3.903786  0  0  0.553736  0  4.198582  0  0  0.576965  0  4.207273  0  0  0.020064  0.538299  0  4.192674  0
N  N50  1  0.12369388  0.90118606  0.37795207  1  0  0.524183  0  3.903707  0  0  0.553785  0  4.198479  0  0  0.57701  0  4.207176  0  0  0.020089  0.538344  0  4.192575  0
N  N51  1  0.87631646  0.59882129  0.87795442  1  0  0.524138  0  3.903681  0  0  0.553717  0  4.198455  0  0  0.576942  0  4.207148  0  0  0.019998  0.538286  0  4.192548  0
N  N52  1  0.72025029  0.00389176  0.83059901  1  0  0.473068  0  3.957977  0  0  0.532212  0  4.21375  0  0  0.540291  0  4.246749  0  0  0.040211  0.517305  0  4.20628  0
N  N53  1  0.27972945  0.49610090  0.33060314  1  0  0.472894  0  3.957578  0  0  0.53218  0  4.213209  0  0  0.540302  0  4.246145  0  0  0.040164  0.517279  0  4.205741  0
N  N54  1  0.27974179  0.99611487  0.16940038  1  0  0.473019  0  3.957939  0  0  0.532125  0  4.213749  0  0  0.540425  0  4.246438  0  0  0.040143  0.51723  0  4.206277  0
N  N55  1  0.72026762  0.50387987  0.66939937  1  0  0.472718  0  3.958224  0  0  0.532009  0  4.213893  0  0  0.540131  0  4.246814  0  0  0.040069  0.517103  0  4.206428  0
O  O56  1  0.43342713  0.90716916  0.59584750  1  0  -0.593041  0  2.034562  0  0  -0.555196  0  2.266468  0  0  -0.580467  0  2.263032  0  0  -0.384256  -0.537561  0  2.268208  0
O  O57  1  0.56656676  0.59283197  0.09585693  1  0  -0.593177  0  2.034614  0  0  -0.555351  0  2.266534  0  0  -0.580623  0  2.263092  0  0  -0.384317  -0.537713  0  2.26828  0
O  O58  1  0.56657040  0.09283993  0.40415099  1  0  -0.593084  0  2.034515  0  0  -0.555242  0  2.266422  0  0  -0.580515  0  2.262986  0  0  -0.384263  -0.537609  0  2.268162  0
O  O59  1  0.43343972  0.40717307  0.90414558  1  0  -0.592864  0  2.035223  0  0  -0.555093  0  2.267069  0  0  -0.580359  0  2.263632  0  0  -0.384171  -0.537454  0  2.268801  0
O  O60  1  0.84328352  0.07003176  0.56784104  1  0  -0.424916  0  1.791488  0  0  -0.409691  0  2.015229  0  0  -0.420409  0  2.009557  0  0  -0.216636  -0.402314  0  2.019102  0
O  O61  1  0.15671600  0.42996948  0.06784464  1  0  -0.424835  0  1.791599  0  0  -0.409646  0  2.015367  0  0  -0.420362  0  2.009689  0  0  -0.216601  -0.40227  0  2.019247  0
O  O62  1  0.15672658  0.92997449  0.43216013  1  0  -0.424998  0  1.791072  0  0  -0.409774  0  2.014807  0  0  -0.420497  0  2.009138  0  0  -0.216732  -0.402401  0  2.01869  0
O  O63  1  0.84331029  0.57003515  0.93215430  1  0  -0.424843  0  1.791894  0  0  -0.40967  0  2.015721  0  0  -0.420393  0  2.010061  0  0  -0.216571  -0.402256  0  2.019515  0
O  O64  1  0.04117263  0.19456764  0.63994584  1  0  -0.421045  0  1.778716  0  0  -0.402579  0  2.003106  0  0  -0.417678  0  2.000468  0  0  -0.191866  -0.392301  0  2.004853  0
O  O65  1  0.95883332  0.30542996  0.13994583  1  0  -0.421068  0  1.778841  0  0  -0.402588  0  2.003254  0  0  -0.417684  0  2.000613  0  0  -0.191886  -0.392307  0  2.00501  0
O  O66  1  0.95884457  0.80543202  0.36005532  1  0  -0.421042  0  1.779089  0  0  -0.402584  0  2.00349  0  0  -0.41767  0  2.000849  0  0  -0.191856  -0.392304  0  2.005236  0
O  O67  1  0.04115722  0.69459215  0.86005177  1  0  -0.421083  0  1.778534  0  0  -0.402642  0  2.002969  0  0  -0.417737  0  2.000328  0  0  -0.191858  -0.39236  0  2.004717  0
O  O68  1  0.90573134  0.09115393  0.84000508  1  0  -0.412413  0  1.820822  0  0  -0.38698  0  2.020725  0  0  -0.396815  0  2.022744  0  0  -0.142614  -0.377197  0  2.024129  0
O  O69  1  0.09424745  0.40883879  0.34000307  1  0  -0.41241  0  1.820752  0  0  -0.386943  0  2.020579  0  0  -0.39678  0  2.022569  0  0  -0.142592  -0.377165  0  2.023986  0
O  O70  1  0.09426072  0.90885140  0.15999386  1  0  -0.412392  0  1.820792  0  0  -0.386931  0  2.020679  0  0  -0.396834  0  2.022596  0  0  -0.142541  -0.377158  0  2.024088  0
O  O71  1  0.90576737  0.59112488  0.65999899  1  0  -0.412351  0  1.821039  0  0  -0.386871  0  2.020869  0  0  -0.396712  0  2.022853  0  0  -0.142531  -0.377098  0  2.024282  0
O  O72  1  0.59774818  0.94217799  0.87191577  1  0  -0.40508  0  1.776221  0  0  -0.404802  0  1.9891  0  0  -0.410701  0  1.991561  0  0  -0.175528  -0.397432  0  1.99214  0
O  O73  1  0.40222347  0.55781081  0.37192675  1  0  -0.405032  0  1.775878  0  0  -0.404825  0  1.988785  0  0  -0.410745  0  1.991233  0  0  -0.175581  -0.397469  0  1.991835  0
O  O74  1  0.40224570  0.05782859  0.12808183  1  0  -0.405066  0  1.776055  0  0  -0.404817  0  1.988971  0  0  -0.410796  0  1.991334  0  0  -0.175571  -0.397451  0  1.992012  0
O  O75  1  0.59776112  0.44217795  0.62807665  1  0  -0.40496  0  1.775956  0  0  -0.404723  0  1.988852  0  0  -0.410644  0  1.991295  0  0  -0.175545  -0.397363  0  1.991899  0
O  O76  1  0.15643209  0.64773898  0.55444813  1  0  -0.918996  0  1.801063  0  0  -0.874674  0  1.960262  0  0  -0.893794  0  1.930178  0  0  -0.734567  -0.860717  0  1.981145  0
O  O77  1  0.84355603  0.85224662  0.05444636  1  0  -0.919048  0  1.801014  0  0  -0.874823  0  1.960076  0  0  -0.893943  0  1.929988  0  0  -0.734615  -0.860872  0  1.980957  0
O  O78  1  0.84355995  0.35226507  0.44555215  1  0  -0.919059  0  1.801032  0  0  -0.874804  0  1.960148  0  0  -0.89392  0  1.930064  0  0  -0.734587  -0.860852  0  1.981037  0
O  O79  1  0.15645573  0.14775059  0.94555080  1  0  -0.919007  0  1.801057  0  0  -0.874741  0  1.960161  0  0  -0.893866  0  1.930077  0  0  -0.734565  -0.860789  0  1.981041  0
