# generated using pymatgen
data_NdH8C12N2O7
_symmetry_space_group_name_H-M   'P 1'
_cell_length_a   8.97712743
_cell_length_b   11.92322803
_cell_length_c   13.89330000
_cell_angle_alpha   90.00000000
_cell_angle_beta   90.00000000
_cell_angle_gamma   90.77215982
_symmetry_Int_Tables_number   1
_chemical_formula_structural   NdH8C12N2O7
_chemical_formula_sum   'Nd4 H32 C48 N8 O28'
_cell_volume   1486.95290406
_cell_formula_units_Z   4
loop_
 _symmetry_equiv_pos_site_id
 _symmetry_equiv_pos_as_xyz
  1  'x, y, z'
loop_
 _atom_site_type_symbol
 _atom_site_label
 _atom_site_symmetry_multiplicity
 _atom_site_fract_x
 _atom_site_fract_y
 _atom_site_fract_z
 _atom_site_occupancy
 _atom_site_hle17_bader_spin_density
 _atom_site_hle17_ddec_charge
 _atom_site_hle17_ddec_spin_density
 _atom_site_hle17_ddec_sum_bond_order
 _atom_site_hle17_magmom
 _atom_site_hse06_10hf_bader_spin_density
 _atom_site_hse06_10hf_ddec_charge
 _atom_site_hse06_10hf_ddec_spin_density
 _atom_site_hse06_10hf_ddec_sum_bond_order
 _atom_site_hse06_10hf_magmom
 _atom_site_hse06_bader_spin_density
 _atom_site_hse06_ddec_charge
 _atom_site_hse06_ddec_spin_density
 _atom_site_hse06_ddec_sum_bond_order
 _atom_site_hse06_magmom
 _atom_site_pbe_bader_charge
 _atom_site_pbe_bader_spin_density
 _atom_site_pbe_cm5_charge
 _atom_site_pbe_ddec_charge
 _atom_site_pbe_ddec_spin_density
 _atom_site_pbe_ddec_sum_bond_order
 _atom_site_pbe_magmom
Nd  Nd0  1  0.73122663  0.93716355  0.86245744  1  0  2.272291  0  1.723771  0  0  2.112162  0  2.205016  0  0  2.204649  0  2.061667  0  2.250532  0  1.511338  2.079709  0  2.241449  0
Nd  Nd1  1  0.26878622  0.56284166  0.36245816  1  0  2.272291  0  1.723692  0  0  2.112127  0  2.205006  0  0  2.204657  0  2.061578  0  2.250759  0  1.51128  2.079675  0  2.241437  0
Nd  Nd2  1  0.26874912  0.06282678  0.13752672  1  0  2.272405  0  1.723642  0  0  2.112303  0  2.204845  0  0  2.204775  0  2.061528  0  2.250502  0  1.511317  2.079851  0  2.241277  0
Nd  Nd3  1  0.73126573  0.43717384  0.63753104  1  0  2.272394  0  1.723571  0  0  2.112275  0  2.204784  0  0  2.204759  0  2.061448  0  2.250588  0  1.511368  2.079827  0  2.241204  0
H  H4  1  0.63160172  0.66285973  0.02686043  1  0  0.329791  0  0.834587  0  0  0.317594  0  0.882948  0  0  0.325795  0  0.876174  0  0.511134  0  0.34711  0.31173  0  0.887856  0
H  H5  1  0.36840852  0.83712451  0.52685971  1  0  0.329839  0  0.834525  0  0  0.31773  0  0.882812  0  0  0.325934  0  0.876033  0  0.511274  0  0.347173  0.311866  0  0.887723  0
H  H6  1  0.36839528  0.33713563  0.97313597  1  0  0.329814  0  0.834532  0  0  0.317631  0  0.882907  0  0  0.325833  0  0.876132  0  0.511118  0  0.347095  0.311766  0  0.887819  0
H  H7  1  0.63158826  0.16285827  0.47313885  1  0  0.329909  0  0.834468  0  0  0.317712  0  0.882855  0  0  0.32591  0  0.876085  0  0.511233  0  0.347156  0.311848  0  0.887764  0
H  H8  1  0.64693766  0.50287007  0.32755285  1  0  0.102296  0  0.944307  0  0  0.109941  0  1.010733  0  0  0.113103  0  1.009434  0  0.087829  0  0.115834  0.107156  0  1.012838  0
H  H9  1  0.35306378  0.99712004  0.82755141  1  0  0.102251  0  0.94437  0  0  0.109967  0  1.01073  0  0  0.113134  0  1.009427  0  0.087537  0  0.115856  0.10718  0  1.012839  0
H  H10  1  0.35308308  0.49714459  0.67245363  1  0  0.102391  0  0.944202  0  0  0.110039  0  1.010621  0  0  0.113198  0  1.009316  0  0.088052  0  0.115899  0.107257  0  1.012724  0
H  H11  1  0.64690044  0.00284848  0.17244931  1  0  0.102437  0  0.944072  0  0  0.110088  0  1.010501  0  0  0.113249  0  1.009198  0  0.087941  0  0.115913  0.107305  0  1.012604  0
H  H12  1  0.80154680  0.33356581  0.34454953  1  0  0.102967  0  0.960768  0  0  0.111438  0  1.02271  0  0  0.115102  0  1.020168  0  0.084605  0  0.102611  0.108837  0  1.024459  0
H  H13  1  0.19845674  0.16642558  0.84454881  1  0  0.102892  0  0.960724  0  0  0.111396  0  1.022639  0  0  0.115056  0  1.020098  0  0.084876  0  0.102613  0.108799  0  1.024389  0
H  H14  1  0.19847402  0.66645304  0.65545407  1  0  0.102962  0  0.960648  0  0  0.111478  0  1.022534  0  0  0.115154  0  1.019992  0  0.084676  0  0.102608  0.108881  0  1.024286  0
H  H15  1  0.80152759  0.83354629  0.15546486  1  0  0.102919  0  0.960686  0  0  0.111394  0  1.022602  0  0  0.115071  0  1.020071  0  0.084863  0  0.102587  0.108804  0  1.024356  0
H  H16  1  0.88593976  0.22961052  0.19854390  1  0  0.099146  0  0.953928  0  0  0.109715  0  1.014401  0  0  0.112905  0  1.012524  0  0.083355  0  0.106012  0.107417  0  1.01581  0
H  H17  1  0.11405706  0.27037835  0.69854462  1  0  0.099089  0  0.954043  0  0  0.109728  0  1.014442  0  0  0.112872  0  1.012612  0  0.083472  0  0.105998  0.107429  0  1.015852  0
H  H18  1  0.11405741  0.77039407  0.80146617  1  0  0.099105  0  0.953962  0  0  0.109671  0  1.01444  0  0  0.112866  0  1.012556  0  0.083593  0  0.106002  0.107374  0  1.015848  0
H  H19  1  0.88594549  0.72961533  0.30147985  1  0  0.099035  0  0.95404  0  0  0.109698  0  1.014411  0  0  0.112835  0  1.01259  0  0.083457  0  0.105976  0.107402  0  1.015819  0
H  H20  1  0.81404934  0.29633006  0.03599073  1  0  0.093932  0  0.942283  0  0  0.10621  0  0.996936  0  0  0.109164  0  0.99577  0  0.071187  0  0.103333  0.10408  0  0.997788  0
H  H21  1  0.18594979  0.20366385  0.53598857  1  0  0.09393  0  0.942236  0  0  0.1062  0  0.996888  0  0  0.109161  0  0.995721  0  0.071215  0  0.103302  0.104068  0  0.997743  0
H  H22  1  0.18594665  0.70367118  0.96401791  1  0  0.093959  0  0.942285  0  0  0.106268  0  0.996901  0  0  0.109219  0  0.995733  0  0.071296  0  0.103323  0.104135  0  0.997758  0
H  H23  1  0.81403845  0.79633990  0.46403014  1  0  0.093961  0  0.942381  0  0  0.106277  0  0.996983  0  0  0.109232  0  0.995815  0  0.070989  0  0.103321  0.104143  0  0.99784  0
H  H24  1  0.65838572  0.46534662  0.01814400  1  0  0.08696  0  0.956848  0  0  0.098071  0  1.018388  0  0  0.101167  0  1.016816  0  0.046216  0  0.097855  0.095857  0  1.019556  0
H  H25  1  0.34161336  0.03464393  0.51814256  1  0  0.087001  0  0.956975  0  0  0.098123  0  1.01848  0  0  0.10122  0  1.016907  0  0.046137  0  0.097907  0.095908  0  1.019649  0
H  H26  1  0.34161360  0.53465378  0.98186176  1  0  0.087003  0  0.956969  0  0  0.098134  0  1.018471  0  0  0.101229  0  1.016902  0  0.046349  0  0.097898  0.095921  0  1.019636  0
H  H27  1  0.65835916  0.96535227  0.48186464  1  0  0.086904  0  0.956912  0  0  0.098053  0  1.01842  0  0  0.101154  0  1.016838  0  0.046003  0  0.097819  0.095838  0  1.019589  0
H  H28  1  0.93765680  0.87523929  0.68005154  1  0  0.444142  0  0.80041  0  0  0.42949  0  0.84813  0  0  0.437275  0  0.837043  0  0.617178  0  0.341486  0.42409  0  0.855972  0
H  H29  1  0.06234276  0.62477011  0.18005657  1  0  0.44416  0  0.800473  0  0  0.429511  0  0.848113  0  0  0.437297  0  0.837027  0  0.617162  0  0.341514  0.424112  0  0.855956  0
H  H30  1  0.06234936  0.12476949  0.31994559  1  0  0.444165  0  0.800472  0  0  0.429518  0  0.848104  0  0  0.437302  0  0.837019  0  0.617149  0  0.341529  0.424118  0  0.855947  0
H  H31  1  0.93765229  0.37524035  0.81994846  1  0  0.444186  0  0.800493  0  0  0.429533  0  0.848099  0  0  0.437321  0  0.837008  0  0.617229  0  0.341544  0.424132  0  0.855944  0
H  H32  1  0.97156954  0.00045797  0.70873731  1  0  0.448431  0  0.806289  0  0  0.425017  0  0.866674  0  0  0.433205  0  0.855017  0  0.636059  0  0.332739  0.419298  0  0.874949  0
H  H33  1  0.02843105  0.49955523  0.20875026  1  0  0.44847  0  0.806117  0  0  0.425059  0  0.866587  0  0  0.433246  0  0.854931  0  0.636449  0  0.33279  0.419341  0  0.87486  0
H  H34  1  0.02843556  0.99955417  0.29125622  1  0  0.44848  0  0.80619  0  0  0.425059  0  0.866615  0  0  0.433252  0  0.854947  0  0.636201  0  0.33278  0.419339  0  0.87489  0
H  H35  1  0.97156842  0.50045356  0.79125622  1  0  0.448422  0  0.806218  0  0  0.425013  0  0.866659  0  0  0.4332  0  0.855005  0  0.636111  0  0.332769  0.419295  0  0.874932  0
C  C36  1  0.68148568  0.45657974  0.26373288  1  0  -0.078373  0  3.702811  0  0  -0.103785  0  3.954886  0  0  -0.105243  0  3.976007  0  -0.039436  0  -0.074155  -0.10276  0  3.940991  0
C  C37  1  0.31851892  0.04340830  0.76373144  1  0  -0.078452  0  3.703234  0  0  -0.103955  0  3.955324  0  0  -0.105419  0  3.976451  0  -0.039066  0  -0.074363  -0.102928  0  3.94143  0
C  C38  1  0.31853500  0.54343156  0.73627576  1  0  -0.078675  0  3.702872  0  0  -0.104094  0  3.954976  0  0  -0.105546  0  3.976094  0  -0.038741  0  -0.074227  -0.103074  0  3.941088  0
C  C39  1  0.68145319  0.95656526  0.23627720  1  0  -0.078755  0  3.702664  0  0  -0.104242  0  3.954792  0  0  -0.105695  0  3.975911  0  -0.038289  0  -0.074312  -0.103219  0  3.940902  0
C  C40  1  0.76883450  0.36136953  0.27297618  1  0  -0.063442  0  3.742977  0  0  -0.076172  0  3.996107  0  0  -0.078565  0  4.016989  0  0.037141  0  -0.087476  -0.074395  0  3.98135  0
C  C41  1  0.23117119  0.13861767  0.77297546  1  0  -0.063219  0  3.742855  0  0  -0.075987  0  3.996038  0  0  -0.078372  0  4.016903  0  0.03673  0  -0.087374  -0.074208  0  3.98127  0
C  C42  1  0.23118506  0.63864177  0.72702886  1  0  -0.063323  0  3.742652  0  0  -0.076084  0  3.995767  0  0  -0.078493  0  4.01666  0  0.036949  0  -0.087505  -0.074319  0  3.98103  0
C  C43  1  0.76880873  0.86135672  0.22703677  1  0  -0.063146  0  3.74255  0  0  -0.075824  0  3.995633  0  0  -0.078237  0  4.016519  0  0.036732  0  -0.087422  -0.074062  0  3.980886  0
C  C44  1  0.81730863  0.30385471  0.19124182  1  0  -0.05488  0  3.724237  0  0  -0.071208  0  3.972371  0  0  -0.071295  0  3.991363  0  -0.148731  0  -0.084166  -0.070859  0  3.959037  0
C  C45  1  0.18269601  0.19613584  0.69124254  1  0  -0.054874  0  3.724216  0  0  -0.071252  0  3.97233  0  0  -0.071302  0  3.991342  0  -0.148266  0  -0.084128  -0.070896  0  3.958983  0
C  C46  1  0.18269300  0.69615072  0.80876178  1  0  -0.054886  0  3.724058  0  0  -0.071207  0  3.972214  0  0  -0.0713  0  3.991204  0  -0.149031  0  -0.084166  -0.070856  0  3.95887  0
C  C47  1  0.81730312  0.80385365  0.30877329  1  0  -0.054892  0  3.72413  0  0  -0.071306  0  3.972269  0  0  -0.071348  0  3.991284  0  -0.148885  0  -0.084138  -0.070953  0  3.958926  0
C  C48  1  0.77791232  0.34203156  0.09965955  1  0  -0.068083  0  3.782347  0  0  -0.079196  0  4.032006  0  0  -0.081618  0  4.053199  0  0.041442  0  -0.0917  -0.077501  0  4.017314  0
C  C49  1  0.22208568  0.15796150  0.59965955  1  0  -0.068024  0  3.78236  0  0  -0.079134  0  4.032032  0  0  -0.081562  0  4.05322  0  0.041105  0  -0.091656  -0.07744  0  4.017345  0
C  C50  1  0.22208600  0.65797554  0.90034477  1  0  -0.067997  0  3.782138  0  0  -0.079139  0  4.031807  0  0  -0.081552  0  4.052991  0  0.04166  0  -0.091579  -0.077442  0  4.017116  0
C  C51  1  0.77789565  0.84202966  0.40035413  1  0  -0.068164  0  3.782509  0  0  -0.079326  0  4.032214  0  0  -0.081745  0  4.05339  0  0.04191  0  -0.091699  -0.077628  0  4.017522  0
C  C52  1  0.69096036  0.43738269  0.08986346  1  0  -0.115893  0  3.762183  0  0  -0.141408  0  4.01415  0  0  -0.14289  0  4.035155  0  -0.064472  0  -0.098929  -0.140114  0  3.999595  0
C  C53  1  0.30903316  0.06260870  0.58986130  1  0  -0.116022  0  3.762297  0  0  -0.141548  0  4.014246  0  0  -0.143032  0  4.035255  0  -0.064333  0  -0.099057  -0.140256  0  3.999694  0
C  C54  1  0.30903791  0.56262106  0.91014374  1  0  -0.116075  0  3.762329  0  0  -0.141612  0  4.014328  0  0  -0.143094  0  4.03533  0  -0.064392  0  -0.099081  -0.140321  0  3.999776  0
C  C55  1  0.69094480  0.93738079  0.41014878  1  0  -0.115792  0  3.762486  0  0  -0.141353  0  4.014444  0  0  -0.142833  0  4.035454  0  -0.064306  0  -0.098911  -0.140061  0  3.999887  0
C  C56  1  0.64152984  0.49542258  0.17189005  1  0  -0.020963  0  3.816893  0  0  0.000388  0  4.052038  0  0  -0.003022  0  4.075107  0  -0.026503  0  -0.009448  0.00254  0  4.036057  0
C  C57  1  0.35846816  0.00457049  0.67188861  1  0  -0.020946  0  3.817115  0  0  0.00044  0  4.052188  0  0  -0.002968  0  4.075257  0  -0.026674  0  -0.009346  0.002589  0  4.03621  0
C  C58  1  0.35847413  0.50458872  0.82811571  1  0  -0.020846  0  3.817142  0  0  0.000467  0  4.052244  0  0  -0.002944  0  4.075306  0  -0.027926  0  -0.009465  0.002623  0  4.036268  0
C  C59  1  0.64150858  0.99541313  0.32812003  1  0  -0.020903  0  3.817148  0  0  0.000471  0  4.052204  0  0  -0.002938  0  4.075281  0  -0.028115  0  -0.009406  0.002627  0  4.036221  0
C  C60  1  0.55354482  0.59691103  0.16218105  1  0  0.373662  0  3.724196  0  0  0.338714  0  3.996906  0  0  0.354792  0  4.010013  0  0.986837  0  0.236878  0.328267  0  3.988347  0
C  C61  1  0.44644999  0.90308244  0.66218249  1  0  0.373642  0  3.724352  0  0  0.338778  0  3.997021  0  0  0.354856  0  4.010128  0  0.986755  0  0.236957  0.328331  0  3.988463  0
C  C62  1  0.44644801  0.40310027  0.83781679  1  0  0.373524  0  3.724373  0  0  0.338706  0  3.996981  0  0  0.354788  0  4.010083  0  0.986871  0  0.236819  0.328256  0  3.988425  0
C  C63  1  0.55352901  0.09690286  0.33782183  1  0  0.373451  0  3.724493  0  0  0.338623  0  3.997092  0  0  0.354685  0  4.010222  0  0.986254  0  0.236742  0.328175  0  3.988532  0
C  C64  1  0.46583452  0.84605914  0.02470111  1  0  0.702826  0  3.93844  0  0  0.653274  0  4.240427  0  0  0.688875  0  4.231414  0  1.640736  0  0.236165  0.629136  0  4.248119  0
C  C65  1  0.53418597  0.65393768  0.52470903  1  0  0.702882  0  3.938191  0  0  0.653225  0  4.240367  0  0  0.688801  0  4.231406  0  1.641248  0  0.236206  0.629096  0  4.24804  0
C  C66  1  0.53416364  0.15393874  0.97528737  1  0  0.703021  0  3.937948  0  0  0.653221  0  4.240344  0  0  0.68882  0  4.231335  0  1.640398  0  0.236129  0.629081  0  4.248034  0
C  C67  1  0.46583789  0.34606440  0.47528881  1  0  0.703094  0  3.93795  0  0  0.653357  0  4.240231  0  0  0.688958  0  4.231217  0  1.64028  0  0.236181  0.629219  0  4.247926  0
C  C68  1  0.47407961  0.75897498  0.10057510  1  0  0.012128  0  3.670318  0  0  2e-06  0  3.929496  0  0  -0.002338  0  3.947924  0  0.381468  0  0.0969  0.001735  0  3.916364  0
C  C69  1  0.52592747  0.74101932  0.60058230  1  0  0.012126  0  3.670166  0  0  5.3e-05  0  3.929499  0  0  -0.002278  0  3.947939  0  0.381685  0  0.096927  0.001779  0  3.916362  0
C  C70  1  0.52591185  0.24102206  0.89941195  1  0  0.012161  0  3.670019  0  0  4.3e-05  0  3.929325  0  0  -0.002292  0  3.947758  0  0.382383  0  0.096917  0.001775  0  3.916192  0
C  C71  1  0.47407628  0.25897940  0.39941411  1  0  0.011988  0  3.67017  0  0  -7.5e-05  0  3.929432  0  0  -0.002417  0  3.947864  0  0.382148  0  0.096939  0.001654  0  3.916297  0
C  C72  1  0.40846102  0.73926880  0.18997790  1  0  0.007537  0  3.752299  0  0  0.002018  0  4.011307  0  0  0.000417  0  4.033468  0  0.453171  0  0.093344  0.002783  0  3.998336  0
C  C73  1  0.59154622  0.76073473  0.68998294  1  0  0.007618  0  3.752085  0  0  0.002044  0  4.011148  0  0  0.000446  0  4.033306  0  0.453008  0  0.093271  0.002822  0  3.998155  0
C  C74  1  0.59153848  0.26074166  0.81001274  1  0  0.007255  0  3.752241  0  0  0.001899  0  4.011051  0  0  0.000296  0  4.033205  0  0.453064  0  0.09329  0.002667  0  3.998068  0
C  C75  1  0.40844858  0.23926231  0.31001778  1  0  0.007687  0  3.752247  0  0  0.002242  0  4.011182  0  0  0.000643  0  4.033331  0  0.45315  0  0.093416  0.003024  0  3.998185  0
C  C76  1  0.30814028  0.80783867  0.25122829  1  0  0.715624  0  3.895624  0  0  0.667844  0  4.19145  0  0  0.703978  0  4.180279  0  1.634883  0  0.234785  0.643264  0  4.200668  0
C  C77  1  0.69186469  0.69216234  0.75123189  1  0  0.715321  0  3.896089  0  0  0.6676  0  4.191851  0  0  0.703719  0  4.180706  0  1.634541  0  0.234797  0.643021  0  4.201056  0
C  C78  1  0.69184906  0.19216424  0.74875803  1  0  0.715401  0  3.895934  0  0  0.667626  0  4.19168  0  0  0.703765  0  4.180501  0  1.633965  0  0.234807  0.643053  0  4.200882  0
C  C79  1  0.30814574  0.30783638  0.24875947  1  0  0.715327  0  3.895886  0  0  0.667485  0  4.191784  0  0  0.703628  0  4.1806  0  1.633839  0  0.234763  0.642898  0  4.200997  0
C  C80  1  0.98813246  0.94317757  0.02732612  1  0  0.555672  0  3.946464  0  0  0.516601  0  4.23938  0  0  0.54541  0  4.236888  0  1.600396  0  0.215489  0.496708  0  4.244313  0
C  C81  1  0.01187039  0.55682932  0.52731892  1  0  0.555584  0  3.946522  0  0  0.516485  0  4.239462  0  0  0.545303  0  4.236968  0  1.60019  0  0.215411  0.496592  0  4.244396  0
C  C82  1  0.01183781  0.05681779  0.97267172  1  0  0.556044  0  3.946567  0  0  0.516983  0  4.239457  0  0  0.545787  0  4.236966  0  1.58229  0  0.215515  0.497088  0  4.244394  0
C  C83  1  0.98817266  0.44318702  0.47267892  1  0  0.555786  0  3.946532  0  0  0.51675  0  4.239418  0  0  0.545534  0  4.236961  0  1.582675  0  0.215533  0.496855  0  4.244354  0
N  N84  1  0.45610302  0.63806386  0.22591969  1  0  -0.51933  0  3.126405  0  0  -0.478119  0  3.402865  0  0  -0.498991  0  3.418213  0  -1.201666  0  -0.382761  -0.467831  0  3.393391  0
N  N85  1  0.54389529  0.86193799  0.72592185  1  0  -0.519326  0  3.126362  0  0  -0.478092  0  3.402785  0  0  -0.498965  0  3.418148  0  -1.201964  0  -0.382757  -0.467808  0  3.393305  0
N  N86  1  0.54389657  0.36195164  0.77408031  1  0  -0.519061  0  3.126235  0  0  -0.477917  0  3.402568  0  0  -0.498781  0  3.417916  0  -1.201752  0  -0.382561  -0.467632  0  3.393093  0
N  N87  1  0.45608606  0.13805401  0.27408319  1  0  -0.519205  0  3.126411  0  0  -0.478039  0  3.4028  0  0  -0.498894  0  3.418146  0  -1.201473  0  -0.38263  -0.467756  0  3.393322  0
N  N88  1  0.56404519  0.66800310  0.08557146  1  0  -0.334156  0  3.404599  0  0  -0.280482  0  3.639904  0  0  -0.295321  0  3.651413  0  -1.278262  0  -0.363254  -0.270302  0  3.631411  0
N  N89  1  0.43595739  0.83198869  0.58557506  1  0  -0.334154  0  3.404675  0  0  -0.280696  0  3.640106  0  0  -0.295542  0  3.651618  0  -1.277865  0  -0.363327  -0.270516  0  3.631615  0
N  N90  1  0.43594186  0.33199646  0.91441918  1  0  -0.334099  0  3.404315  0  0  -0.28054  0  3.639679  0  0  -0.295388  0  3.651196  0  -1.27822  0  -0.363206  -0.270355  0  3.631183  0
N  N91  1  0.56403844  0.16800332  0.41442422  1  0  -0.334153  0  3.404588  0  0  -0.280593  0  3.639977  0  0  -0.295428  0  3.651492  0  -1.277433  0  -0.363282  -0.270411  0  3.631485  0
O  O92  1  0.55249597  0.83056780  0.95344087  1  0  -0.731898  0  2.022409  0  0  -0.685285  0  2.281745  0  0  -0.715734  0  2.266977  0  -1.2014  0  -0.408284  -0.668598  0  2.289931  0
O  O93  1  0.44752001  0.66942566  0.45344806  1  0  -0.731915  0  2.022194  0  0  -0.685258  0  2.281585  0  0  -0.715709  0  2.266832  0  -1.201917  0  -0.408286  -0.668573  0  2.289759  0
O  O94  1  0.44750444  0.16943092  0.04654906  1  0  -0.731971  0  2.022144  0  0  -0.685245  0  2.281539  0  0  -0.715693  0  2.26677  0  -1.201201  0  -0.408243  -0.668573  0  2.289756  0
O  O95  1  0.55250502  0.33057977  0.54654330  1  0  -0.731994  0  2.022221  0  0  -0.685333  0  2.281679  0  0  -0.715784  0  2.266907  0  -1.201388  0  -0.408251  -0.668645  0  2.28986  0
O  O96  1  0.37586845  0.92605062  0.03283885  1  0  -0.727434  0  2.062063  0  0  -0.676684  0  2.317834  0  0  -0.708006  0  2.304569  0  -1.190219  0  -0.396813  -0.65966  0  2.325195  0
O  O97  1  0.62414984  0.57394788  0.53284461  1  0  -0.727496  0  2.061998  0  0  -0.676694  0  2.317827  0  0  -0.708006  0  2.30457  0  -1.190546  0  -0.396879  -0.659678  0  2.325189  0
O  O98  1  0.62412521  0.07394475  0.96714675  1  0  -0.727472  0  2.061913  0  0  -0.676642  0  2.317837  0  0  -0.707962  0  2.304568  0  -1.190672  0  -0.396778  -0.659619  0  2.325202  0
O  O99  1  0.37587189  0.42606007  0.46715323  1  0  -0.727572  0  2.061816  0  0  -0.67674  0  2.317667  0  0  -0.708067  0  2.304393  0  -1.19039  0  -0.396876  -0.659719  0  2.325032  0
O  O100  1  0.31232266  0.91361158  0.24311503  1  0  -0.74553  0  2.085798  0  0  -0.696373  0  2.347539  0  0  -0.727814  0  2.331554  0  -1.224167  0  -0.424257  -0.678866  0  2.356296  0
O  O101  1  0.68768905  0.58639195  0.74311143  1  0  -0.745451  0  2.085956  0  0  -0.696298  0  2.34766  0  0  -0.727734  0  2.331681  0  -1.224108  0  -0.424294  -0.678794  0  2.356416  0
O  O102  1  0.68766676  0.08639552  0.75688353  1  0  -0.745355  0  2.085982  0  0  -0.696191  0  2.347673  0  0  -0.727634  0  2.331686  0  -1.22402  0  -0.424229  -0.678687  0  2.356423  0
O  O103  1  0.31232802  0.41360425  0.25687778  1  0  -0.745352  0  2.085971  0  0  -0.69614  0  2.34767  0  0  -0.72759  0  2.331681  0  -1.22413  0  -0.424134  -0.678634  0  2.356427  0
O  O104  1  0.22798828  0.75553181  0.31213966  1  0  -0.697009  0  1.961598  0  0  -0.651621  0  2.205181  0  0  -0.679546  0  2.187964  0  -1.187225  0  -0.392857  -0.636022  0  2.215158  0
O  O105  1  0.77201667  0.74446753  0.81214614  1  0  -0.696842  0  1.961803  0  0  -0.651464  0  2.20533  0  0  -0.679381  0  2.188128  0  -1.187055  0  -0.392829  -0.635866  0  2.215302  0
O  O106  1  0.77200672  0.24447613  0.68784810  1  0  -0.696973  0  1.96167  0  0  -0.651611  0  2.205241  0  0  -0.679536  0  2.188022  0  -1.18668  0  -0.392967  -0.636016  0  2.215214  0
O  O107  1  0.22799361  0.25552280  0.18784450  1  0  -0.696934  0  1.961572  0  0  -0.651538  0  2.205174  0  0  -0.679462  0  2.187956  0  -1.186581  0  -0.392993  -0.635933  0  2.21515  0
O  O108  1  0.94279440  0.92696237  0.73410853  1  0  -0.864898  0  1.836998  0  0  -0.823756  0  2.015084  0  0  -0.845607  0  1.98423  0  -1.223117  0  -0.590474  -0.812316  0  2.033678  0
O  O109  1  0.05719853  0.57305039  0.23411860  1  0  -0.864976  0  1.836921  0  0  -0.823837  0  2.014998  0  0  -0.8457  0  1.984148  0  -1.223424  0  -0.590567  -0.812399  0  2.03359  0
O  O110  1  0.05720066  0.07304893  0.26588499  1  0  -0.864978  0  1.836985  0  0  -0.823824  0  2.014992  0  0  -0.845684  0  1.984154  0  -1.223177  0  -0.590556  -0.812384  0  2.033587  0
O  O111  1  0.94280534  0.42695504  0.76588715  1  0  -0.864922  0  1.837044  0  0  -0.823767  0  2.015063  0  0  -0.845627  0  1.984216  0  -1.2232  0  -0.590557  -0.812328  0  2.033658  0
O  O112  1  0.88881616  0.87674154  0.99434404  1  0  -0.672278  0  2.002863  0  0  -0.627726  0  2.242464  0  0  -0.655303  0  2.228327  0  -1.190711  0  -0.390896  -0.612687  0  2.250555  0
O  O113  1  0.11120007  0.62326618  0.49434548  1  0  -0.672174  0  2.002489  0  0  -0.627609  0  2.242092  0  0  -0.655192  0  2.227948  0  -1.190688  0  -0.390807  -0.612566  0  2.250177  0
O  O114  1  0.11115420  0.12325886  0.00564949  1  0  -0.672537  0  2.003015  0  0  -0.628016  0  2.242635  0  0  -0.655585  0  2.228483  0  -1.191539  0  -0.390965  -0.612973  0  2.25073  0
O  O115  1  0.88887417  0.37675015  0.50565380  1  0  -0.672282  0  2.003403  0  0  -0.627736  0  2.242971  0  0  -0.655298  0  2.228836  0  -1.191875  0  -0.390899  -0.612697  0  2.251062  0
O  O116  1  0.06853765  0.92587783  0.10017346  1  0  -0.653333  0  2.045549  0  0  -0.606793  0  2.283981  0  0  -0.634671  0  2.274407  0  -1.178552  0  -0.376415  -0.590824  0  2.289186  0
O  O117  1  0.93147620  0.57412151  0.60016483  1  0  -0.653276  0  2.045781  0  0  -0.606737  0  2.284234  0  0  -0.634616  0  2.274655  0  -1.178408  0  -0.376455  -0.590771  0  2.289439  0
O  O118  1  0.93143355  0.07410747  0.89982294  1  0  -0.653324  0  2.045601  0  0  -0.60678  0  2.284029  0  0  -0.634659  0  2.27446  0  -1.178905  0  -0.376343  -0.590809  0  2.289232  0
O  O119  1  0.06857454  0.42588896  0.39981646  1  0  -0.653406  0  2.044949  0  0  -0.606876  0  2.283375  0  0  -0.634757  0  2.273814  0  -1.179132  0  -0.376443  -0.590901  0  2.288575  0
