# generated using pymatgen
data_Co2H18C24N4O9
_symmetry_space_group_name_H-M   'P 1'
_cell_length_a   10.40876404
_cell_length_b   11.45329173
_cell_length_c   13.95391672
_cell_angle_alpha   106.08301857
_cell_angle_beta   103.17050220
_cell_angle_gamma   111.53372324
_symmetry_Int_Tables_number   1
_chemical_formula_structural   Co2H18C24N4O9
_chemical_formula_sum   'Co4 H36 C48 N8 O18'
_cell_volume   1382.09325175
_cell_formula_units_Z   2
loop_
 _symmetry_equiv_pos_site_id
 _symmetry_equiv_pos_as_xyz
  1  'x, y, z'
loop_
 _atom_site_type_symbol
 _atom_site_label
 _atom_site_symmetry_multiplicity
 _atom_site_fract_x
 _atom_site_fract_y
 _atom_site_fract_z
 _atom_site_occupancy
 _atom_site_pbe_bader_charge
 _atom_site_pbe_bader_spin_density
 _atom_site_pbe_cm5_charge
 _atom_site_pbe_ddec_charge
 _atom_site_pbe_ddec_spin_density
 _atom_site_pbe_ddec_sum_bond_order
 _atom_site_pbe_magmom
Co  Co0  1  0.81063810  0.50453820  0.78307226  1  1.276033  2.558827  0.661829  0.882466  2.770825  2.462077  2.543
Co  Co1  1  0.55136966  0.77031457  0.30812025  1  1.181157  1.027207  0.641666  0.763372  1.110472  2.83784  1.019
Co  Co2  1  0.18935733  0.49544916  0.21692609  1  1.275866  2.558823  0.661817  0.882454  2.770797  2.462087  2.542
Co  Co3  1  0.44864981  0.22969531  0.69188881  1  1.181023  1.027229  0.64165  0.76344  1.110491  2.837704  1.019
H  H4  1  0.88259820  0.82442318  0.40274198  1  0.086543  0.001859  0.116682  0.087632  0.000536  0.99896  0.001
H  H5  1  0.08106632  0.81039330  0.33336172  1  0.080762  0.001112  0.107259  0.11188  0.000424  1.020707  0.001
H  H6  1  0.02217313  0.72587578  0.13509102  1  0.132437  6.1e-05  0.112646  0.122549  -0.000156  1.006758  0.0
H  H7  1  0.57262979  0.65094661  0.09437326  1  0.162715  0.001989  0.118623  0.090417  0.000674  1.062224  0.001
H  H8  1  0.71264041  0.96160054  0.22412174  1  0.09631  -0.000202  0.120839  0.091544  -0.000421  1.004831  0.0
H  H9  1  0.84312959  0.21569123  0.28749060  1  0.095256  -0.000214  0.10212  0.10411  -0.000288  1.03474  0.0
H  H10  1  0.84453071  0.36134565  0.46239274  1  0.10873  1.1e-05  0.110012  0.112964  -0.000236  0.991509  0.0
H  H11  1  0.60733045  0.98777564  0.49587897  1  0.185606  4.7e-05  0.126921  0.107196  -0.000253  1.030564  0.0
H  H12  1  0.98181303  0.81477513  0.88137920  1  0.085199  0.001314  0.119016  0.094931  9.6e-05  0.991265  0.001
H  H13  1  0.00696534  0.00847998  0.82283129  1  0.083658  0.000857  0.103381  0.108175  0.000428  1.017498  0.0
H  H14  1  0.85530103  0.95181664  0.63209799  1  0.096878  -0.000301  0.106228  0.104332  -0.000513  1.026671  0.0
H  H15  1  0.68461056  0.52652934  0.57797205  1  0.138505  0.001839  0.121693  0.099611  0.000588  1.017395  0.001
H  H16  1  0.06365057  0.53223822  0.69302980  1  0.08207  0.001408  0.117555  0.088961  0.000189  1.001355  0.001
H  H17  1  0.33999946  0.61621222  0.77147856  1  0.097847  0.001151  0.112713  0.125241  0.000558  0.976042  0.0
H  H18  1  0.46482900  0.69994112  0.97024497  1  0.09657  -0.00016  0.11033  0.116172  -0.000369  1.016679  0.0
H  H19  1  0.03457548  0.60625778  0.99190810  1  0.13537  0.001887  0.117832  0.087809  0.000553  1.067625  0.002
H  H20  1  0.57310952  0.48794902  0.81379710  1  0.648689  1.3e-05  0.291423  0.370608  -0.000206  0.979453  0.0
H  H21  1  0.51016820  0.44677521  0.68025923  1  0.649926  0.00027  0.291485  0.37394  6e-05  0.977269  0.001
H  H22  1  0.11741681  0.17558354  0.59727276  1  0.08677  0.00186  0.116706  0.087765  0.000537  0.999015  0.001
H  H23  1  0.91894286  0.18962164  0.66664898  1  0.080731  0.001112  0.1072  0.111796  0.000424  1.020634  0.001
H  H24  1  0.97783106  0.27413506  0.86491860  1  0.132114  6.1e-05  0.112653  0.1226  -0.000156  1.006732  0.0
H  H25  1  0.42738771  0.34906324  0.90563762  1  0.162659  0.001989  0.118576  0.090311  0.000675  1.062196  0.001
H  H26  1  0.28734489  0.03840424  0.77587330  1  0.096449  -0.000202  0.120766  0.091452  -0.000421  1.004726  0.0
H  H27  1  0.15680471  0.78430851  0.71247764  1  0.094711  -0.000213  0.102216  0.104241  -0.000288  1.034611  0.0
H  H28  1  0.15539696  0.63864082  0.53756841  1  0.108582  1e-05  0.10994  0.112913  -0.000236  0.991524  0.0
H  H29  1  0.39270216  0.01222100  0.50412771  1  0.185536  4.6e-05  0.126889  0.10717  -0.000253  1.030534  0.0
H  H30  1  0.01819799  0.18526543  0.11863281  1  0.084951  0.001315  0.119049  0.09495  9.6e-05  0.9913  0.001
H  H31  1  0.99300661  0.99152373  0.17716201  1  0.084376  0.000856  0.103398  0.108256  0.000427  1.017433  0.0
H  H32  1  0.14468003  0.04816551  0.36790249  1  0.096873  -0.000301  0.106226  0.104362  -0.000512  1.026793  0.0
H  H33  1  0.31538185  0.47345606  0.42201674  1  0.138694  0.001839  0.121692  0.099724  0.000588  1.017478  0.001
H  H34  1  0.93636779  0.46776566  0.30696547  1  0.081727  0.001407  0.117551  0.088874  0.000188  1.001512  0.001
H  H35  1  0.66002258  0.38380266  0.22854142  1  0.097882  0.001151  0.112719  0.125363  0.000558  0.97593  0.0
H  H36  1  0.53516859  0.30005422  0.02977354  1  0.096618  -0.00016  0.110323  0.116185  -0.00037  1.016588  0.0
H  H37  1  0.96544642  0.39374901  0.00810279  1  0.135872  0.001887  0.117826  0.087707  0.000553  1.067687  0.002
H  H38  1  0.42691032  0.51208750  0.18621184  1  0.648383  1.2e-05  0.291437  0.370637  -0.000206  0.97948  0.0
H  H39  1  0.48985361  0.55322548  0.31974805  1  0.649797  0.000269  0.291518  0.373985  6e-05  0.977049  0.001
C  C40  1  0.86017749  0.78406270  0.31688204  1  0.4891  -0.003887  0.046302  0.082683  -0.004602  3.946803  -0.002
C  C41  1  0.97037966  0.77790939  0.27781373  1  -0.055107  0.004876  -0.08512  -0.129857  0.002356  3.982768  0.004
C  C42  1  0.93744563  0.73062306  0.16736465  1  -0.058941  -0.006596  -0.061345  -0.041522  -0.007082  3.910176  -0.004
C  C43  1  0.79234208  0.68641679  0.09930598  1  0.006135  0.007874  -0.016771  -0.089784  0.004194  3.975282  0.006
C  C44  1  0.68739473  0.69035562  0.14539937  1  0.477904  -0.001363  0.051695  0.078359  -0.002235  3.911063  -0.001
C  C45  1  0.74234880  0.62997122  0.97891747  1  1.588781  0.002553  0.210883  0.570456  0.001308  4.209833  0.002
C  C46  1  0.72079521  0.02794154  0.30052157  1  0.37407  -0.013228  0.04436  0.077262  -0.014207  3.916545  -0.008
C  C47  1  0.79171325  0.16976537  0.33631935  1  0.02312  0.002811  -0.090699  -0.1384  0.000719  4.018906  0.002
C  C48  1  0.79323279  0.25002474  0.43259685  1  -0.005582  -0.01422  -0.069032  -0.056216  -0.015044  3.945744  -0.008
C  C49  1  0.72349337  0.18431108  0.49076885  1  -0.063212  0.012085  -0.014242  -0.076926  0.006106  3.967307  0.009
C  C50  1  0.66024817  0.04197813  0.45206747  1  0.474246  -0.010303  0.054759  0.074062  -0.011016  3.86193  -0.007
C  C51  1  0.70691920  0.25984697  0.59074806  1  1.610139  0.002698  0.21015  0.574569  0.001626  4.20808  0.001
C  C52  1  0.92148409  0.79632405  0.79939897  1  0.461621  -0.015448  0.045129  0.08638  -0.016726  3.942984  -0.009
C  C53  1  0.93373953  0.90277035  0.76639006  1  -0.050535  0.006643  -0.088005  -0.133531  0.002923  4.002614  0.006
C  C54  1  0.85066855  0.87189485  0.66100220  1  -0.005592  -0.019949  -0.066754  -0.050491  -0.021049  3.942233  -0.012
C  C55  1  0.75903657  0.73469638  0.59137326  1  0.019411  0.006088  -0.012793  -0.075364  0.002652  3.96772  0.006
C  C56  1  0.75461977  0.63403708  0.63047621  1  0.484946  -0.012242  0.056124  0.090963  -0.012902  3.88221  -0.008
C  C57  1  0.66330584  0.69162186  0.47758093  1  1.557289  -0.005976  0.214328  0.562795  -0.007304  4.174901  -0.005
C  C58  1  0.12392746  0.57253561  0.77927380  1  0.437473  -0.013665  0.045079  0.079376  -0.014892  3.960084  -0.009
C  C59  1  0.27662022  0.61887852  0.82372783  1  0.046766  0.007452  -0.08267  -0.125871  0.003516  3.970555  0.006
C  C60  1  0.34612457  0.66574049  0.93468061  1  -0.078516  -0.018017  -0.062498  -0.043811  -0.019047  3.916242  -0.011
C  C61  1  0.25831773  0.66026076  0.99748389  1  0.037915  0.009934  -0.015745  -0.083015  0.004625  3.964983  0.009
C  C62  1  0.10627375  0.61222820  0.94604274  1  0.493966  -0.010667  0.049035  0.076511  -0.011155  3.911845  -0.007
C  C63  1  0.31232817  0.69003800  0.11507333  1  1.549167  -1e-05  0.219356  0.579481  -0.00162  4.136187  0.0
C  C64  1  0.13983450  0.21593992  0.68313196  1  0.489209  -0.003891  0.046294  0.082567  -0.004603  3.947007  -0.002
C  C65  1  0.02963743  0.22210553  0.72220186  1  -0.054768  0.004878  -0.08496  -0.129571  0.002357  3.982815  0.004
C  C66  1  0.06255511  0.26938880  0.83264321  1  -0.058831  -0.006599  -0.061368  -0.041677  -0.007084  3.910508  -0.004
C  C67  1  0.20766141  0.31358292  0.90069016  1  0.006379  0.007874  -0.0168  -0.089857  0.004194  3.97537  0.006
C  C68  1  0.31261366  0.30963994  0.85460306  1  0.477716  -0.001366  0.051824  0.078648  -0.002238  3.910815  -0.001
C  C69  1  0.25764928  0.37002949  0.02107872  1  1.588514  0.00255  0.210976  0.570525  0.001306  4.209787  0.002
C  C70  1  0.27918908  0.97206328  0.69946902  1  0.374407  -0.013224  0.044492  0.077573  -0.014202  3.916671  -0.008
C  C71  1  0.20825416  0.83023545  0.66365604  1  0.023628  0.002809  -0.090908  -0.138789  0.000717  4.019336  0.002
C  C72  1  0.20672854  0.74996583  0.56737727  1  -0.006343  -0.014219  -0.068895  -0.056127  -0.015042  3.945614  -0.008
C  C73  1  0.27648885  0.81568764  0.50921638  1  -0.062823  0.012085  -0.014161  -0.076627  0.006106  3.967003  0.009
C  C74  1  0.33972661  0.95801745  0.54792081  1  0.474651  -0.010298  0.054791  0.074093  -0.011011  3.862075  -0.007
C  C75  1  0.29309220  0.74015487  0.40924415  1  1.609767  0.002705  0.210028  0.574547  0.001632  4.208161  0.001
C  C76  1  0.07851306  0.20367858  0.20060899  1  0.461714  -0.015443  0.045149  0.086348  -0.016718  3.942921  -0.009
C  C77  1  0.06624669  0.09722821  0.23361084  1  -0.051214  0.006642  -0.088052  -0.133736  0.002922  4.002527  0.006
C  C78  1  0.14931894  0.12808834  0.33899887  1  -0.006044  -0.019949  -0.066811  -0.050394  -0.021048  3.942214  -0.012
C  C79  1  0.24096171  0.26528281  0.40862364  1  0.019941  0.006092  -0.012685  -0.075331  0.002654  3.967473  0.006
C  C80  1  0.24538212  0.36595338  0.36952179  1  0.485172  -0.012245  0.056116  0.090775  -0.012907  3.882313  -0.008
C  C81  1  0.33669112  0.30836857  0.52241769  1  1.557154  -0.005974  0.21433  0.562881  -0.007302  4.174935  -0.005
C  C82  1  0.87607655  0.42746509  0.22072553  1  0.437276  -0.01367  0.045117  0.079565  -0.014898  3.960138  -0.009
C  C83  1  0.72338925  0.38112104  0.17628360  1  0.046801  0.007453  -0.082643  -0.126008  0.003517  3.970668  0.006
C  C84  1  0.65387735  0.33424986  0.06532668  1  -0.07838  -0.018032  -0.062565  -0.043838  -0.019063  3.916132  -0.011
C  C85  1  0.74168419  0.33972959  0.00252412  1  0.037801  0.009937  -0.015666  -0.083069  0.004627  3.964669  0.009
C  C86  1  0.89373812  0.38776838  0.05396121  1  0.493647  -0.010678  0.049066  0.076788  -0.011167  3.911565  -0.007
C  C87  1  0.68768069  0.30995443  0.88493417  1  1.54923  -2.1e-05  0.219309  0.579361  -0.001627  4.136137  0.0
N  N88  1  0.71986394  0.74081522  0.25177037  1  -1.230608  0.071809  -0.317742  -0.239353  0.037831  3.549248  0.063
N  N89  1  0.65667417  0.96443697  0.35807263  1  -1.178199  -0.012282  -0.335241  -0.171729  -0.01158  3.64154  -0.007
N  N90  1  0.83323446  0.66364056  0.73246704  1  -1.225975  0.060948  -0.328303  -0.249125  0.032652  3.589629  0.053
N  N91  1  0.03981197  0.57156269  0.84002432  1  -1.232993  0.059049  -0.328654  -0.247461  0.031299  3.600023  0.053
N  N92  1  0.28014192  0.25917520  0.74823257  1  -1.231126  0.071814  -0.317882  -0.239561  0.037832  3.549231  0.063
N  N93  1  0.34330562  0.03556270  0.64191816  1  -1.178395  -0.012281  -0.335259  -0.172002  -0.011577  3.642005  -0.007
N  N94  1  0.16677755  0.33636415  0.26754386  1  -1.226081  0.060939  -0.328386  -0.249098  0.03265  3.589908  0.053
N  N95  1  0.96019997  0.42844009  0.15997609  1  -1.233041  0.059052  -0.328754  -0.24769  0.031302  3.600112  0.053
O  O96  1  0.84156230  0.63857031  0.93826737  1  -1.177338  0.056161  -0.311592  -0.570314  0.029338  2.373456  0.047
O  O97  1  0.60354548  0.57542023  0.92576910  1  -1.178155  0.003143  -0.305782  -0.522014  0.001132  2.212557  0.003
O  O98  1  0.79039630  0.39005213  0.63509952  1  -1.173561  0.08051  -0.318105  -0.56981  0.041526  2.375928  0.068
O  O99  1  0.61343143  0.19055907  0.62173480  1  -1.155405  0.05234  -0.2909  -0.529391  0.026944  2.324603  0.044
O  O100  1  0.65915193  0.78895713  0.45017554  1  -1.11507  0.005185  -0.300161  -0.519975  0.002738  2.440778  0.006
O  O101  1  0.59373118  0.56500375  0.41755964  1  -1.172325  -0.002004  -0.313241  -0.524059  -0.002377  2.170093  -0.001
O  O102  1  0.21409438  0.64002747  0.15192664  1  -1.160837  0.055106  -0.305396  -0.543021  0.028274  2.395136  0.045
O  O103  1  0.45292772  0.75960531  0.16790401  1  -1.106938  0.018116  -0.291245  -0.497662  0.008646  2.437229  0.017
O  O104  1  0.57040035  0.42886347  0.74064857  1  -1.227089  0.035522  -0.545361  -0.748064  0.019491  2.463528  0.031
O  O105  1  0.15841464  0.36140594  0.06170883  1  -1.176937  0.056141  -0.311645  -0.570329  0.029334  2.373381  0.047
O  O106  1  0.39645627  0.42459585  0.07422917  1  -1.178162  0.003139  -0.305878  -0.522158  0.00113  2.212469  0.003
O  O107  1  0.20963382  0.60994350  0.36490508  1  -1.173913  0.080535  -0.318033  -0.569771  0.041535  2.375957  0.068
O  O108  1  0.38656893  0.80943264  0.37824245  1  -1.154866  0.052343  -0.290852  -0.529477  0.026947  2.32487  0.044
O  O109  1  0.34083537  0.21104543  0.54983436  1  -1.115107  0.005176  -0.300287  -0.520101  0.002734  2.440903  0.006
O  O110  1  0.40628202  0.43498583  0.58242999  1  -1.17237  -0.002003  -0.31318  -0.524053  -0.002376  2.170177  -0.001
O  O111  1  0.78591697  0.35996598  0.84808223  1  -1.160719  0.055105  -0.305438  -0.54301  0.028267  2.394988  0.045
O  O112  1  0.54708360  0.24038823  0.83209699  1  -1.106997  0.018106  -0.291186  -0.497535  0.008642  2.437214  0.017
O  O113  1  0.42962365  0.57115151  0.25936387  1  -1.226837  0.035507  -0.54541  -0.748085  0.019485  2.463393  0.031
