# generated using pymatgen
data_HgH8C12I2N4O
_symmetry_space_group_name_H-M   'P 1'
_cell_length_a   5.27095048
_cell_length_b   17.09983459
_cell_length_c   20.40690000
_cell_angle_alpha   103.00182319
_cell_angle_beta   90.00000000
_cell_angle_gamma   90.00000000
_symmetry_Int_Tables_number   1
_chemical_formula_structural   HgH8C12I2N4O
_chemical_formula_sum   'Hg4 H32 C48 I8 N16 O4'
_cell_volume   1792.16760921
_cell_formula_units_Z   4
loop_
 _symmetry_equiv_pos_site_id
 _symmetry_equiv_pos_as_xyz
  1  'x, y, z'
loop_
 _atom_site_type_symbol
 _atom_site_label
 _atom_site_symmetry_multiplicity
 _atom_site_fract_x
 _atom_site_fract_y
 _atom_site_fract_z
 _atom_site_occupancy
 _atom_site_hle17_bader_spin_density
 _atom_site_hle17_ddec_charge
 _atom_site_hle17_ddec_spin_density
 _atom_site_hle17_ddec_sum_bond_order
 _atom_site_hle17_magmom
 _atom_site_hse06_10hf_bader_spin_density
 _atom_site_hse06_10hf_ddec_charge
 _atom_site_hse06_10hf_ddec_spin_density
 _atom_site_hse06_10hf_ddec_sum_bond_order
 _atom_site_hse06_10hf_magmom
 _atom_site_hse06_bader_spin_density
 _atom_site_hse06_ddec_charge
 _atom_site_hse06_ddec_spin_density
 _atom_site_hse06_ddec_sum_bond_order
 _atom_site_hse06_magmom
 _atom_site_pbe_bader_charge
 _atom_site_pbe_bader_spin_density
 _atom_site_pbe_cm5_charge
 _atom_site_pbe_ddec_charge
 _atom_site_pbe_ddec_spin_density
 _atom_site_pbe_ddec_sum_bond_order
 _atom_site_pbe_magmom
Hg  Hg0  1  0.42037769  0.74999980  0.75000006  1  0  0.549379  0  2.118488  0  0  0.416016  0  2.60052  0  0  0.458785  0  2.579012  0  0.51259  0  0.386605  0.387487  0  2.614498  0
Hg  Hg1  1  0.57961842  0.25000113  0.25000090  1  0  0.549381  0  2.118488  0  0  0.416023  0  2.60053  0  0  0.458792  0  2.579022  0  0.512526  0  0.386621  0.387491  0  2.614511  0
Hg  Hg2  1  0.52650656  0.75000040  0.25000017  1  0  0.534626  0  2.099861  0  0  0.40269  0  2.580576  0  0  0.4458  0  2.558164  0  0.498706  0  0.375621  0.373943  0  2.59528  0
Hg  Hg3  1  0.47349904  0.25000053  0.74999834  1  0  0.534585  0  2.099894  0  0  0.402633  0  2.580618  0  0  0.445738  0  2.558217  0  0.498684  0  0.3756  0.373882  0  2.595324  0
H  H4  1  0.78324394  0.68453909  0.61299162  1  0  0.0722  0  0.96397  0  0  0.076106  0  1.03503  0  0  0.079573  0  1.031504  0  0.107772  0  0.097873  0.073597  0  1.037595  0
H  H5  1  0.78323445  0.81545991  0.88700594  1  0  0.072121  0  0.964016  0  0  0.076028  0  1.035092  0  0  0.0795  0  1.031556  0  0.107899  0  0.097854  0.073519  0  1.037658  0
H  H6  1  0.21676356  0.31545884  0.38701025  1  0  0.072211  0  0.963978  0  0  0.076117  0  1.035034  0  0  0.079584  0  1.031507  0  0.107943  0  0.097906  0.073609  0  1.0376  0
H  H7  1  0.21675597  0.18453862  0.11299065  1  0  0.0722  0  0.963979  0  0  0.076124  0  1.035022  0  0  0.079592  0  1.031499  0  0.107754  0  0.097883  0.073615  0  1.037588  0
H  H8  1  0.14312030  0.72326382  0.54652342  1  0  0.117207  0  0.933747  0  0  0.127698  0  0.989953  0  0  0.131473  0  0.988238  0  0.096657  0  0.110251  0.125067  0  0.991245  0
H  H9  1  0.14311271  0.77673877  0.95347629  1  0  0.117225  0  0.933755  0  0  0.127733  0  0.989945  0  0  0.131509  0  0.988229  0  0.09722  0  0.110242  0.125103  0  0.991232  0
H  H10  1  0.85688151  0.27673711  0.45347754  1  0  0.117238  0  0.933718  0  0  0.127735  0  0.989922  0  0  0.131511  0  0.988205  0  0.096652  0  0.110258  0.125102  0  0.991215  0
H  H11  1  0.85687961  0.22326456  0.04652316  1  0  0.117221  0  0.933745  0  0  0.127708  0  0.98996  0  0  0.131485  0  0.988244  0  0.096618  0  0.110245  0.125078  0  0.991251  0
H  H12  1  0.08538119  0.96408868  0.67074762  1  0  0.119047  0  0.954585  0  0  0.12758  0  1.017927  0  0  0.131264  0  1.016072  0  0.135874  0  0.104177  0.12493  0  1.01941  0
H  H13  1  0.08538308  0.53591452  0.82925171  1  0  0.119079  0  0.954614  0  0  0.127619  0  1.017953  0  0  0.13133  0  1.016086  0  0.135937  0  0.104184  0.12497  0  1.019434  0
H  H14  1  0.91461872  0.03591165  0.32925274  1  0  0.119034  0  0.954594  0  0  0.127532  0  1.01797  0  0  0.131247  0  1.016087  0  0.135862  0  0.104173  0.124885  0  1.019448  0
H  H15  1  0.91462062  0.46408701  0.17075230  1  0  0.119057  0  0.954577  0  0  0.127598  0  1.017895  0  0  0.131323  0  1.015996  0  0.13582  0  0.104193  0.124943  0  1.019397  0
H  H16  1  0.72913225  0.91467159  0.73203202  1  0  0.075598  0  0.965981  0  0  0.079219  0  1.03924  0  0  0.082528  0  1.03608  0  0.118861  0  0.096901  0.076808  0  1.041592  0
H  H17  1  0.72913036  0.58532800  0.76796859  1  0  0.075593  0  0.966008  0  0  0.079217  0  1.039251  0  0  0.082526  0  1.036089  0  0.118778  0  0.096897  0.076801  0  1.041614  0
H  H18  1  0.27086955  0.08532814  0.26796920  1  0  0.075586  0  0.965957  0  0  0.079199  0  1.039229  0  0  0.08251  0  1.036065  0  0.118482  0  0.096889  0.076787  0  1.04158  0
H  H19  1  0.27086576  0.41466753  0.23203332  1  0  0.075591  0  0.966022  0  0  0.079249  0  1.03926  0  0  0.082544  0  1.036106  0  0.119112  0  0.096927  0.076829  0  1.041617  0
H  H20  1  0.10609472  0.67593599  0.34773881  1  0  0.071544  0  0.969717  0  0  0.07559  0  1.04019  0  0  0.078857  0  1.036979  0  0.11692  0  0.096652  0.073188  0  1.042622  0
H  H21  1  0.10610231  0.82406300  0.15226021  1  0  0.071564  0  0.969761  0  0  0.075619  0  1.04023  0  0  0.078887  0  1.037017  0  0.116928  0  0.096695  0.07322  0  1.042661  0
H  H22  1  0.89389760  0.32406074  0.65225939  1  0  0.071575  0  0.969762  0  0  0.075626  0  1.040233  0  0  0.078895  0  1.037018  0  0.116536  0  0.096681  0.073225  0  1.042667  0
H  H23  1  0.89390709  0.17593793  0.84774026  1  0  0.07161  0  0.969764  0  0  0.075648  0  1.040244  0  0  0.078921  0  1.037024  0  0.11641  0  0.096675  0.073227  0  1.042692  0
H  H24  1  0.76168426  0.71547398  0.43299227  1  0  0.117374  0  0.931147  0  0  0.127822  0  0.986799  0  0  0.131819  0  0.984826  0  0.091634  0  0.110217  0.125014  0  0.988309  0
H  H25  1  0.76168995  0.78452621  0.06700747  1  0  0.117265  0  0.931163  0  0  0.127691  0  0.986847  0  0  0.131687  0  0.984874  0  0.09166  0  0.110159  0.124883  0  0.988353  0
H  H26  1  0.23830427  0.28452335  0.56700507  1  0  0.117224  0  0.931278  0  0  0.127669  0  0.986932  0  0  0.131663  0  0.984965  0  0.09187  0  0.110172  0.124865  0  0.988432  0
H  H27  1  0.23832134  0.21547651  0.93299187  1  0  0.117306  0  0.93117  0  0  0.127712  0  0.98688  0  0  0.131709  0  0.984907  0  0.091663  0  0.110195  0.124904  0  0.98839  0
H  H28  1  0.96351503  0.96330003  0.44179839  1  0  0.116177  0  0.972577  0  0  0.117127  0  1.049713  0  0  0.121421  0  1.046616  0  0.163123  0  0.108493  0.114021  0  1.052119  0
H  H29  1  0.96351503  0.53670076  0.05820392  1  0  0.116157  0  0.9726  0  0  0.117107  0  1.049736  0  0  0.121412  0  1.04663  0  0.163143  0  0.108497  0.114002  0  1.05214  0
H  H30  1  0.03647919  0.03669790  0.55820250  1  0  0.116183  0  0.972553  0  0  0.117133  0  1.04968  0  0  0.121424  0  1.046587  0  0.163069  0  0.108506  0.114028  0  1.052083  0
H  H31  1  0.03648488  0.46330197  0.94179934  1  0  0.116203  0  0.972527  0  0  0.11715  0  1.049663  0  0  0.121446  0  1.046562  0  0.163056  0  0.108504  0.114045  0  1.052066  0
H  H32  1  0.29167415  0.91308830  0.35435432  1  0  0.078858  0  0.967712  0  0  0.083246  0  1.040014  0  0  0.086299  0  1.036977  0  0.138958  0  0.100168  0.081027  0  1.042248  0
H  H33  1  0.29166846  0.58691370  0.14564674  1  0  0.078846  0  0.967677  0  0  0.08322  0  1.040007  0  0  0.086274  0  1.036963  0  0.138884  0  0.100136  0.081  0  1.04224  0
H  H34  1  0.70832576  0.08691143  0.64564544  1  0  0.078945  0  0.967768  0  0  0.083319  0  1.040076  0  0  0.086381  0  1.037015  0  0.138834  0  0.100187  0.081094  0  1.042305  0
H  H35  1  0.70832766  0.41308903  0.85435553  1  0  0.078831  0  0.967678  0  0  0.083201  0  1.04002  0  0  0.086261  0  1.036961  0  0.138962  0  0.100142  0.080978  0  1.042251  0
C  C36  1  0.85539221  0.74600074  0.62362687  1  0  0.118026  0  3.739442  0  0  0.090378  0  3.995525  0  0  0.097078  0  4.012665  0  0.512295  0  0.034283  0.085981  0  3.98389  0
C  C37  1  0.85538652  0.75399945  0.87637091  1  0  0.118193  0  3.739418  0  0  0.090532  0  3.995514  0  0  0.097236  0  4.012646  0  0.51203  0  0.034356  0.086135  0  3.983879  0
C  C38  1  0.14461718  0.25399838  0.37637522  1  0  0.118104  0  3.73944  0  0  0.090458  0  3.995506  0  0  0.09716  0  4.012645  0  0.512267  0  0.03432  0.086061  0  3.983871  0
C  C39  1  0.14460770  0.24599908  0.12362715  1  0  0.118017  0  3.73952  0  0  0.090361  0  3.995584  0  0  0.097059  0  4.012729  0  0.512153  0  0.034297  0.085963  0  3.983951  0
C  C40  1  0.05441903  0.76777797  0.58651493  1  0  -0.141664  0  3.715668  0  0  -0.167408  0  3.972853  0  0  -0.173039  0  3.992004  0  0.025746  0  -0.08742  -0.163803  0  3.960049  0
C  C41  1  0.05441334  0.73222463  0.91348281  1  0  -0.141688  0  3.715637  0  0  -0.16742  0  3.972834  0  0  -0.173053  0  3.991988  0  0.025586  0  -0.087428  -0.163812  0  3.960027  0
C  C42  1  0.94558468  0.23222176  0.41348531  1  0  -0.141699  0  3.715673  0  0  -0.16745  0  3.97286  0  0  -0.173081  0  3.992008  0  0.025814  0  -0.08741  -0.163843  0  3.960054  0
C  C43  1  0.94558278  0.26777810  0.08651653  1  0  -0.141643  0  3.71568  0  0  -0.167405  0  3.972906  0  0  -0.17303  0  3.992038  0  0.025869  0  -0.08738  -0.163797  0  3.960097  0
C  C44  1  0.13954789  0.84748174  0.60280123  1  0  0.02164  0  3.811159  0  0  0.034328  0  4.052102  0  0  0.035198  0  4.073617  0  -0.034059  0  0.003738  0.033802  0  4.037589  0
C  C45  1  0.13954599  0.65252085  0.89719749  1  0  0.021717  0  3.811002  0  0  0.034338  0  4.052033  0  0  0.035208  0  4.073553  0  -0.034239  0  0.003874  0.033811  0  4.03752  0
C  C46  1  0.86045202  0.15251799  0.39719950  1  0  0.021712  0  3.811155  0  0  0.034388  0  4.052104  0  0  0.035257  0  4.073628  0  -0.034149  0  0.003783  0.033861  0  4.037591  0
C  C47  1  0.86045202  0.34748248  0.10280441  1  0  0.021673  0  3.811079  0  0  0.034343  0  4.052059  0  0  0.035214  0  4.073584  0  -0.034084  0  0.003741  0.033816  0  4.037546  0
C  C48  1  0.02177216  0.90195361  0.65597108  1  0  -0.113628  0  3.664901  0  0  -0.134034  0  3.908471  0  0  -0.139893  0  3.928759  0  0.005632  0  -0.075709  -0.130262  0  3.894975  0
C  C49  1  0.02177786  0.59804839  0.84402753  1  0  -0.113633  0  3.665043  0  0  -0.134044  0  3.908634  0  0  -0.139939  0  3.928899  0  0.005319  0  -0.075731  -0.130271  0  3.895136  0
C  C50  1  0.97823154  0.09804672  0.34402977  1  0  -0.1137  0  3.664984  0  0  -0.134077  0  3.908574  0  0  -0.139967  0  3.928844  0  0.005785  0  -0.075762  -0.130305  0  3.895077  0
C  C51  1  0.97822205  0.40195254  0.15597441  1  0  -0.113621  0  3.664892  0  0  -0.134019  0  3.908467  0  0  -0.139914  0  3.928732  0  0.005621  0  -0.075695  -0.130248  0  3.894965  0
C  C52  1  0.82536917  0.87455322  0.69019658  1  0  0.121342  0  3.720928  0  0  0.09249  0  3.976606  0  0  0.098743  0  3.994656  0  0.450649  0  0.037112  0.088376  0  3.964371  0
C  C53  1  0.82536727  0.62544637  0.80980304  1  0  0.121249  0  3.72101  0  0  0.092413  0  3.976666  0  0  0.098664  0  3.99473  0  0.450855  0  0.037072  0.088298  0  3.964428  0
C  C54  1  0.17463833  0.12544651  0.30980513  1  0  0.121362  0  3.720944  0  0  0.092525  0  3.976594  0  0  0.098775  0  3.994658  0  0.451003  0  0.03714  0.088414  0  3.964355  0
C  C55  1  0.17463264  0.37454976  0.19019652  1  0  0.121324  0  3.720957  0  0  0.092436  0  3.976621  0  0  0.098701  0  3.994693  0  0.450578  0  0.037068  0.088332  0  3.964371  0
C  C56  1  0.34695640  0.87544150  0.56743406  1  0  0.343311  0  3.689361  0  0  0.310787  0  3.970569  0  0  0.326157  0  3.979612  0  1.040737  0  0.223204  0.300568  0  3.964281  0
C  C57  1  0.34695640  0.62456049  0.93256456  1  0  0.34332  0  3.689217  0  0  0.310834  0  3.97044  0  0  0.326203  0  3.979477  0  1.040857  0  0.223212  0.300614  0  3.964152  0
C  C58  1  0.65303972  0.12455703  0.43256547  1  0  0.343339  0  3.689454  0  0  0.310781  0  3.970664  0  0  0.326143  0  3.979713  0  1.040906  0  0.223166  0.300565  0  3.964374  0
C  C59  1  0.65304351  0.37544284  0.06743686  1  0  0.343395  0  3.689346  0  0  0.310786  0  3.970576  0  0  0.326148  0  3.979627  0  1.041124  0  0.223213  0.300571  0  3.964284  0
C  C60  1  0.65296572  0.87309657  0.49759095  1  0  0.342518  0  3.689978  0  0  0.312157  0  3.967254  0  0  0.327366  0  3.976412  0  1.075604  0  0.224714  0.302023  0  3.960917  0
C  C61  1  0.65296003  0.62690303  0.00241015  1  0  0.34246  0  3.689919  0  0  0.312169  0  3.967196  0  0  0.327348  0  3.976344  0  1.075691  0  0.224716  0.302037  0  3.960863  0
C  C62  1  0.34702849  0.12689956  0.50240813  1  0  0.342503  0  3.689967  0  0  0.312054  0  3.967362  0  0  0.327251  0  3.976477  0  1.075703  0  0.224661  0.301926  0  3.961025  0
C  C63  1  0.34703798  0.37309850  0.99759092  1  0  0.342547  0  3.690106  0  0  0.312093  0  3.967442  0  0  0.327315  0  3.976586  0  1.075673  0  0.224714  0.301959  0  3.961102  0
C  C64  1  0.06726301  0.73908178  0.36983975  1  0  0.112719  0  3.743619  0  0  0.087192  0  3.996064  0  0  0.093244  0  4.014093  0  0.477465  0  0.034853  0.083248  0  3.98379  0
C  C65  1  0.06726681  0.76091902  0.13015912  1  0  0.112801  0  3.743639  0  0  0.087238  0  3.996108  0  0  0.093288  0  4.014146  0  0.477422  0  0.034817  0.083289  0  3.983835  0
C  C66  1  0.93273310  0.26091675  0.63015732  1  0  0.112707  0  3.743736  0  0  0.087154  0  3.996201  0  0  0.093203  0  4.014242  0  0.477867  0  0.034833  0.083208  0  3.98393  0
C  C67  1  0.93274259  0.23908371  0.86984120  1  0  0.112572  0  3.743747  0  0  0.087025  0  3.996193  0  0  0.093076  0  4.014222  0  0.478103  0  0.034772  0.0831  0  3.98393  0
C  C68  1  0.87639602  0.76128093  0.41776588  1  0  -0.138311  0  3.70661  0  0  -0.162548  0  3.960193  0  0  -0.168152  0  3.979408  0  0.03442  0  -0.084672  -0.158887  0  3.947288  0
C  C69  1  0.87639981  0.73871746  0.08223352  1  0  -0.138229  0  3.706569  0  0  -0.162382  0  3.960174  0  0  -0.168013  0  3.979363  0  0.034439  0  -0.084582  -0.158717  0  3.947271  0
C  C70  1  0.12359441  0.23871400  0.58223003  1  0  -0.138113  0  3.706619  0  0  -0.16229  0  3.9602  0  0  -0.167925  0  3.97939  0  0.034244  0  -0.084562  -0.158625  0  3.947298  0
C  C71  1  0.12360958  0.26128407  0.91776706  1  0  -0.138139  0  3.706606  0  0  -0.162316  0  3.96019  0  0  -0.167921  0  3.979412  0  0.034394  0  -0.084577  -0.15866  0  3.947277  0
C  C72  1  0.83668401  0.84318980  0.44498296  1  0  0.026496  0  3.802529  0  0  0.039296  0  4.040726  0  0  0.040068  0  4.062276  0  -0.060187  0  0.005236  0.038823  0  4.026178  0
C  C73  1  0.83667832  0.65680980  0.05501912  1  0  0.026552  0  3.802453  0  0  0.039212  0  4.040808  0  0  0.040075  0  4.062237  0  -0.0602  0  0.005214  0.03873  0  4.026272  0
C  C74  1  0.16331210  0.15680633  0.55501710  1  0  0.026579  0  3.802347  0  0  0.039306  0  4.040676  0  0  0.040169  0  4.062078  0  -0.060134  0  0.005264  0.038821  0  4.026142  0
C  C75  1  0.16331779  0.34319173  0.94498244  1  0  0.026593  0  3.802376  0  0  0.039327  0  4.04069  0  0  0.040094  0  4.062237  0  -0.060151  0  0.005251  0.038865  0  4.026126  0
C  C76  1  0.98805709  0.89926837  0.42220110  1  0  -0.118663  0  3.674361  0  0  -0.144012  0  3.930153  0  0  -0.149219  0  3.949159  0  -0.033297  0  -0.076614  -0.140598  0  3.917483  0
C  C77  1  0.98805899  0.60073183  0.07779962  1  0  -0.118663  0  3.674378  0  0  -0.143974  0  3.930195  0  0  -0.14922  0  3.949173  0  -0.033351  0  -0.076647  -0.140557  0  3.917525  0
C  C78  1  0.01193143  0.10072896  0.57779869  1  0  -0.118722  0  3.67421  0  0  -0.144023  0  3.930019  0  0  -0.149259  0  3.948999  0  -0.033661  0  -0.076709  -0.140607  0  3.917352  0
C  C79  1  0.01194282  0.39927090  0.92220119  1  0  -0.118794  0  3.674332  0  0  -0.144096  0  3.930114  0  0  -0.149305  0  3.949118  0  -0.03336  0  -0.076683  -0.140686  0  3.917443  0
C  C80  1  0.17091604  0.87143705  0.37363560  1  0  0.124397  0  3.706441  0  0  0.09546  0  3.961794  0  0  0.101554  0  3.979821  0  0.46827  0  0.039186  0.09149  0  3.949484  0
C  C81  1  0.17091415  0.62856375  0.12636524  1  0  0.124332  0  3.70638  0  0  0.095426  0  3.961696  0  0  0.101516  0  3.979738  0  0.468217  0  0.039181  0.091458  0  3.949383  0
C  C82  1  0.82907248  0.12856208  0.62636257  1  0  0.124302  0  3.706495  0  0  0.095363  0  3.961836  0  0  0.101454  0  3.979875  0  0.468633  0  0.039203  0.091404  0  3.949517  0
C  C83  1  0.82908387  0.37143898  0.87363655  1  0  0.124549  0  3.706345  0  0  0.095611  0  3.961678  0  0  0.101704  0  3.979711  0  0.468249  0  0.039294  0.091648  0  3.949365  0
I  I84  1  0.32147523  0.60594386  0.66875520  1  0  -0.339216  0  1.08884  0  0  -0.293692  0  1.387967  0  0  -0.312757  0  1.37067  0  -0.306305  0  -0.178623  -0.280531  0  1.399817  0
I  I85  1  0.32147712  0.89405573  0.83124443  1  0  -0.339208  0  1.088853  0  0  -0.29368  0  1.387978  0  0  -0.312749  0  1.370683  0  -0.306392  0  -0.178617  -0.280522  0  1.399827  0
I  I86  1  0.67852468  0.39405647  0.33124613  1  0  -0.339222  0  1.08882  0  0  -0.293699  0  1.387955  0  0  -0.312766  0  1.370659  0  -0.306391  0  -0.178636  -0.280536  0  1.399804  0
I  I87  1  0.67853417  0.10594820  0.16875367  1  0  -0.339219  0  1.088835  0  0  -0.293689  0  1.387968  0  0  -0.312756  0  1.370675  0  -0.306272  0  -0.178617  -0.28053  0  1.399819  0
I  I88  1  0.61637081  0.89947303  0.23341140  1  0  -0.336262  0  1.13874  0  0  -0.298629  0  1.467338  0  0  -0.314788  0  1.44751  0  -0.305971  0  -0.168736  -0.287799  0  1.481103  0
I  I89  1  0.61636322  0.60052656  0.26658823  1  0  -0.336252  0  1.138761  0  0  -0.298624  0  1.46738  0  0  -0.31478  0  1.44754  0  -0.305954  0  -0.168731  -0.287791  0  1.481145  0
I  I90  1  0.38362720  0.10052850  0.76658575  1  0  -0.336243  0  1.138771  0  0  -0.298598  0  1.467366  0  0  -0.314764  0  1.447541  0  -0.305925  0  -0.168714  -0.287766  0  1.481123  0
I  I91  1  0.38364618  0.39947377  0.73340869  1  0  -0.336255  0  1.138763  0  0  -0.29862  0  1.467366  0  0  -0.314775  0  1.447531  0  -0.305957  0  -0.168739  -0.287789  0  1.481131  0
N  N92  1  0.74290965  0.79819310  0.67427063  1  0  -0.294149  0  3.221355  0  0  -0.225134  0  3.487099  0  0  -0.243324  0  3.508009  0  -1.215181  0  -0.315787  -0.212711  0  3.472595  0
N  N93  1  0.74290207  0.70180590  0.82572741  1  0  -0.294211  0  3.221371  0  0  -0.225199  0  3.487124  0  0  -0.243387  0  3.508033  0  -1.215101  0  -0.315857  -0.212775  0  3.472621  0
N  N94  1  0.25709595  0.20180603  0.32573146  1  0  -0.294211  0  3.221405  0  0  -0.225208  0  3.487148  0  0  -0.243397  0  3.508054  0  -1.215302  0  -0.315854  -0.212785  0  3.472645  0
N  N95  1  0.25709025  0.29818903  0.17427143  1  0  -0.294186  0  3.221401  0  0  -0.225183  0  3.487174  0  0  -0.243372  0  3.508078  0  -1.21524  0  -0.31586  -0.212759  0  3.472669  0
N  N96  1  0.44337924  0.94802944  0.57938527  1  0  -0.248887  0  2.911199  0  0  -0.231385  0  3.198678  0  0  -0.239705  0  3.211421  0  -0.689848  0  -0.207035  -0.225682  0  3.189995  0
N  N97  1  0.44337544  0.55197195  0.92061470  1  0  -0.24889  0  2.911374  0  0  -0.231386  0  3.198846  0  0  -0.239704  0  3.211592  0  -0.689556  0  -0.207071  -0.225683  0  3.190164  0
N  N98  1  0.55662257  0.05196848  0.42061415  1  0  -0.248854  0  2.911262  0  0  -0.231349  0  3.198745  0  0  -0.239671  0  3.211497  0  -0.689943  0  -0.206989  -0.225648  0  3.190063  0
N  N99  1  0.55662257  0.44803078  0.07938709  1  0  -0.248792  0  2.911413  0  0  -0.231281  0  3.198898  0  0  -0.239602  0  3.211656  0  -0.689791  0  -0.20698  -0.225579  0  3.190216  0
N  N100  1  0.64040063  0.94632791  0.53479270  1  0  -0.242083  0  2.939004  0  0  -0.221802  0  3.225267  0  0  -0.230866  0  3.239515  0  -0.691018  0  -0.202813  -0.215558  0  3.215603  0
N  N101  1  0.64039494  0.55367168  0.96520742  1  0  -0.242141  0  2.939047  0  0  -0.221859  0  3.225293  0  0  -0.230924  0  3.239549  0  -0.691342  0  -0.202856  -0.215614  0  3.215629  0
N  N102  1  0.35960118  0.05366942  0.46520660  1  0  -0.242111  0  2.939054  0  0  -0.221812  0  3.225351  0  0  -0.230885  0  3.239599  0  -0.691244  0  -0.202794  -0.215568  0  3.215685  0
N  N103  1  0.35960687  0.44632925  0.03479403  1  0  -0.242208  0  2.939362  0  0  -0.221934  0  3.225681  0  0  -0.231007  0  3.23993  0  -0.691261  0  -0.202871  -0.21569  0  3.216016  0
N  N104  1  0.21062615  0.79286343  0.34799550  1  0  -0.291224  0  3.218258  0  0  -0.223128  0  3.481501  0  0  -0.241338  0  3.502874  0  -1.190264  0  -0.313442  -0.210645  0  3.466634  0
N  N105  1  0.21062805  0.70713857  0.15200508  1  0  -0.291237  0  3.218229  0  0  -0.223141  0  3.481478  0  0  -0.241353  0  3.502853  0  -1.19009  0  -0.313399  -0.210658  0  3.466611  0
N  N106  1  0.78936807  0.20713690  0.65200388  1  0  -0.291236  0  3.2182  0  0  -0.223132  0  3.481467  0  0  -0.241345  0  3.502844  0  -1.190215  0  -0.313465  -0.21065  0  3.466598  0
N  N107  1  0.78937755  0.29286476  0.84799634  1  0  -0.291276  0  3.21811  0  0  -0.223144  0  3.48132  0  0  -0.241354  0  3.502697  0  -1.19026  0  -0.313466  -0.210659  0  3.466443  0
O  O108  1  0.47163979  0.82418064  0.51574426  1  0  -0.256381  0  2.270407  0  0  -0.184061  0  2.482929  0  0  -0.20186  0  2.486339  0  -1.040111  0  -0.097326  -0.17221  0  2.480567  0
O  O109  1  0.47164169  0.67581955  0.98425646  1  0  -0.256312  0  2.270332  0  0  -0.184036  0  2.482863  0  0  -0.201837  0  2.486282  0  -1.040326  0  -0.09729  -0.172184  0  2.4805  0
O  O110  1  0.52835822  0.17581669  0.48425455  1  0  -0.256462  0  2.270383  0  0  -0.184036  0  2.482892  0  0  -0.201829  0  2.486289  0  -1.04015  0  -0.097353  -0.172192  0  2.480534  0
O  O111  1  0.52836201  0.32418378  0.01574495  1  0  -0.256556  0  2.270552  0  0  -0.18402  0  2.482947  0  0  -0.201814  0  2.486349  0  -1.040333  0  -0.097367  -0.172175  0  2.480591  0
