# generated using pymatgen
data_CuH4C5SN
_symmetry_space_group_name_H-M   'P 1'
_cell_length_a   10.54045573
_cell_length_b   10.54042404
_cell_length_c   10.24151470
_cell_angle_alpha   95.69455158
_cell_angle_beta   115.01523632
_cell_angle_gamma   119.52003907
_symmetry_Int_Tables_number   1
_chemical_formula_structural   CuH4C5SN
_chemical_formula_sum   'Cu6 H24 C30 S6 N6'
_cell_volume   826.18210790
_cell_formula_units_Z   6
loop_
 _symmetry_equiv_pos_site_id
 _symmetry_equiv_pos_as_xyz
  1  'x, y, z'
loop_
 _atom_site_type_symbol
 _atom_site_label
 _atom_site_symmetry_multiplicity
 _atom_site_fract_x
 _atom_site_fract_y
 _atom_site_fract_z
 _atom_site_occupancy
 _atom_site_hle17_bader_spin_density
 _atom_site_hle17_ddec_charge
 _atom_site_hle17_ddec_spin_density
 _atom_site_hle17_ddec_sum_bond_order
 _atom_site_hle17_magmom
 _atom_site_hse06_10hf_bader_spin_density
 _atom_site_hse06_10hf_ddec_charge
 _atom_site_hse06_10hf_ddec_spin_density
 _atom_site_hse06_10hf_ddec_sum_bond_order
 _atom_site_hse06_10hf_magmom
 _atom_site_hse06_bader_spin_density
 _atom_site_hse06_ddec_charge
 _atom_site_hse06_ddec_spin_density
 _atom_site_hse06_ddec_sum_bond_order
 _atom_site_hse06_magmom
 _atom_site_pbe_bader_spin_density
 _atom_site_pbe_cm5_charge
 _atom_site_pbe_ddec_charge
 _atom_site_pbe_ddec_spin_density
 _atom_site_pbe_ddec_sum_bond_order
 _atom_site_pbe_magmom
Cu  Cu0  1  0.52786486  0.27786583  0.24999911  1  0  0.373086  0  2.063255  0  0  0.291108  0  2.553453  0  0  0.286507  0  2.512855  0  0  0.413634  0.300581  0  2.575134  0
Cu  Cu1  1  0.47213412  0.72213227  0.74999799  1  0  0.373048  0  2.06332  0  0  0.2911  0  2.553521  0  0  0.286522  0  2.512947  0  0  0.413651  0.300582  0  2.57522  0
Cu  Cu2  1  0.65666090  0.63332962  0.11306868  1  0  0.320747  0  2.2783  0  0  0.260152  0  2.770394  0  0  0.248613  0  2.735088  0  0  0.387565  0.26936  0  2.793434  0
Cu  Cu3  1  0.02026258  0.54359360  0.38693420  1  0  0.320733  0  2.278307  0  0  0.260157  0  2.770372  0  0  0.248622  0  2.735062  0  0  0.387548  0.269356  0  2.793422  0
Cu  Cu4  1  0.34333904  0.36667035  0.88693299  1  0  0.320725  0  2.278263  0  0  0.260144  0  2.770348  0  0  0.248613  0  2.735023  0  0  0.387557  0.269348  0  2.793371  0
Cu  Cu5  1  0.97974163  0.45641080  0.61307179  1  0  0.320706  0  2.278334  0  0  0.260142  0  2.7704  0  0  0.248587  0  2.735117  0  0  0.387547  0.269332  0  2.793488  0
H  H6  1  0.22811796  0.41865976  0.47755815  1  0  0.065768  0  0.967787  0  0  0.074444  0  1.039174  0  0  0.078363  0  1.033225  0  0  0.102534  0.072067  0  1.042505  0
H  H7  1  0.44110140  0.75055996  0.02244902  1  0  0.065812  0  0.967819  0  0  0.074499  0  1.039183  0  0  0.078413  0  1.033239  0  0  0.102571  0.072122  0  1.042515  0
H  H8  1  0.77189488  0.58134752  0.52245303  1  0  0.065799  0  0.967871  0  0  0.074484  0  1.039239  0  0  0.078399  0  1.033293  0  0  0.102557  0.072106  0  1.042574  0
H  H9  1  0.55889621  0.24944219  0.97755745  1  0  0.065751  0  0.967803  0  0  0.074427  0  1.039193  0  0  0.078345  0  1.033245  0  0  0.102524  0.072034  0  1.042535  0
H  H10  1  0.38588215  0.36052412  0.38910336  1  0  0.10247  0  0.975421  0  0  0.112257  0  1.036984  0  0  0.115649  0  1.036274  0  0  0.097897  0.109727  0  1.037819  0
H  H11  1  0.47141938  0.99677772  0.11090533  1  0  0.102425  0  0.975508  0  0  0.112226  0  1.037056  0  0  0.115614  0  1.036346  0  0  0.0979  0.109695  0  1.03789  0
H  H12  1  0.61412067  0.63947555  0.61090004  1  0  0.102514  0  0.975407  0  0  0.112302  0  1.036968  0  0  0.115694  0  1.036257  0  0  0.097921  0.109773  0  1.037805  0
H  H13  1  0.52858389  0.00322601  0.88910809  1  0  0.102482  0  0.975422  0  0  0.112267  0  1.036992  0  0  0.115659  0  1.03628  0  0  0.0979  0.109734  0  1.037825  0
H  H14  1  0.27013285  0.56446683  0.04998565  1  0  0.098151  0  0.998081  0  0  0.107191  0  1.065208  0  0  0.110719  0  1.063523  0  0  0.093194  0.104272  0  1.066895  0
H  H15  1  0.01448041  0.22015035  0.45001509  1  0  0.098234  0  0.998054  0  0  0.107216  0  1.065232  0  0  0.110761  0  1.063529  0  0  0.093197  0.104297  0  1.066917  0
H  H16  1  0.72986486  0.43553312  0.95001734  1  0  0.098258  0  0.997941  0  0  0.107202  0  1.065166  0  0  0.110743  0  1.063469  0  0  0.093195  0.104281  0  1.066853  0
H  H17  1  0.98552260  0.77984872  0.54998133  1  0  0.098237  0  0.998022  0  0  0.107209  0  1.065209  0  0  0.11075  0  1.063511  0  0  0.093214  0.104292  0  1.066899  0
H  H18  1  0.10420077  0.60253163  0.14345432  1  0  0.072581  0  0.964294  0  0  0.08168  0  1.028877  0  0  0.083421  0  1.028116  0  0  0.10567  0.080343  0  1.029744  0
H  H19  1  0.95908214  0.96074879  0.35655014  1  0  0.072585  0  0.964258  0  0  0.08169  0  1.028835  0  0  0.083432  0  1.028073  0  0  0.105661  0.080355  0  1.029701  0
H  H20  1  0.89580336  0.39746739  0.85655519  1  0  0.072627  0  0.964265  0  0  0.081717  0  1.02885  0  0  0.083458  0  1.02809  0  0  0.105689  0.080381  0  1.029716  0
H  H21  1  0.04091873  0.03924996  0.64344411  1  0  0.072635  0  0.964231  0  0  0.081713  0  1.028841  0  0  0.083456  0  1.028076  0  0  0.105672  0.080379  0  1.029705  0
H  H22  1  0.50674803  0.13263174  0.47893927  1  0  0.071863  0  0.957642  0  0  0.081534  0  1.023578  0  0  0.083761  0  1.021788  0  0  0.108966  0.080213  0  1.024183  0
H  H23  1  0.15368532  0.02779889  0.02105099  1  0  0.071824  0  0.957686  0  0  0.081506  0  1.023628  0  0  0.083737  0  1.021837  0  0  0.108954  0.080185  0  1.024235  0
H  H24  1  0.49325049  0.86736229  0.52104780  1  0  0.071753  0  0.957748  0  0  0.081488  0  1.023636  0  0  0.083715  0  1.021848  0  0  0.10895  0.080167  0  1.024241  0
H  H25  1  0.84630979  0.97219952  0.97893979  1  0  0.071749  0  0.957729  0  0  0.081504  0  1.023576  0  0  0.083734  0  1.021787  0  0  0.108938  0.080182  0  1.024186  0
H  H26  1  0.28180912  0.89818955  0.48648352  1  0  0.100025  0  0.9984  0  0  0.10851  0  1.066304  0  0  0.111267  0  1.066419  0  0  0.0944  0.106711  0  1.065893  0
H  H27  1  0.91169839  0.79532169  0.01351022  1  0  0.100095  0  0.998473  0  0  0.108606  0  1.066346  0  0  0.111382  0  1.066432  0  0  0.094468  0.106814  0  1.065932  0
H  H28  1  0.71818674  0.10180728  0.51350683  1  0  0.100037  0  0.998504  0  0  0.108538  0  1.066385  0  0  0.111292  0  1.066516  0  0  0.094416  0.106728  0  1.066014  0
H  H29  1  0.08829704  0.20467797  0.98648208  1  0  0.09998  0  0.998476  0  0  0.108449  0  1.06639  0  0  0.11121  0  1.066499  0  0  0.094374  0.106652  0  1.065976  0
C  C30  1  0.23747637  0.44710804  0.38098601  1  0  0.109848  0  3.736391  0  0  0.081162  0  3.988908  0  0  0.090536  0  4.00062  0  0  0.025597  0.075352  0  3.981055  0
C  C31  1  0.56612081  0.85648871  0.11901996  1  0  0.109809  0  3.736371  0  0  0.081068  0  3.988937  0  0  0.090466  0  4.00062  0  0  0.025564  0.075254  0  3.981088  0
C  C32  1  0.76252465  0.55289162  0.61901675  1  0  0.109858  0  3.736418  0  0  0.081114  0  3.98894  0  0  0.090502  0  4.000626  0  0  0.025574  0.07531  0  3.981087  0
C  C33  1  0.43387796  0.14351187  0.88098411  1  0  0.10989  0  3.736298  0  0  0.081174  0  3.988814  0  0  0.090547  0  4.000524  0  0  0.025591  0.075376  0  3.980955  0
C  C34  1  0.32865894  0.41754893  0.33346329  1  0  -0.177521  0  3.734498  0  0  -0.18786  0  3.968292  0  0  -0.197607  0  3.991484  0  0  -0.101008  -0.182356  0  3.953864  0
C  C35  1  0.58408680  0.99519836  0.16654275  1  0  -0.177473  0  3.734497  0  0  -0.18782  0  3.968308  0  0  -0.197559  0  3.991496  0  0  -0.101015  -0.182308  0  3.953873  0
C  C36  1  0.67134346  0.58245167  0.66654207  1  0  -0.17752  0  3.73451  0  0  -0.187866  0  3.968314  0  0  -0.197612  0  3.991506  0  0  -0.101022  -0.18236  0  3.953887  0
C  C37  1  0.41591518  0.00480412  0.83346458  1  0  -0.177511  0  3.734491  0  0  -0.187856  0  3.968304  0  0  -0.197596  0  3.991492  0  0  -0.101015  -0.182348  0  3.953861  0
C  C38  1  0.34974662  0.46469954  0.21597685  1  0  0.160888  0  3.757305  0  0  0.182056  0  3.994658  0  0  0.188461  0  4.017519  0  0  -0.003679  0.175949  0  3.979502  0
C  C39  1  0.74872603  0.13377263  0.28402821  1  0  0.160842  0  3.757343  0  0  0.181995  0  3.994722  0  0  0.188398  0  4.017584  0  0  -0.003726  0.175892  0  3.979559  0
C  C40  1  0.65025185  0.53529600  0.78402572  1  0  0.160761  0  3.757432  0  0  0.181935  0  3.994777  0  0  0.188335  0  4.017642  0  0  -0.003683  0.17583  0  3.979619  0
C  C41  1  0.25127934  0.86623021  0.71597538  1  0  0.160775  0  3.757457  0  0  0.181946  0  3.994805  0  0  0.188351  0  4.017667  0  0  -0.003727  0.175843  0  3.979644  0
C  C42  1  0.26700444  0.53344473  0.14720613  1  0  -0.177648  0  3.735482  0  0  -0.194421  0  3.975913  0  0  -0.20287  0  3.998634  0  0  -0.101069  -0.186644  0  3.958588  0
C  C43  1  0.88623873  0.11979724  0.35279855  1  0  -0.177723  0  3.735484  0  0  -0.194445  0  3.975936  0  0  -0.202905  0  3.998642  0  0  -0.101077  -0.186668  0  3.958607  0
C  C44  1  0.73299764  0.46655556  0.85279771  1  0  -0.177684  0  3.735355  0  0  -0.194362  0  3.9758  0  0  -0.202831  0  3.998531  0  0  -0.101077  -0.186585  0  3.958467  0
C  C45  1  0.11376312  0.88020245  0.64720028  1  0  -0.17763  0  3.735386  0  0  -0.194337  0  3.975827  0  0  -0.202803  0  3.998548  0  0  -0.101046  -0.186566  0  3.958501  0
C  C46  1  0.17270864  0.55318412  0.19797809  1  0  0.116412  0  3.711583  0  0  0.091521  0  3.957872  0  0  0.098654  0  3.973878  0  0  0.029555  0.086035  0  3.946964  0
C  C47  1  0.85520626  0.97473252  0.30202294  1  0  0.1164  0  3.711616  0  0  0.091487  0  3.957873  0  0  0.098621  0  3.973889  0  0  0.029554  0.085997  0  3.946974  0
C  C48  1  0.82729844  0.44681998  0.80202964  1  0  0.11638  0  3.711592  0  0  0.091453  0  3.957841  0  0  0.098581  0  3.973848  0  0  0.029515  0.08596  0  3.946947  0
C  C49  1  0.14479386  0.02526874  0.69797174  1  0  0.116318  0  3.711519  0  0  0.091419  0  3.957784  0  0  0.098549  0  3.973789  0  0  0.02951  0.085923  0  3.946887  0
C  C50  1  0.37351925  0.05351769  0.37704522  1  0  0.112737  0  3.72839  0  0  0.087166  0  3.970655  0  0  0.095844  0  3.985507  0  0  0.026969  0.080465  0  3.96161  0
C  C51  1  0.17646772  0.99646983  0.12294839  1  0  0.112844  0  3.72845  0  0  0.087271  0  3.970685  0  0  0.095926  0  3.985579  0  0  0.027086  0.080567  0  3.961647  0
C  C52  1  0.62647981  0.94648105  0.62294838  1  0  0.112811  0  3.728571  0  0  0.087194  0  3.97083  0  0  0.095864  0  3.985696  0  0  0.027049  0.080495  0  3.961784  0
C  C53  1  0.82352953  0.00352890  0.87704457  1  0  0.112834  0  3.728351  0  0  0.087227  0  3.970588  0  0  0.095888  0  3.985468  0  0  0.027014  0.080524  0  3.961553  0
C  C54  1  0.24749172  0.92310848  0.38109724  1  0  -0.184773  0  3.739645  0  0  -0.1983  0  3.980956  0  0  -0.207814  0  4.003132  0  0  -0.102079  -0.1921  0  3.965654  0
C  C55  1  0.04200605  0.86639295  0.11889626  1  0  -0.184839  0  3.739787  0  0  -0.198399  0  3.981098  0  0  -0.207916  0  4.003262  0  0  -0.102138  -0.192202  0  3.965806  0
C  C56  1  0.75250340  0.07688709  0.61889355  1  0  -0.184717  0  3.739818  0  0  -0.198259  0  3.981109  0  0  -0.207772  0  4.003276  0  0  -0.102063  -0.192061  0  3.965802  0
C  C57  1  0.95799044  0.13360830  0.88109712  1  0  -0.184775  0  3.739708  0  0  -0.198298  0  3.981041  0  0  -0.20781  0  4.003215  0  0  -0.102058  -0.192097  0  3.965742  0
C  C58  1  0.07426839  0.82426950  0.24999705  1  0  0.154494  0  3.788966  0  0  0.169033  0  4.037307  0  0  0.178513  0  4.057629  0  0  -0.00234  0.162013  0  4.023888  0
C  C59  1  0.92572523  0.17573016  0.74999460  1  0  0.154519  0  3.789025  0  0  0.169069  0  4.037324  0  0  0.17855  0  4.057644  0  0  -0.002345  0.16205  0  4.023902  0
S  S60  1  0.47239887  0.43715118  0.15929819  1  0  -0.404023  0  3.076763  0  0  -0.383915  0  3.639724  0  0  -0.378134  0  3.596901  0  0  -0.281  -0.388545  0  3.666719  0
S  S61  1  0.77785243  0.31310149  0.34070562  1  0  -0.403965  0  3.076831  0  0  -0.383848  0  3.639777  0  0  -0.378059  0  3.596956  0  0  -0.280952  -0.388469  0  3.666773  0
S  S62  1  0.52760181  0.56285101  0.84070303  1  0  -0.403955  0  3.076843  0  0  -0.383854  0  3.639816  0  0  -0.378079  0  3.597012  0  0  -0.280966  -0.388488  0  3.666821  0
S  S63  1  0.22215179  0.68689913  0.65930039  1  0  -0.403981  0  3.076859  0  0  -0.383887  0  3.639824  0  0  -0.37812  0  3.597032  0  0  -0.281018  -0.388519  0  3.666837  0
S  S64  1  0.91049214  0.66049315  0.24999903  1  0  -0.399689  0  2.721493  0  0  -0.373091  0  3.208259  0  0  -0.379022  0  3.184946  0  0  -0.244553  -0.370162  0  3.223593  0
S  S65  1  0.08950215  0.33950145  0.74999570  1  0  -0.399675  0  2.721482  0  0  -0.373094  0  3.208263  0  0  -0.379028  0  3.184947  0  0  -0.24454  -0.370161  0  3.223593  0
N  N66  1  0.15826172  0.51324824  0.31509510  1  0  -0.294475  0  3.364699  0  0  -0.227113  0  3.655313  0  0  -0.236449  0  3.663554  0  0  -0.373675  -0.220405  0  3.650042  0
N  N67  1  0.69815256  0.84316660  0.18490944  1  0  -0.294463  0  3.364691  0  0  -0.227037  0  3.65525  0  0  -0.236395  0  3.663518  0  0  -0.373649  -0.220329  0  3.64999  0
N  N68  1  0.84174462  0.48675649  0.68491306  1  0  -0.294579  0  3.364739  0  0  -0.227108  0  3.655272  0  0  -0.236437  0  3.663508  0  0  -0.373667  -0.2204  0  3.650009  0
N  N69  1  0.30184705  0.15683495  0.81509069  1  0  -0.294488  0  3.364666  0  0  -0.227055  0  3.655216  0  0  -0.236389  0  3.66345  0  0  -0.373639  -0.220347  0  3.649932  0
N  N70  1  0.34184086  0.09183903  0.24999617  1  0  -0.31405  0  3.394164  0  0  -0.239289  0  3.68608  0  0  -0.250933  0  3.693793  0  0  -0.386517  -0.233415  0  3.683072  0
N  N71  1  0.65815502  0.90815497  0.74999419  1  0  -0.313961  0  3.394035  0  0  -0.239243  0  3.686024  0  0  -0.250886  0  3.693746  0  0  -0.386502  -0.233371  0  3.683026  0
