# generated using pymatgen
data_CdH20C16(SN3)2
_symmetry_space_group_name_H-M   'P 1'
_cell_length_a   5.90365107
_cell_length_b   11.08553716
_cell_length_c   14.31493410
_cell_angle_alpha   89.99999513
_cell_angle_beta   98.92560127
_cell_angle_gamma   89.99918283
_symmetry_Int_Tables_number   1
_chemical_formula_structural   CdH20C16(SN3)2
_chemical_formula_sum   'Cd2 H40 C32 S4 N12'
_cell_volume   925.49834331
_cell_formula_units_Z   2
loop_
 _symmetry_equiv_pos_site_id
 _symmetry_equiv_pos_as_xyz
  1  'x, y, z'
loop_
 _atom_site_type_symbol
 _atom_site_label
 _atom_site_symmetry_multiplicity
 _atom_site_fract_x
 _atom_site_fract_y
 _atom_site_fract_z
 _atom_site_occupancy
 _atom_site_hle17_bader_spin_density
 _atom_site_hle17_ddec_charge
 _atom_site_hle17_ddec_spin_density
 _atom_site_hle17_ddec_sum_bond_order
 _atom_site_hle17_magmom
 _atom_site_hse06_10hf_bader_spin_density
 _atom_site_hse06_10hf_ddec_charge
 _atom_site_hse06_10hf_ddec_spin_density
 _atom_site_hse06_10hf_ddec_sum_bond_order
 _atom_site_hse06_10hf_magmom
 _atom_site_hse06_bader_spin_density
 _atom_site_hse06_ddec_charge
 _atom_site_hse06_ddec_spin_density
 _atom_site_hse06_ddec_sum_bond_order
 _atom_site_hse06_magmom
 _atom_site_pbe_bader_spin_density
 _atom_site_pbe_cm5_charge
 _atom_site_pbe_ddec_charge
 _atom_site_pbe_ddec_spin_density
 _atom_site_pbe_ddec_sum_bond_order
 _atom_site_pbe_magmom
Cd  Cd0  1  0.00000808  0.99999454  0.99998980  1  0  0.954944  0  1.973762  0  0  0.769581  0  2.441309  0  0  0.814311  0  2.404552  0  0  0.72659  0.738585  0  2.466255  0
Cd  Cd1  1  0.00002300  0.50000268  0.50000164  1  0  0.95499  0  1.97368  0  0  0.769613  0  2.441241  0  0  0.814345  0  2.404482  0  0  0.726631  0.738616  0  2.466191  0
H  H2  1  0.35055546  0.22726717  0.00743241  1  0  0.066781  0  0.970198  0  0  0.076695  0  1.03629  0  0  0.078129  0  1.034823  0  0  0.106077  0.075672  0  1.037225  0
H  H3  1  0.35058260  0.27272083  0.50742267  1  0  0.066748  0  0.970314  0  0  0.076673  0  1.036416  0  0  0.078108  0  1.034949  0  0  0.106116  0.075651  0  1.037354  0
H  H4  1  0.64943762  0.77271695  0.99256166  1  0  0.066874  0  0.970128  0  0  0.076788  0  1.036191  0  0  0.078221  0  1.034724  0  0  0.106104  0.075766  0  1.037126  0
H  H5  1  0.64945838  0.72726509  0.49256873  1  0  0.066848  0  0.970171  0  0  0.076774  0  1.03625  0  0  0.078208  0  1.034785  0  0  0.106105  0.075752  0  1.037187  0
H  H6  1  0.37161829  0.43548022  0.95449000  1  0  0.098917  0  0.989378  0  0  0.10966  0  1.054365  0  0  0.112936  0  1.053653  0  0  0.099413  0.107258  0  1.055218  0
H  H7  1  0.37162490  0.06450602  0.45447958  1  0  0.099057  0  0.98927  0  0  0.109796  0  1.054224  0  0  0.11308  0  1.053509  0  0  0.09946  0.107409  0  1.05505  0
H  H8  1  0.62839198  0.56450390  0.04550791  1  0  0.0989  0  0.989367  0  0  0.109689  0  1.054295  0  0  0.112966  0  1.053576  0  0  0.099453  0.107293  0  1.055139  0
H  H9  1  0.62836460  0.93547900  0.54550659  1  0  0.098964  0  0.989215  0  0  0.109704  0  1.054228  0  0  0.11298  0  1.053527  0  0  0.099435  0.107301  0  1.05508  0
H  H10  1  0.66589372  0.39523744  0.81337679  1  0  0.099277  0  1.010835  0  0  0.105229  0  1.081535  0  0  0.108737  0  1.080747  0  0  0.093085  0.102698  0  1.082343  0
H  H11  1  0.66589155  0.10478346  0.31337834  1  0  0.099348  0  1.010923  0  0  0.105343  0  1.081552  0  0  0.108853  0  1.08076  0  0  0.093102  0.102809  0  1.082365  0
H  H12  1  0.33410980  0.60477284  0.18662630  1  0  0.09934  0  1.010806  0  0  0.105302  0  1.081475  0  0  0.108812  0  1.080683  0  0  0.093123  0.10277  0  1.082283  0
H  H13  1  0.33409826  0.89524034  0.68662392  1  0  0.099237  0  1.010822  0  0  0.105195  0  1.081524  0  0  0.108702  0  1.080737  0  0  0.093106  0.102665  0  1.082326  0
H  H14  1  0.67686145  0.19133916  0.87667098  1  0  0.068626  0  0.956134  0  0  0.077617  0  1.022334  0  0  0.079545  0  1.020303  0  0  0.105087  0.076029  0  1.024128  0
H  H15  1  0.67688144  0.30867417  0.37667933  1  0  0.068645  0  0.956105  0  0  0.077619  0  1.022323  0  0  0.07955  0  1.020286  0  0  0.105083  0.076034  0  1.024112  0
H  H16  1  0.32311792  0.80866751  0.12332295  1  0  0.068592  0  0.956067  0  0  0.077587  0  1.02228  0  0  0.079519  0  1.02024  0  0  0.105078  0.076003  0  1.024069  0
H  H17  1  0.32314449  0.69134602  0.62333141  1  0  0.068561  0  0.956215  0  0  0.077577  0  1.022379  0  0  0.079507  0  1.020345  0  0  0.1051  0.075973  0  1.024188  0
H  H18  1  0.38947013  0.57480024  0.86375874  1  0  0.081451  0  0.979336  0  0  0.098981  0  1.051221  0  0  0.099425  0  1.051178  0  0  0.09553  0.098511  0  1.051492  0
H  H19  1  0.38945722  0.92518576  0.36375473  1  0  0.081382  0  0.979348  0  0  0.098917  0  1.051245  0  0  0.099359  0  1.0512  0  0  0.095472  0.098444  0  1.051523  0
H  H20  1  0.61054681  0.42519290  0.13622910  1  0  0.081431  0  0.979271  0  0  0.098878  0  1.051304  0  0  0.099325  0  1.051256  0  0  0.095479  0.098406  0  1.051579  0
H  H21  1  0.61050461  0.07479385  0.63621718  1  0  0.081406  0  0.979414  0  0  0.098938  0  1.051262  0  0  0.099377  0  1.051223  0  0  0.095502  0.098468  0  1.051534  0
H  H22  1  0.22804064  0.69968947  0.81333129  1  0  0.104719  0  0.944361  0  0  0.126092  0  1.005938  0  0  0.126058  0  1.007333  0  0  0.105653  0.125981  0  1.005117  0
H  H23  1  0.22801140  0.80030541  0.31332336  1  0  0.104599  0  0.944442  0  0  0.125986  0  1.006035  0  0  0.125953  0  1.007428  0  0  0.105566  0.125899  0  1.00519  0
H  H24  1  0.77197162  0.30031900  0.18668141  1  0  0.104654  0  0.944466  0  0  0.126053  0  1.006031  0  0  0.126019  0  1.007426  0  0  0.105639  0.125953  0  1.005197  0
H  H25  1  0.77188275  0.19966156  0.68669263  1  0  0.10457  0  0.944585  0  0  0.125984  0  1.006094  0  0  0.125945  0  1.007498  0  0  0.105667  0.125874  0  1.005271  0
H  H26  1  0.24323260  0.67047036  0.93620542  1  0  0.091909  0  0.954506  0  0  0.111128  0  1.021651  0  0  0.110424  0  1.02382  0  0  0.095135  0.111681  0  1.019932  0
H  H27  1  0.24319991  0.82952010  0.43619767  1  0  0.091866  0  0.954541  0  0  0.111095  0  1.021672  0  0  0.110392  0  1.023838  0  0  0.09516  0.11165  0  1.019958  0
H  H28  1  0.75682249  0.32950563  0.06380779  1  0  0.091893  0  0.954467  0  0  0.111173  0  1.021558  0  0  0.11047  0  1.023725  0  0  0.095159  0.111726  0  1.019842  0
H  H29  1  0.75677134  0.17050010  0.56382022  1  0  0.092021  0  0.954391  0  0  0.111211  0  1.021571  0  0  0.110509  0  1.023736  0  0  0.095157  0.111765  0  1.019855  0
H  H30  1  0.67858429  0.56229841  0.78359189  1  0  0.085967  0  1.002471  0  0  0.105018  0  1.06909  0  0  0.105476  0  1.069267  0  0  0.094478  0.104581  0  1.069109  0
H  H31  1  0.67857963  0.93772286  0.28358456  1  0  0.086008  0  1.002428  0  0  0.105028  0  1.069117  0  0  0.105485  0  1.069295  0  0  0.094532  0.10459  0  1.069135  0
H  H32  1  0.32142610  0.43771097  0.21641231  1  0  0.085964  0  1.002377  0  0  0.104996  0  1.069048  0  0  0.105453  0  1.069226  0  0  0.094494  0.10456  0  1.069067  0
H  H33  1  0.32139291  0.06230005  0.71641036  1  0  0.085916  0  1.002606  0  0  0.105014  0  1.069175  0  0  0.105472  0  1.069353  0  0  0.094534  0.104577  0  1.069194  0
H  H34  1  0.80982956  0.70318967  0.81732521  1  0  0.089046  0  0.975757  0  0  0.105209  0  1.047894  0  0  0.105762  0  1.048432  0  0  0.088396  0.104826  0  1.047451  0
H  H35  1  0.80980332  0.79682714  0.31731646  1  0  0.088966  0  0.975813  0  0  0.105136  0  1.047975  0  0  0.105691  0  1.048511  0  0  0.088368  0.10475  0  1.047535  0
H  H36  1  0.19019300  0.29681339  0.18268883  1  0  0.089034  0  0.975757  0  0  0.105209  0  1.047892  0  0  0.105763  0  1.048427  0  0  0.088393  0.104821  0  1.047452  0
H  H37  1  0.19014498  0.20319396  0.68266441  1  0  0.088996  0  0.975682  0  0  0.105165  0  1.047831  0  0  0.10572  0  1.048367  0  0  0.088381  0.104783  0  1.047388  0
H  H38  1  0.87032847  0.62702808  0.71405649  1  0  0.096578  0  0.962918  0  0  0.114615  0  1.028684  0  0  0.113996  0  1.031061  0  0  0.095865  0.115225  0  1.026646  0
H  H39  1  0.87030943  0.87298113  0.21404977  1  0  0.096416  0  0.963041  0  0  0.114487  0  1.028789  0  0  0.113867  0  1.031169  0  0  0.095843  0.115101  0  1.026742  0
H  H40  1  0.12969400  0.37298220  0.28595264  1  0  0.096456  0  0.962979  0  0  0.114479  0  1.028765  0  0  0.113859  0  1.031147  0  0  0.095841  0.115094  0  1.026724  0
H  H41  1  0.12963565  0.12704358  0.78594208  1  0  0.096421  0  0.962949  0  0  0.114485  0  1.028706  0  0  0.113867  0  1.031084  0  0  0.095861  0.115098  0  1.026672  0
C  C42  1  0.20171349  0.26831455  0.96453295  1  0  0.134972  0  3.776559  0  0  0.105125  0  4.027871  0  0  0.116453  0  4.044934  0  0  0.029896  0.09778  0  4.016252  0
C  C43  1  0.20173286  0.23168048  0.46452983  1  0  0.135092  0  3.776505  0  0  0.105221  0  4.027812  0  0  0.116545  0  4.044879  0  0  0.029856  0.097874  0  4.016203  0
C  C44  1  0.79828649  0.73168581  0.03546433  1  0  0.134882  0  3.776471  0  0  0.105059  0  4.027788  0  0  0.116387  0  4.044851  0  0  0.029821  0.09771  0  4.016172  0
C  C45  1  0.79829811  0.76830273  0.53547633  1  0  0.134964  0  3.776316  0  0  0.105109  0  4.027615  0  0  0.116434  0  4.044681  0  0  0.02992  0.097762  0  4.016001  0
C  C46  1  0.21298368  0.38593100  0.93395039  1  0  -0.241509  0  3.726802  0  0  -0.258903  0  3.984145  0  0  -0.270472  0  4.003343  0  0  -0.111231  -0.251695  0  3.971551  0
C  C47  1  0.21299615  0.11406341  0.43394454  1  0  -0.241709  0  3.726875  0  0  -0.259054  0  3.984203  0  0  -0.27063  0  4.003405  0  0  -0.111308  -0.251852  0  3.971625  0
C  C48  1  0.78701112  0.61406936  0.06604448  1  0  -0.241507  0  3.726694  0  0  -0.258928  0  3.98409  0  0  -0.270493  0  4.003275  0  0  -0.111246  -0.251726  0  3.971505  0
C  C49  1  0.78700033  0.88592432  0.56604834  1  0  -0.241421  0  3.72656  0  0  -0.258864  0  3.983905  0  0  -0.270435  0  4.0031  0  0  -0.111229  -0.251656  0  3.971313  0
C  C50  1  0.02094628  0.43985318  0.87649493  1  0  0.256006  0  3.797087  0  0  0.237515  0  4.041  0  0  0.255186  0  4.05756  0  0  0.11985  0.226086  0  4.028847  0
C  C51  1  0.02095073  0.06015500  0.37648750  1  0  0.255917  0  3.797417  0  0  0.237412  0  4.041339  0  0  0.255084  0  4.057901  0  0  0.119842  0.225985  0  4.029179  0
C  C52  1  0.97905369  0.56014537  0.12350166  1  0  0.255938  0  3.797072  0  0  0.237406  0  4.041082  0  0  0.255081  0  4.057639  0  0  0.119844  0.225977  0  4.028924  0
C  C53  1  0.97903884  0.93985347  0.62350217  1  0  0.25547  0  3.797545  0  0  0.237107  0  4.04133  0  0  0.25478  0  4.057894  0  0  0.11983  0.22568  0  4.02917  0
C  C54  1  0.82328229  0.36480427  0.85684104  1  0  -0.244134  0  3.721033  0  0  -0.257856  0  3.975644  0  0  -0.269717  0  3.994377  0  0  -0.110828  -0.2499  0  3.962903  0
C  C55  1  0.82329217  0.13520617  0.35683962  1  0  -0.2445  0  3.721133  0  0  -0.258263  0  3.975762  0  0  -0.270123  0  3.994487  0  0  -0.111009  -0.250307  0  3.963021  0
C  C56  1  0.17671095  0.63519608  0.14316212  1  0  -0.244273  0  3.721229  0  0  -0.257963  0  3.975817  0  0  -0.269825  0  3.994549  0  0  -0.110876  -0.250006  0  3.963075  0
C  C57  1  0.17670105  0.86481042  0.64316215  1  0  -0.243822  0  3.721165  0  0  -0.257568  0  3.975714  0  0  -0.269429  0  3.99445  0  0  -0.110765  -0.24961  0  3.962965  0
C  C58  1  0.82846220  0.24866478  0.89193858  1  0  0.123468  0  3.798018  0  0  0.091722  0  4.054658  0  0  0.103165  0  4.070877  0  0  0.026547  0.08429  0  4.043629  0
C  C59  1  0.82848235  0.25134501  0.39194626  1  0  0.123625  0  3.797935  0  0  0.091905  0  4.05452  0  0  0.103348  0  4.070737  0  0  0.026648  0.084471  0  4.043487  0
C  C60  1  0.17152756  0.75133286  0.10806158  1  0  0.123562  0  3.798117  0  0  0.091824  0  4.054733  0  0  0.103264  0  4.070955  0  0  0.02656  0.084386  0  4.043698  0
C  C61  1  0.17155210  0.74867429  0.60806221  1  0  0.123536  0  3.7983  0  0  0.091782  0  4.054905  0  0  0.103224  0  4.071125  0  0  0.026511  0.084361  0  4.043879  0
C  C62  1  0.23393273  0.62789569  0.86621690  1  0  -0.16934  0  3.665179  0  0  -0.269596  0  3.912429  0  0  -0.265543  0  3.923326  0  0  -0.139245  -0.272018  0  3.904647  0
C  C63  1  0.23391362  0.87210052  0.36621150  1  0  -0.169165  0  3.665179  0  0  -0.269459  0  3.912523  0  0  -0.265401  0  3.92342  0  0  -0.139143  -0.271906  0  3.904733  0
C  C64  1  0.76609136  0.37210196  0.13378744  1  0  -0.169234  0  3.665194  0  0  -0.269531  0  3.912553  0  0  -0.265481  0  3.923454  0  0  -0.139199  -0.271963  0  3.904766  0
C  C65  1  0.76604540  0.12789081  0.63379307  1  0  -0.169294  0  3.665123  0  0  -0.269542  0  3.912493  0  0  -0.265484  0  3.923389  0  0  -0.139158  -0.271962  0  3.904719  0
C  C66  1  0.83650349  0.61430883  0.78676019  1  0  -0.171202  0  3.660294  0  0  -0.26738  0  3.898601  0  0  -0.263916  0  3.909526  0  0  -0.143606  -0.26929  0  3.890452  0
C  C67  1  0.83648936  0.88570585  0.28675345  1  0  -0.171044  0  3.660366  0  0  -0.267234  0  3.898725  0  0  -0.263769  0  3.909648  0  0  -0.143606  -0.269143  0  3.890575  0
C  C68  1  0.16351726  0.38569513  0.21324884  1  0  -0.171076  0  3.660116  0  0  -0.267247  0  3.898487  0  0  -0.263782  0  3.909407  0  0  -0.143598  -0.269162  0  3.890346  0
C  C69  1  0.16347283  0.11431255  0.71323735  1  0  -0.170996  0  3.660439  0  0  -0.267227  0  3.898772  0  0  -0.263762  0  3.909698  0  0  -0.14362  -0.269144  0  3.890627  0
C  C70  1  0.53661406  0.05908005  0.11520594  1  0  0.284748  0  4.02383  0  0  0.267296  0  4.325408  0  0  0.287849  0  4.339542  0  0  0.145435  0.253242  0  4.315959  0
C  C71  1  0.53662344  0.44091525  0.61521361  1  0  0.284558  0  4.024143  0  0  0.267083  0  4.325758  0  0  0.287636  0  4.339889  0  0  0.145272  0.253034  0  4.316305  0
C  C72  1  0.46337915  0.94091760  0.88479513  1  0  0.284685  0  4.02394  0  0  0.267221  0  4.325532  0  0  0.287776  0  4.339664  0  0  0.145405  0.253168  0  4.316081  0
C  C73  1  0.46342111  0.55907428  0.38478570  1  0  0.284499  0  4.023599  0  0  0.267034  0  4.325215  0  0  0.287591  0  4.339355  0  0  0.145264  0.252978  0  4.31576  0
S  S74  1  0.30418987  0.05990652  0.16403307  1  0  -0.327618  0  2.154838  0  0  -0.292503  0  2.478171  0  0  -0.306909  0  2.47088  0  0  -0.123268  -0.282863  0  2.483273  0
S  S75  1  0.30421802  0.44008190  0.66404250  1  0  -0.327509  0  2.155095  0  0  -0.292375  0  2.478424  0  0  -0.306776  0  2.471123  0  0  -0.123194  -0.282731  0  2.483524  0
S  S76  1  0.69579463  0.94008482  0.83596048  1  0  -0.327561  0  2.154817  0  0  -0.292448  0  2.478161  0  0  -0.306844  0  2.470845  0  0  -0.123226  -0.282809  0  2.48327  0
S  S77  1  0.69582147  0.55990583  0.33596138  1  0  -0.327423  0  2.155352  0  0  -0.292291  0  2.478676  0  0  -0.306698  0  2.471392  0  0  -0.123197  -0.28265  0  2.483775  0
N  N78  1  0.01369650  0.19789992  0.94477479  1  0  -0.385203  0  3.310988  0  0  -0.308889  0  3.580759  0  0  -0.331881  0  3.599498  0  0  -0.361795  -0.293129  0  3.567091  0
N  N79  1  0.01372248  0.30210161  0.44477806  1  0  -0.385177  0  3.311157  0  0  -0.308864  0  3.580955  0  0  -0.331857  0  3.599698  0  0  -0.361706  -0.293108  0  3.567291  0
N  N80  1  0.98630687  0.80209773  0.05522061  1  0  -0.38519  0  3.310881  0  0  -0.308905  0  3.58071  0  0  -0.3319  0  3.599453  0  0  -0.36179  -0.293147  0  3.567044  0
N  N81  1  0.98633073  0.69789784  0.55522666  1  0  -0.3853  0  3.311021  0  0  -0.309033  0  3.58096  0  0  -0.33202  0  3.599679  0  0  -0.361849  -0.293273  0  3.567288  0
N  N82  1  0.02932880  0.55387870  0.84343103  1  0  -0.094992  0  3.465036  0  0  0.011577  0  3.684919  0  0  -0.008751  0  3.710777  0  0  -0.283635  0.025703  0  3.666175  0
N  N83  1  0.02931663  0.94612597  0.34342745  1  0  -0.094779  0  3.465013  0  0  0.011812  0  3.684873  0  0  -0.008522  0  3.710747  0  0  -0.283612  0.025936  0  3.66613  0
N  N84  1  0.97068503  0.44612256  0.15657409  1  0  -0.094916  0  3.46525  0  0  0.011697  0  3.685108  0  0  -0.008638  0  3.710982  0  0  -0.283645  0.025822  0  3.666364  0
N  N85  1  0.97064401  0.05387438  0.65657234  1  0  -0.094745  0  3.465328  0  0  0.011755  0  3.685261  0  0  -0.008576  0  3.71113  0  0  -0.283792  0.025881  0  3.666514  0
N  N86  1  0.70650845  0.06032313  0.08101757  1  0  -0.525946  0  2.874478  0  0  -0.473176  0  3.15278  0  0  -0.493145  0  3.161016  0  0  -0.390124  -0.459994  0  3.147424  0
N  N87  1  0.70650743  0.43968123  0.58102590  1  0  -0.525861  0  2.874451  0  0  -0.473069  0  3.152746  0  0  -0.49304  0  3.160977  0  0  -0.39006  -0.459888  0  3.147389  0
N  N88  1  0.29349323  0.93966730  0.91897912  1  0  -0.525897  0  2.874767  0  0  -0.473119  0  3.153091  0  0  -0.49309  0  3.161324  0  0  -0.390132  -0.459936  0  3.147737  0
N  N89  1  0.29350126  0.56032003  0.41897890  1  0  -0.525893  0  2.873731  0  0  -0.473096  0  3.152035  0  0  -0.493072  0  3.160277  0  0  -0.39006  -0.459909  0  3.146674  0
