# generated using pymatgen
data_Cu3H20C12(N11O)2
_symmetry_space_group_name_H-M   'P 1'
_cell_length_a   7.81841318
_cell_length_b   8.51729653
_cell_length_c   10.80589216
_cell_angle_alpha   67.81709433
_cell_angle_beta   72.70617776
_cell_angle_gamma   87.12992285
_symmetry_Int_Tables_number   1
_chemical_formula_structural   Cu3H20C12(N11O)2
_chemical_formula_sum   'Cu3 H20 C12 N22 O2'
_cell_volume   634.62474686
_cell_formula_units_Z   1
loop_
 _symmetry_equiv_pos_site_id
 _symmetry_equiv_pos_as_xyz
  1  'x, y, z'
loop_
 _atom_site_type_symbol
 _atom_site_label
 _atom_site_symmetry_multiplicity
 _atom_site_fract_x
 _atom_site_fract_y
 _atom_site_fract_z
 _atom_site_occupancy
 _atom_site_hle17_ddec_charge
 _atom_site_hle17_ddec_spin_density
 _atom_site_hle17_ddec_sum_bond_order
 _atom_site_hle17_magmom
 _atom_site_hse06_10hf_ddec_charge
 _atom_site_hse06_10hf_ddec_spin_density
 _atom_site_hse06_10hf_ddec_sum_bond_order
 _atom_site_hse06_10hf_magmom
 _atom_site_hse06_ddec_charge
 _atom_site_hse06_ddec_spin_density
 _atom_site_hse06_ddec_sum_bond_order
 _atom_site_hse06_magmom
 _atom_site_pbe_cm5_charge
 _atom_site_pbe_ddec_charge
 _atom_site_pbe_ddec_spin_density
 _atom_site_pbe_ddec_sum_bond_order
 _atom_site_pbe_magmom
Cu  Cu0  1  0.49751280  0.49851014  0.00102960  1  0.766599  0.52793  2.040097  0.354  0.804595  0.712524  2.437747  0.538  0.901893  0.818838  2.359533  0.644  0.766823  0.749475  0.620657  2.486773  0.458
Cu  Cu1  1  0.10395292  0.35637173  0.10945702  1  0.780902  0.587914  1.972638  0.394  0.787938  0.721208  2.384101  0.544  0.881578  0.815027  2.309201  0.64  0.771276  0.737577  0.654142  2.430099  0.482
Cu  Cu2  1  0.89813340  0.64407478  0.89054750  1  0.776934  -0.554258  1.978628  -0.358  0.784679  -0.735601  2.390729  -0.542  0.881369  -0.857092  2.313843  -0.646  0.76993  0.733238  -0.630081  2.437048  -0.46
H  H3  1  0.86542555  0.54278669  0.30459370  1  0.108935  0.000233  0.954349  0.0  0.118489  0.000533  1.016969  0.001  0.120667  0.000462  1.016193  0.001  0.119127  0.116699  0.000581  1.017722  0.001
H  H4  1  0.13561299  0.45698458  0.69500515  1  0.109412  -0.000247  0.954235  0.0  0.119015  -0.000429  1.016517  -0.001  0.120917  -0.00039  1.016097  -0.001  0.119557  0.117694  -0.000372  1.016795  -0.001
H  H5  1  0.61494998  0.34645847  0.55741622  1  0.116795  0.000725  0.983638  0.001  0.12044  0.000722  1.055429  0.001  0.123037  0.00058  1.053839  0.0  0.11963  0.118584  0.00081  1.056511  0.001
H  H6  1  0.38545353  0.65348987  0.44217187  1  0.11596  -0.000435  0.983813  -0.001  0.119781  -0.000329  1.055628  -0.001  0.122578  -0.000254  1.053882  0.0  0.119422  0.11791  -0.000311  1.056585  -0.001
H  H7  1  0.88957999  0.87378734  0.43830746  1  0.076125  -0.000291  0.939458  0.0  0.085521  -0.000368  1.005269  0.0  0.087244  -0.000335  1.004047  0.0  0.104329  0.084291  -0.000364  1.006096  0.0
H  H8  1  0.11072701  0.12604905  0.56157042  1  0.076694  0.000644  0.941029  0.0  0.085297  0.000624  1.007321  0.0  0.086877  0.000531  1.006159  0.0  0.104238  0.084422  0.000756  1.008042  0.0
H  H9  1  0.80808526  0.95556113  0.29082702  1  0.072092  -0.000175  0.932985  0.0  0.08473  -0.000119  0.998957  0.0  0.086705  -0.000155  0.996889  0.0  0.107386  0.083303  -0.000127  1.000393  0.0
H  H10  1  0.19227291  0.04428437  0.70895921  1  0.07311  0.000476  0.933261  0.0  0.084721  0.000351  1.00005  0.0  0.086401  0.000323  0.998334  0.0  0.107638  0.083686  0.00045  1.001178  0.0
H  H11  1  0.58307945  0.90274481  0.57474431  1  0.102777  -0.000195  0.965464  0.0  0.119377  -0.000132  1.034195  0.0  0.120108  -0.000107  1.034744  0.0  0.104842  0.118582  -0.000147  1.03418  0.0
H  H12  1  0.41679525  0.09740085  0.42518500  1  0.103804  0.000234  0.965336  0.0  0.119879  0.00022  1.034537  0.0  0.12023  0.000157  1.035599  0.0  0.105257  0.119734  0.000281  1.033658  0.0
H  H13  1  0.49497036  0.04311364  0.66309249  1  0.111129  -0.00013  0.966886  0.0  0.129137  -6.2e-05  1.036209  0.0  0.130044  -7.8e-05  1.035289  0.0  0.108445  0.128554  -3.4e-05  1.036711  0.0
H  H14  1  0.50540471  0.95708962  0.33685829  1  0.110071  6.8e-05  0.967222  0.0  0.128704  0.0001  1.036222  0.0  0.130108  9.5e-05  1.034773  0.0  0.108161  0.127481  0.000102  1.037459  0.0
H  H15  1  0.69566867  0.94448146  0.68204597  1  0.117678  -5.3e-05  0.967398  0.0  0.132858  1e-06  1.033947  0.0  0.134341  9e-06  1.032966  0.0  0.107366  0.131466  -4e-06  1.035072  0.0
H  H16  1  0.30457366  0.05550808  0.31776021  1  0.11721  -1.4e-05  0.967912  0.0  0.132108  -2.6e-05  1.034973  0.0  0.133483  -3.3e-05  1.034123  0.0  0.107239  0.130999  -2.1e-05  1.035757  0.0
H  H17  1  0.26666097  0.93531823  0.11700486  1  0.099213  -0.000126  0.929861  0.0  0.117057  -5.3e-05  0.990461  0.0  0.117352  -3.5e-05  0.990889  0.0  0.104029  0.116844  -6.1e-05  0.990147  0.0
H  H18  1  0.73359833  0.06468368  0.88276798  1  0.099251  0.000265  0.930054  0.0  0.117418  0.000223  0.990241  0.0  0.117883  0.000165  0.990431  0.0  0.104248  0.116997  0.00028  0.990216  0.0
H  H19  1  0.03907294  0.88934200  0.12872650  1  0.079572  -9.7e-05  0.955288  0.0  0.096484  -3.7e-05  1.023033  0.0  0.098414  1e-05  1.021872  0.0  0.091244  0.095224  -7.6e-05  1.02363  0.0
H  H20  1  0.96121685  0.11063106  0.87116866  1  0.07905  0.000314  0.955053  0.0  0.095846  0.000229  1.022975  0.0  0.09766  0.000138  1.021913  0.0  0.091088  0.094705  0.00035  1.023527  0.0
H  H21  1  0.12813613  0.76929571  0.26952639  1  0.077377  -1.4e-05  0.933986  0.0  0.094517  -2.1e-05  0.998433  0.0  0.095733  -1.3e-05  0.997674  0.0  0.091042  0.093772  -1e-06  0.998761  0.0
H  H22  1  0.87224129  0.23057000  0.73026067  1  0.076863  6.4e-05  0.934561  0.0  0.093854  9.1e-05  0.999373  0.0  0.095073  6.4e-05  0.998609  0.0  0.090897  0.093125  0.000124  0.999655  0.0
C  C23  1  0.84688158  0.14068955  0.37264483  1  0.274537  -0.003209  3.663974  -0.003  0.250437  0.000155  3.924103  0.0  0.266109  -0.00099  3.939688  -0.001  0.211215  0.240263  0.000765  3.91379  0.001
C  C24  1  0.15339793  0.85913245  0.62712955  1  0.275597  0.005379  3.66126  0.005  0.250443  0.000744  3.922732  0.001  0.266033  0.001376  3.9384  0.002  0.211435  0.24048  0.000163  3.912329  0.0
C  C25  1  0.83226625  0.40692628  0.35246092  1  0.005035  0.000775  3.750985  0.0  -0.03105  0.001902  4.028343  0.001  -0.027489  0.000887  4.049148  0.0  -0.008306  -0.033115  0.002254  4.014817  0.002
C  C26  1  0.16832310  0.59290693  0.64715542  1  0.006077  0.001528  3.750823  0.002  -0.031228  -0.000561  4.029709  0.0  -0.027885  -0.000113  4.050841  0.0  -0.008039  -0.033036  -0.001051  4.015534  -0.001
C  C27  1  0.70881627  0.31187935  0.47705323  1  -0.058235  0.004739  3.675273  0.004  -0.100063  0.002616  3.934888  0.002  -0.099159  0.002174  3.953613  0.002  0.001449  -0.100642  0.002999  3.92203  0.003
C  C28  1  0.29164844  0.68809146  0.52255730  1  -0.056855  -0.00237  3.67317  -0.002  -0.098996  -0.001804  3.933133  -0.002  -0.097952  -0.001875  3.951571  -0.002  0.001676  -0.099543  -0.001729  3.920121  -0.002
C  C29  1  0.89953360  0.98582413  0.34113796  1  -0.003016  -2e-05  3.684239  0.0  -0.056356  -0.000131  3.937013  0.0  -0.051823  -0.000127  3.940708  0.0  -0.058264  -0.059419  -7.4e-05  3.934677  0.0
C  C30  1  0.10078454  0.01400429  0.65870565  1  -0.004185  0.000439  3.683463  0.0  -0.056794  0.000658  3.936876  0.0  -0.05238  0.000476  3.941436  0.0  -0.058828  -0.060016  0.000669  3.933867  0.001
C  C31  1  0.61722018  0.99927523  0.60897156  1  -0.184199  0.000426  3.624832  0.001  -0.287942  0.000294  3.871596  0.001  -0.284446  0.000233  3.879661  0.001  -0.140204  -0.28996  0.000354  3.866261  0.001
C  C32  1  0.38299045  0.00080669  0.39088133  1  -0.184479  -0.000195  3.625801  -0.001  -0.288893  -0.000103  3.873279  -0.001  -0.285464  -0.000154  3.881357  -0.001  -0.140526  -0.290829  5e-06  3.867664  -0.001
C  C33  1  0.12972186  0.89590152  0.18784025  1  -0.078388  -0.000323  3.633571  0.0  -0.167013  -0.000152  3.891965  0.0  -0.161409  -7.5e-05  3.895633  0.0  -0.148714  -0.170612  -0.000168  3.889229  0.0
C  C34  1  0.87060853  0.10401742  0.81202714  1  -0.077499  0.000586  3.634323  0.0  -0.166337  0.000508  3.892543  0.0  -0.160647  0.000323  3.8961  0.0  -0.148672  -0.169932  0.000643  3.889862  0.0
N  N35  1  0.91619954  0.29896888  0.28840991  1  -0.400852  0.064432  3.363179  0.075  -0.357459  0.051834  3.670741  0.065  -0.389672  0.045175  3.690525  0.06  -0.385643  -0.339093  0.054158  3.659246  0.066
N  N36  1  0.08425022  0.70073627  0.71129485  1  -0.400048  -0.059763  3.364413  -0.068  -0.357922  -0.051591  3.673942  -0.064  -0.390123  -0.046738  3.693108  -0.06  -0.386495  -0.339488  -0.050476  3.662908  -0.061
N  N37  1  0.32546074  0.39462506  0.94561591  1  -0.554205  0.080912  2.980413  0.094  -0.579094  0.062889  3.355074  0.078  -0.630722  0.048975  3.363853  0.066  -0.371025  -0.551742  0.067856  3.353572  0.08
N  N38  1  0.67382410  0.60577493  0.05286196  1  -0.538323  0.014028  2.947436  0.017  -0.571265  0.006993  3.326199  0.01  -0.627015  0.003438  3.339686  0.006  -0.361829  -0.539116  0.008465  3.318947  0.011
N  N39  1  0.28599919  0.45283256  0.17124221  1  -0.549554  0.083408  2.945268  0.097  -0.575921  0.066095  3.316005  0.083  -0.628241  0.050093  3.327195  0.069  -0.358651  -0.547886  0.072487  3.312684  0.086
N  N40  1  0.71223118  0.55033447  0.82982421  1  -0.54013  0.01699  2.918145  0.021  -0.573512  0.004501  3.292793  0.006  -0.628987  0.001329  3.307176  0.003  -0.352476  -0.541636  0.005199  3.285048  0.006
N  N41  1  0.95502686  0.31190492  0.00458326  1  -0.488872  0.110303  2.698208  0.126  -0.551208  0.049869  3.063064  0.063  -0.599631  0.028913  3.080164  0.041  -0.311168  -0.523169  0.062756  3.053833  0.074
N  N42  1  0.04414463  0.68944432  0.99611698  1  -0.496337  -0.105891  2.707302  -0.116  -0.554259  -0.050977  3.070861  -0.062  -0.601099  -0.032261  3.086571  -0.042  -0.314738  -0.527172  -0.059439  3.062249  -0.07
N  N43  1  0.79952113  0.25986529  0.05742204  1  0.375604  -0.041462  4.173067  -0.058  0.429016  -0.004668  4.49677  -0.013  0.449455  -0.006645  4.539559  -0.014  0.077398  0.416197  -0.001661  4.469465  -0.01
N  N44  1  0.19966481  0.74150133  0.94281820  1  0.377128  0.034671  4.176783  0.052  0.428636  0.002953  4.498868  0.012  0.448218  0.004988  4.541331  0.013  0.077254  0.416645  0.000172  4.471117  0.009
N  N45  1  0.35757251  0.31198704  0.87242554  1  0.407168  -0.027984  4.144918  -0.039  0.457678  -0.003858  4.429092  -0.011  0.479038  -0.009634  4.459488  -0.018  0.103201  0.444268  0.001323  4.410555  -0.005
N  N46  1  0.64196732  0.68678838  0.12757422  1  0.405427  -0.006231  4.130652  -0.009  0.455006  -0.001013  4.42417  -0.002  0.476472  -0.000812  4.459428  -0.001  0.106047  0.441761  -0.000747  4.399277  -0.002
N  N47  1  0.71981795  0.14464720  0.48852538  1  -0.051173  0.001129  3.547216  0.001  0.047006  0.001277  3.755915  0.002  0.032227  0.000926  3.781872  0.001  -0.240346  0.056795  0.001532  3.738081  0.002
N  N48  1  0.28047267  0.85530313  0.51120244  1  -0.051847  -0.00132  3.545421  -0.002  0.046618  -0.001106  3.754488  -0.001  0.032093  -0.000852  3.780054  -0.001  -0.240962  0.056199  -0.00122  3.736966  -0.001
N  N49  1  0.29011898  0.41899868  0.28969079  1  0.400209  -0.028148  4.140812  -0.04  0.448567  -0.003394  4.431449  -0.012  0.469686  -0.009231  4.463708  -0.018  0.096909  0.435319  0.002079  4.411772  -0.005
N  N50  1  0.70954162  0.58066255  0.71131563  1  0.401612  -0.009301  4.127634  -0.013  0.449944  -0.001829  4.424541  -0.003  0.471077  -0.001522  4.460989  -0.002  0.101459  0.436973  -0.001553  4.398969  -0.003
N  N51  1  0.64663605  0.21522997  0.10036173  1  -0.336005  0.156794  2.398098  0.166  -0.384253  0.071412  2.669699  0.08  -0.406442  0.05769  2.684581  0.068  -0.183501  -0.370829  0.079927  2.660415  0.086
N  N52  1  0.35249710  0.78622731  0.89961477  1  -0.337373  -0.151098  2.396967  -0.152  -0.382457  -0.073229  2.666465  -0.078  -0.403195  -0.061853  2.681208  -0.068  -0.182741  -0.369241  -0.077  2.656681  -0.08
N  N53  1  0.38530380  0.23557179  0.80021489  1  -0.314931  0.11962  2.356331  0.126  -0.313263  0.074565  2.570529  0.083  -0.316555  0.068284  2.577918  0.081  -0.14055  -0.313054  0.076723  2.566549  0.082
N  N54  1  0.61418487  0.76269853  0.20005523  1  -0.300019  0.021701  2.352147  0.023  -0.30701  0.007486  2.570897  0.009  -0.315535  0.003494  2.581847  0.005  -0.131667  -0.299727  0.012299  2.561971  0.013
N  N55  1  0.29068614  0.38879520  0.40392428  1  -0.316897  0.125863  2.361557  0.133  -0.316642  0.08045  2.578736  0.09  -0.321881  0.07281  2.588194  0.086  -0.142614  -0.315036  0.083659  2.573196  0.09
N  N56  1  0.70926005  0.60929076  0.59735633  1  -0.306073  0.030275  2.358513  0.032  -0.313635  0.007238  2.579227  0.008  -0.323463  0.003315  2.591842  0.004  -0.135968  -0.305487  0.011289  2.56909  0.012
O  O57  1  0.07803254  0.02073697  0.24847823  1  -0.273398  -0.000807  2.351456  0.0  -0.207018  -0.000919  2.612567  0.0  -0.224926  -0.001059  2.614034  -0.001  -0.22973  -0.194939  -0.000795  2.611797  0.0
O  O58  1  0.92227389  0.97908832  0.75145864  1  -0.273055  0.001292  2.35045  0.001  -0.206208  0.001249  2.611114  0.001  -0.223965  0.001133  2.612525  0.001  -0.229598  -0.194543  0.001203  2.610644  0.001
