# generated using pymatgen
data_ZnH22C28(NO4)2
_symmetry_space_group_name_H-M   'P 1'
_cell_length_a   8.72976909
_cell_length_b   11.47954428
_cell_length_c   14.36984887
_cell_angle_alpha   69.90374668
_cell_angle_beta   72.30191502
_cell_angle_gamma   67.68074273
_symmetry_Int_Tables_number   1
_chemical_formula_structural   ZnH22C28(NO4)2
_chemical_formula_sum   'Zn2 H44 C56 N4 O16'
_cell_volume   1225.85715962
_cell_formula_units_Z   2
loop_
 _symmetry_equiv_pos_site_id
 _symmetry_equiv_pos_as_xyz
  1  'x, y, z'
loop_
 _atom_site_type_symbol
 _atom_site_label
 _atom_site_symmetry_multiplicity
 _atom_site_fract_x
 _atom_site_fract_y
 _atom_site_fract_z
 _atom_site_occupancy
 _atom_site_hle17_bader_spin_density
 _atom_site_hle17_ddec_charge
 _atom_site_hle17_ddec_spin_density
 _atom_site_hle17_ddec_sum_bond_order
 _atom_site_hle17_magmom
 _atom_site_hse06_10hf_bader_spin_density
 _atom_site_hse06_10hf_ddec_charge
 _atom_site_hse06_10hf_ddec_spin_density
 _atom_site_hse06_10hf_ddec_sum_bond_order
 _atom_site_hse06_10hf_magmom
 _atom_site_hse06_bader_spin_density
 _atom_site_hse06_ddec_charge
 _atom_site_hse06_ddec_spin_density
 _atom_site_hse06_ddec_sum_bond_order
 _atom_site_hse06_magmom
 _atom_site_pbe_bader_spin_density
 _atom_site_pbe_cm5_charge
 _atom_site_pbe_ddec_charge
 _atom_site_pbe_ddec_spin_density
 _atom_site_pbe_ddec_sum_bond_order
 _atom_site_pbe_magmom
Zn  Zn0  1  0.42479266  0.25001344  0.74998232  1  0  0.989301  0  1.839875  0  0  0.797276  0  2.30521  0  0  0.84507  0  2.252965  0  0  0.692657  0.763872  0  2.341182  0
Zn  Zn1  1  0.57520801  0.74998754  0.25001747  1  0  0.989278  0  1.83995  0  0  0.797237  0  2.305305  0  0  0.84503  0  2.253058  0  0  0.692529  0.763706  0  2.341281  0
H  H2  1  0.24229109  0.87641870  0.74630805  1  0  0.099345  0  0.964895  0  0  0.105547  0  1.034694  0  0  0.110008  0  1.030007  0  0  0.106689  0.102349  0  1.038063  0
H  H3  1  0.86524133  0.62381393  0.75383092  1  0  0.099364  0  0.965087  0  0  0.105389  0  1.035162  0  0  0.109829  0  1.030505  0  0  0.106686  0.102172  0  1.038556  0
H  H4  1  0.75770781  0.12358423  0.25369112  1  0  0.099385  0  0.96486  0  0  0.105566  0  1.034678  0  0  0.110027  0  1.029993  0  0  0.106701  0.102361  0  1.038056  0
H  H5  1  0.13475903  0.37618607  0.24616975  1  0  0.099342  0  0.96511  0  0  0.105371  0  1.035184  0  0  0.109811  0  1.030527  0  0  0.106696  0.102153  0  1.038581  0
H  H6  1  0.05781774  0.64978182  0.03829735  1  0  0.116937  0  0.942304  0  0  0.126133  0  1.003207  0  0  0.129996  0  0.999834  0  0  0.109657  0.123381  0  1.005556  0
H  H7  1  0.74587698  0.85002030  0.46190745  1  0  0.116356  0  0.94271  0  0  0.126363  0  1.002656  0  0  0.130075  0  0.999484  0  0  0.110009  0.123659  0  1.005006  0
H  H8  1  0.94218530  0.35021917  0.96170127  1  0  0.116959  0  0.942401  0  0  0.126168  0  1.003283  0  0  0.130031  0  0.999908  0  0  0.109683  0.123418  0  1.00562  0
H  H9  1  0.25411718  0.14997773  0.53809456  1  0  0.11624  0  0.942848  0  0  0.126324  0  1.002699  0  0  0.130029  0  0.999549  0  0  0.10996  0.123611  0  1.005063  0
H  H10  1  0.09861494  0.79038306  0.12061967  1  0  0.096512  0  0.931074  0  0  0.110385  0  0.982697  0  0  0.113383  0  0.982387  0  0  0.103008  0.108188  0  0.983212  0
H  H11  1  0.00949600  0.70936342  0.37954862  1  0  0.09598  0  0.931723  0  0  0.110014  0  0.983153  0  0  0.11302  0  0.982821  0  0  0.103  0.10782  0  0.983534  0
H  H12  1  0.90138846  0.20961597  0.87938094  1  0  0.096479  0  0.931105  0  0  0.110356  0  0.982719  0  0  0.113352  0  0.982411  0  0  0.103018  0.108151  0  0.983244  0
H  H13  1  0.99049936  0.29063755  0.62045165  1  0  0.095998  0  0.931693  0  0  0.110037  0  0.983116  0  0  0.113043  0  0.982783  0  0  0.102992  0.107833  0  0.983506  0
H  H14  1  0.21273663  0.97588104  0.01398544  1  0  0.095096  0  0.969292  0  0  0.105964  0  1.032272  0  0  0.108735  0  1.030555  0  0  0.103587  0.103937  0  1.033524  0
H  H15  1  0.20267310  0.52431071  0.48609172  1  0  0.095266  0  0.969926  0  0  0.105986  0  1.033179  0  0  0.10874  0  1.031483  0  0  0.103393  0.103943  0  1.034493  0
H  H16  1  0.78726817  0.02411800  0.98601378  1  0  0.095085  0  0.969266  0  0  0.105933  0  1.032264  0  0  0.108704  0  1.03055  0  0  0.103598  0.103905  0  1.033527  0
H  H17  1  0.79732846  0.47569223  0.51390721  1  0  0.095315  0  0.969914  0  0  0.106016  0  1.033183  0  0  0.108769  0  1.03149  0  0  0.103393  0.103968  0  1.034508  0
H  H18  1  0.59331327  0.58732199  0.82584606  1  0  0.11768  0  0.974311  0  0  0.127731  0  1.035476  0  0  0.130569  0  1.035359  0  0  0.109932  0.125644  0  1.03577  0
H  H19  1  0.00646392  0.91270850  0.67414406  1  0  0.118491  0  0.973396  0  0  0.128573  0  1.034472  0  0  0.131417  0  1.034365  0  0  0.110073  0.126458  0  1.034862  0
H  H20  1  0.40668541  0.41267800  0.17415508  1  0  0.117654  0  0.974331  0  0  0.127713  0  1.035489  0  0  0.130551  0  1.035372  0  0  0.109937  0.125651  0  1.035778  0
H  H21  1  0.99353594  0.08728857  0.32585765  1  0  0.11853  0  0.973415  0  0  0.128608  0  1.034484  0  0  0.13146  0  1.034365  0  0  0.110072  0.12648  0  1.034889  0
H  H22  1  0.38393146  0.32280201  0.08631764  1  0  0.125499  0  0.976112  0  0  0.133995  0  1.037745  0  0  0.138099  0  1.035101  0  0  0.111541  0.131042  0  1.039803  0
H  H23  1  0.79306210  0.17692586  0.41376491  1  0  0.126056  0  0.974743  0  0  0.134599  0  1.036274  0  0  0.138812  0  1.033508  0  0  0.111753  0.131541  0  1.038534  0
H  H24  1  0.61607163  0.67719603  0.91368386  1  0  0.125416  0  0.976152  0  0  0.133933  0  1.037786  0  0  0.138035  0  1.035148  0  0  0.111533  0.130981  0  1.039848  0
H  H25  1  0.20693879  0.82307319  0.58623341  1  0  0.126053  0  0.974771  0  0  0.134635  0  1.036266  0  0  0.138853  0  1.033485  0  0  0.111766  0.131573  0  1.038531  0
H  H26  1  0.36291558  0.22064230  0.96714765  1  0  0.09139  0  0.927205  0  0  0.104366  0  0.981998  0  0  0.106768  0  0.979822  0  0  0.124953  0.10251  0  0.983685  0
H  H27  1  0.55085857  0.27907245  0.53297372  1  0  0.091742  0  0.926756  0  0  0.104703  0  0.981393  0  0  0.107122  0  0.979235  0  0  0.125107  0.102873  0  0.983121  0
H  H28  1  0.63708783  0.77935673  0.03285296  1  0  0.091394  0  0.927168  0  0  0.104374  0  0.981952  0  0  0.106778  0  0.979774  0  0  0.12494  0.102501  0  0.983651  0
H  H29  1  0.44914427  0.72092660  0.46702505  1  0  0.091715  0  0.926763  0  0  0.104671  0  0.981407  0  0  0.107089  0  0.97925  0  0  0.125079  0.102834  0  0.983131  0
H  H30  1  0.63107757  0.40267560  0.65257488  1  0  0.112051  0  0.972887  0  0  0.13058  0  1.039858  0  0  0.131876  0  1.039377  0  0  0.094601  0.129627  0  1.040233  0
H  H31  1  0.68634010  0.09721873  0.84748649  1  0  0.111606  0  0.973154  0  0  0.13058  0  1.039702  0  0  0.131918  0  1.0392  0  0  0.094561  0.129611  0  1.040068  0
H  H32  1  0.36891974  0.59732537  0.34742584  1  0  0.11204  0  0.972899  0  0  0.130592  0  1.03985  0  0  0.131881  0  1.039376  0  0  0.094617  0.129639  0  1.040218  0
H  H33  1  0.31365978  0.90277933  0.15251341  1  0  0.111613  0  0.973138  0  0  0.130596  0  1.039675  0  0  0.131934  0  1.039174  0  0  0.09456  0.129623  0  1.040049  0
H  H34  1  0.67179443  0.53745415  0.66469661  1  0  0.121648  0  0.966227  0  0  0.142073  0  1.02622  0  0  0.142612  0  1.027982  0  0  0.094629  0.141669  0  1.025029  0
H  H35  1  0.87383546  0.96251135  0.83529688  1  0  0.121867  0  0.966697  0  0  0.142389  0  1.026512  0  0  0.142961  0  1.028241  0  0  0.094503  0.141922  0  1.025398  0
H  H36  1  0.32820455  0.46254682  0.33530364  1  0  0.121646  0  0.966175  0  0  0.142081  0  1.026156  0  0  0.142619  0  1.027918  0  0  0.094614  0.141655  0  1.024983  0
H  H37  1  0.12616305  0.03748768  0.16470260  1  0  0.121862  0  0.966695  0  0  0.142381  0  1.026519  0  0  0.142952  0  1.02825  0  0  0.094494  0.141913  0  1.025399  0
H  H38  1  0.46625204  0.55180388  0.65547987  1  0  0.144257  0  0.927921  0  0  0.166103  0  0.9836  0  0  0.167791  0  0.982868  0  0  0.10448  0.16488  0  0.984159  0
H  H39  1  0.67346738  0.94802695  0.84459689  1  0  0.144446  0  0.92603  0  0  0.166545  0  0.981539  0  0  0.168264  0  0.980769  0  0  0.104463  0.165393  0  0.982007  0
H  H40  1  0.53374653  0.44819707  0.34452200  1  0  0.14427  0  0.927926  0  0  0.166119  0  0.983601  0  0  0.167807  0  0.982869  0  0  0.104489  0.164897  0  0.984154  0
H  H41  1  0.32653211  0.05197208  0.15540282  1  0  0.144478  0  0.926036  0  0  0.166574  0  0.981549  0  0  0.168294  0  0.980777  0  0  0.104462  0.165402  0  0.982035  0
H  H42  1  0.07756540  0.51808280  0.84756002  1  0  0.403045  0  0.887097  0  0  0.373438  0  0.965412  0  0  0.385293  0  0.952699  0  0  0.303647  0.365075  0  0.97437  0
H  H43  1  0.44362785  0.98186134  0.65253855  1  0  0.403201  0  0.886397  0  0  0.37388  0  0.964455  0  0  0.385703  0  0.951762  0  0  0.303706  0.365582  0  0.973293  0
H  H44  1  0.92243655  0.48191916  0.15243910  1  0  0.403035  0  0.887113  0  0  0.373449  0  0.96539  0  0  0.385304  0  0.952678  0  0  0.303666  0.365098  0  0.97436  0
H  H45  1  0.55637310  0.01813963  0.34746215  1  0  0.403111  0  0.886535  0  0  0.373819  0  0.964524  0  0  0.385642  0  0.951834  0  0  0.303696  0.365524  0  0.973375  0
C  C46  1  0.23277580  0.93851743  0.87402420  1  0  -0.075782  0  3.772575  0  0  -0.049248  0  4.00666  0  0  -0.060069  0  4.030221  0  0  -0.019  -0.042374  0  3.990935  0
C  C47  1  0.04545439  0.56164566  0.62609581  1  0  -0.075513  0  3.772313  0  0  -0.048475  0  4.005778  0  0  -0.05921  0  4.029193  0  0  -0.019467  -0.041837  0  3.990208  0
C  C48  1  0.76722704  0.06148162  0.12597456  1  0  -0.075842  0  3.772751  0  0  -0.0493  0  4.006795  0  0  -0.060122  0  4.030356  0  0  -0.018999  -0.042422  0  3.991059  0
C  C49  1  0.95454709  0.43835436  0.37390254  1  0  -0.075483  0  3.77236  0  0  -0.048416  0  4.005789  0  0  -0.059149  0  4.029203  0  0  -0.019432  -0.041784  0  3.990228  0
C  C50  1  0.21062788  0.85853784  0.82819972  1  0  -0.059752  0  3.723254  0  0  -0.097831  0  3.97078  0  0  -0.09357  0  3.98817  0  0  -0.074219  -0.10042  0  3.959151  0
C  C51  1  0.89756848  0.64160059  0.67193735  1  0  -0.060678  0  3.720971  0  0  -0.098846  0  3.968715  0  0  -0.094555  0  3.98601  0  0  -0.074555  -0.1013  0  3.957044  0
C  C52  1  0.78937320  0.14146315  0.17179844  1  0  -0.05975  0  3.723204  0  0  -0.097813  0  3.970735  0  0  -0.093553  0  3.988124  0  0  -0.074219  -0.10042  0  3.95912  0
C  C53  1  0.10242727  0.35839941  0.32806312  1  0  -0.060658  0  3.721031  0  0  -0.098842  0  3.96877  0  0  -0.094554  0  3.986066  0  0  -0.074572  -0.101276  0  3.957077  0
C  C54  1  0.14931271  0.75407960  0.88654567  1  0  -0.100429  0  3.796675  0  0  -0.073622  0  4.031473  0  0  -0.084703  0  4.055903  0  0  -0.024418  -0.066559  0  4.015147  0
C  C55  1  0.79020654  0.74598153  0.61360828  1  0  -0.099212  0  3.793316  0  0  -0.072411  0  4.028817  0  0  -0.083455  0  4.053211  0  0  -0.024441  -0.06549  0  4.012329  0
C  C56  1  0.85068935  0.24592140  0.11345272  1  0  -0.100502  0  3.796746  0  0  -0.073692  0  4.031554  0  0  -0.084773  0  4.055984  0  0  -0.024457  -0.066631  0  4.015235  0
C  C57  1  0.20979128  0.25401750  0.38639190  1  0  -0.099189  0  3.793272  0  0  -0.072384  0  4.028797  0  0  -0.083426  0  4.05319  0  0  -0.02443  -0.065464  0  4.012296  0
C  C58  1  0.10770750  0.72995720  0.99238915  1  0  -0.038188  0  3.674843  0  0  -0.068575  0  3.928117  0  0  -0.064582  0  3.945112  0  0  -0.07299  -0.070665  0  3.916291  0
C  C59  1  0.83009548  0.76998660  0.50777649  1  0  -0.037917  0  3.672447  0  0  -0.068855  0  3.92617  0  0  -0.06478  0  3.94319  0  0  -0.072561  -0.07115  0  3.914162  0
C  C60  1  0.89229346  0.27004476  0.00760974  1  0  -0.038253  0  3.674907  0  0  -0.068645  0  3.928175  0  0  -0.064652  0  3.94517  0  0  -0.073047  -0.070742  0  3.916353  0
C  C61  1  0.16989731  0.23001241  0.49222511  1  0  -0.03779  0  3.672508  0  0  -0.068777  0  3.926217  0  0  -0.064706  0  3.943233  0  0  -0.072521  -0.071079  0  3.914225  0
C  C62  1  0.13120047  0.80926944  0.03842449  1  0  -0.076041  0  3.75499  0  0  -0.089812  0  4.018207  0  0  -0.09566  0  4.040416  0  0  -0.088898  -0.086154  0  4.003038  0
C  C63  1  0.97883558  0.69065037  0.46172756  1  0  -0.074528  0  3.752592  0  0  -0.088532  0  4.016217  0  0  -0.094362  0  4.038467  0  0  -0.089064  -0.084358  0  4.000311  0
C  C64  1  0.86880226  0.19073057  0.96157501  1  0  -0.075971  0  3.75494  0  0  -0.08975  0  4.018166  0  0  -0.095598  0  4.040375  0  0  -0.088921  -0.086103  0  4.003021  0
C  C65  1  0.02116087  0.30934963  0.53827221  1  0  -0.074611  0  3.75256  0  0  -0.088629  0  4.016215  0  0  -0.094459  0  4.03846  0  0  -0.089114  -0.084463  0  4.000328  0
C  C66  1  0.19444276  0.91243988  0.97968688  1  0  -0.050665  0  3.720312  0  0  -0.079718  0  3.970305  0  0  -0.076834  0  3.990652  0  0  -0.076546  -0.081001  0  3.956133  0
C  C67  1  0.08660847  0.58768008  0.52043962  1  0  -0.052065  0  3.721148  0  0  -0.081197  0  3.971512  0  0  -0.078373  0  3.99192  0  0  -0.076425  -0.08265  0  3.957181  0
C  C68  1  0.80555997  0.08756013  0.02031262  1  0  -0.050596  0  3.720339  0  0  -0.07963  0  3.970322  0  0  -0.076747  0  3.99067  0  0  -0.07654  -0.080916  0  3.956155  0
C  C69  1  0.91338915  0.41232187  0.47956021  1  0  -0.052074  0  3.721115  0  0  -0.081205  0  3.97149  0  0  -0.078379  0  3.991895  0  0  -0.07641  -0.082676  0  3.95719  0
C  C70  1  0.29758271  0.04975118  0.80959038  1  0  0.657467  0  3.881453  0  0  0.603064  0  4.176504  0  0  0.638736  0  4.16733  0  0  0.210882  0.578811  0  4.182218  0
C  C71  1  0.15684255  0.45034559  0.69051547  1  0  0.658027  0  3.884287  0  0  0.603545  0  4.179223  0  0  0.639258  0  4.170006  0  0  0.210857  0.57942  0  4.184815  0
C  C72  1  0.70242130  0.95024981  0.19040846  1  0  0.657492  0  3.88137  0  0  0.6031  0  4.176403  0  0  0.638772  0  4.167228  0  0  0.210895  0.578827  0  4.18212  0
C  C73  1  0.84315803  0.54965734  0.30948324  1  0  0.658005  0  3.884189  0  0  0.6035  0  4.179151  0  0  0.639212  0  4.169936  0  0  0.210794  0.579367  0  4.184704  0
C  C74  1  0.13537107  0.67089260  0.83153380  1  0  0.639917  0  3.843394  0  0  0.591564  0  4.140251  0  0  0.624477  0  4.133259  0  0  0.224748  0.56925  0  4.144471  0
C  C75  1  0.63820035  0.82922077  0.66859614  1  0  0.63919  0  3.843536  0  0  0.590271  0  4.141311  0  0  0.623151  0  4.134377  0  0  0.22411  0.568028  0  4.145438  0
C  C76  1  0.86462959  0.32910838  0.16846598  1  0  0.640015  0  3.843402  0  0  0.591648  0  4.140285  0  0  0.624561  0  4.133294  0  0  0.224795  0.569337  0  4.144507  0
C  C77  1  0.36179775  0.17077825  0.33140496  1  0  0.639038  0  3.843769  0  0  0.59009  0  4.141599  0  0  0.62297  0  4.134667  0  0  0.224031  0.567867  0  4.145699  0
C  C78  1  0.52995057  0.44105435  0.79898962  1  0  0.327706  0  3.707684  0  0  0.33124  0  3.952493  0  0  0.340785  0  3.972622  0  0  0.126315  0.324817  0  3.938787  0
C  C79  1  0.77007894  0.05888425  0.70106663  1  0  0.328768  0  3.709738  0  0  0.333519  0  3.952699  0  0  0.343092  0  3.972797  0  0  0.127005  0.327263  0  3.93886  0
C  C80  1  0.47004951  0.55894566  0.20101013  1  0  0.327685  0  3.707701  0  0  0.331234  0  3.95251  0  0  0.340781  0  3.972634  0  0  0.126331  0.324818  0  3.938791  0
C  C81  1  0.22992181  0.94111477  0.29893423  1  0  0.328847  0  3.709683  0  0  0.333571  0  3.952684  0  0  0.343142  0  3.972784  0  0  0.127027  0.327308  0  3.938848  0
C  C82  1  0.54361512  0.50514027  0.86145780  1  0  -0.19667  0  3.628042  0  0  -0.220746  0  3.867987  0  0  -0.230045  0  3.889768  0  0  -0.077156  -0.214649  0  3.853438  0
C  C83  1  0.91026742  0.99485424  0.63854679  1  0  -0.198889  0  3.62828  0  0  -0.222961  0  3.868436  0  0  -0.232297  0  3.890259  0  0  -0.07751  -0.216837  0  3.853488  0
C  C84  1  0.45638236  0.49485679  0.13854508  1  0  -0.196655  0  3.628085  0  0  -0.220756  0  3.86802  0  0  -0.230055  0  3.8898  0  0  -0.077156  -0.214678  0  3.853487  0
C  C85  1  0.08973344  0.00514382  0.36145333  1  0  -0.198973  0  3.628336  0  0  -0.223027  0  3.868496  0  0  -0.23237  0  3.890314  0  0  -0.077518  -0.216893  0  3.853567  0
C  C86  1  0.49211223  0.46634356  0.96671512  1  0  0.107129  0  3.74277  0  0  0.118295  0  3.97681  0  0  0.122791  0  3.998413  0  0  0.019062  0.115442  0  3.962159  0
C  C87  1  0.92519763  0.03360580  0.53331426  1  0  0.107906  0  3.739394  0  0  0.118198  0  3.975662  0  0  0.122669  0  3.997362  0  0  0.019714  0.115559  0  3.960291  0
C  C88  1  0.50788880  0.53365545  0.03328666  1  0  0.107103  0  3.742718  0  0  0.118326  0  3.976742  0  0  0.122821  0  3.998348  0  0  0.019049  0.115453  0  3.962123  0
C  C89  1  0.07480225  0.96639226  0.46668564  1  0  0.10789  0  3.739461  0  0  0.1182  0  3.975728  0  0  0.122671  0  3.997428  0  0  0.019713  0.115554  0  3.960364  0
C  C90  1  0.42532270  0.36141276  0.00566475  1  0  -0.143284  0  3.659469  0  0  -0.167561  0  3.913139  0  0  -0.175234  0  3.932984  0  0  -0.075633  -0.162768  0  3.900046  0
C  C91  1  0.79243725  0.13842201  0.49440146  1  0  -0.143796  0  3.659452  0  0  -0.167634  0  3.913309  0  0  -0.175424  0  3.933216  0  0  -0.076445  -0.1628  0  3.900157  0
C  C92  1  0.57467891  0.63858722  0.99433707  1  0  -0.143132  0  3.659339  0  0  -0.167479  0  3.91304  0  0  -0.175154  0  3.932885  0  0  -0.075637  -0.162697  0  3.899978  0
C  C93  1  0.20756255  0.86157800  0.50559737  1  0  -0.143791  0  3.659561  0  0  -0.167694  0  3.913453  0  0  -0.175483  0  3.933361  0  0  -0.076485  -0.162871  0  3.900316  0
C  C94  1  0.41492365  0.30172235  0.93976621  1  0  0.151142  0  3.684859  0  0  0.116571  0  3.94152  0  0  0.125017  0  3.957768  0  0  0.052452  0.111057  0  3.930523  0
C  C95  1  0.65651212  0.19805319  0.56034559  1  0  0.151412  0  3.687029  0  0  0.116904  0  3.943782  0  0  0.125311  0  3.960118  0  0  0.053391  0.11139  0  3.932776  0
C  C96  1  0.58508014  0.69827570  0.06023459  1  0  0.151129  0  3.684826  0  0  0.116591  0  3.941485  0  0  0.125037  0  3.957734  0  0  0.052452  0.111062  0  3.930496  0
C  C97  1  0.34348905  0.80194585  0.43965365  1  0  0.151473  0  3.686993  0  0  0.116979  0  3.943755  0  0  0.125385  0  3.960091  0  0  0.053432  0.11146  0  3.932735  0
C  C98  1  0.57882391  0.48534385  0.68659218  1  0  -0.38195  0  3.68844  0  0  -0.462362  0  3.919742  0  0  -0.464953  0  3.926593  0  0  -0.240253  -0.460397  0  3.915007  0
C  C99  1  0.75068963  0.01456832  0.81345356  1  0  -0.38197  0  3.687391  0  0  -0.463561  0  3.918273  0  0  -0.466259  0  3.925017  0  0  -0.240005  -0.46147  0  3.913498  0
C  C100  1  0.42117745  0.51465713  0.31340691  1  0  -0.381955  0  3.688443  0  0  -0.462406  0  3.919751  0  0  -0.464993  0  3.926607  0  0  -0.240288  -0.460438  0  3.915011  0
C  C101  1  0.24930858  0.98542973  0.18654681  1  0  -0.382016  0  3.687359  0  0  -0.463591  0  3.91822  0  0  -0.466293  0  3.924968  0  0  -0.240012  -0.4615  0  3.913461  0
N  N102  1  0.46681575  0.33919775  0.83858542  1  0  -0.393657  0  3.258349  0  0  -0.311715  0  3.528543  0  0  -0.332174  0  3.542473  0  0  -0.329075  -0.29786  0  3.519012  0
N  N103  1  0.64470973  0.16066905  0.66150144  1  0  -0.395096  0  3.261572  0  0  -0.313531  0  3.531443  0  0  -0.333978  0  3.545326  0  0  -0.330487  -0.299715  0  3.521847  0
N  N104  1  0.53318422  0.66080323  0.16141506  1  0  -0.393658  0  3.258373  0  0  -0.311728  0  3.528556  0  0  -0.332188  0  3.542486  0  0  -0.329071  -0.297845  0  3.518988  0
N  N105  1  0.35529143  0.83932999  0.33849780  1  0  -0.395167  0  3.261564  0  0  -0.313605  0  3.531471  0  0  -0.334045  0  3.545346  0  0  -0.330523  -0.299766  0  3.521853  0
O  O106  1  0.33441493  0.11217375  0.85482519  1  0  -0.626896  0  2.027299  0  0  -0.553628  0  2.291993  0  0  -0.582552  0  2.278153  0  0  -0.320266  -0.533594  0  2.301051  0
O  O107  1  0.30146575  0.38809761  0.64530032  1  0  -0.627258  0  2.027445  0  0  -0.554337  0  2.292621  0  0  -0.583251  0  2.278635  0  0  -0.320371  -0.534278  0  2.301546  0
O  O108  1  0.66558554  0.88782529  0.14517474  1  0  -0.626912  0  2.027187  0  0  -0.553654  0  2.291903  0  0  -0.582579  0  2.278062  0  0  -0.320245  -0.533557  0  2.300937  0
O  O109  1  0.69853561  0.61190337  0.35469876  1  0  -0.627298  0  2.027564  0  0  -0.554334  0  2.292715  0  0  -0.583245  0  2.278724  0  0  -0.320389  -0.534315  0  2.301657  0
O  O110  1  0.31356812  0.08034016  0.71429591  1  0  -0.641315  0  1.989119  0  0  -0.587484  0  2.217924  0  0  -0.611913  0  2.206924  0  0  -0.32095  -0.570435  0  2.225009  0
O  O111  1  0.10773358  0.41954708  0.78577404  1  0  -0.64142  0  1.990733  0  0  -0.587293  0  2.219362  0  0  -0.611749  0  2.208385  0  0  -0.320566  -0.57021  0  2.226439  0
O  O112  1  0.68643156  0.91966082  0.28570365  1  0  -0.641292  0  1.98911  0  0  -0.587474  0  2.217894  0  0  -0.611904  0  2.206892  0  0  -0.320961  -0.570415  0  2.224994  0
O  O113  1  0.89226867  0.58045586  0.21422419  1  0  -0.641359  0  1.990553  0  0  -0.587235  0  2.219177  0  0  -0.611694  0  2.208206  0  0  -0.320537  -0.570164  0  2.226211  0
O  O114  1  0.18131883  0.68950655  0.73861053  1  0  -0.57437  0  1.957454  0  0  -0.53035  0  2.177919  0  0  -0.551908  0  2.17186  0  0  -0.296473  -0.515433  0  2.181725  0
O  O115  1  0.60976955  0.81078260  0.76151449  1  0  -0.574522  0  1.957886  0  0  -0.529702  0  2.178061  0  0  -0.551284  0  2.172106  0  0  -0.296265  -0.51492  0  2.181872  0
O  O116  1  0.81868225  0.31049445  0.26138764  1  0  -0.574388  0  1.957488  0  0  -0.530358  0  2.177963  0  0  -0.551914  0  2.171903  0  0  -0.296459  -0.515419  0  2.181742  0
O  O117  1  0.39022941  0.18921738  0.23848757  1  0  -0.574433  0  1.957998  0  0  -0.529616  0  2.178199  0  0  -0.551197  0  2.172246  0  0  -0.296199  -0.514832  0  2.182006  0
O  O118  1  0.07150052  0.57532092  0.89063221  1  0  -0.541972  0  2.088128  0  0  -0.492809  0  2.30553  0  0  -0.515027  0  2.292914  0  0  -0.330583  -0.477231  0  2.313796  0
O  O119  1  0.53789212  0.92461637  0.60948481  1  0  -0.541944  0  2.087376  0  0  -0.492989  0  2.30477  0  0  -0.515144  0  2.29222  0  0  -0.330394  -0.477473  0  2.31303  0
O  O120  1  0.92850045  0.42468104  0.10936669  1  0  -0.542007  0  2.088079  0  0  -0.492864  0  2.305497  0  0  -0.515079  0  2.292874  0  0  -0.330631  -0.477313  0  2.313788  0
O  O121  1  0.46210656  0.07538362  0.39051633  1  0  -0.541841  0  2.087469  0  0  -0.492887  0  2.304867  0  0  -0.515041  0  2.292322  0  0  -0.330398  -0.477412  0  2.313148  0
