# generated using pymatgen
data_CuH8C6N2Cl
_symmetry_space_group_name_H-M   'P 1'
_cell_length_a   6.56387318
_cell_length_b   11.12612122
_cell_length_c   11.32098414
_cell_angle_alpha   70.58412122
_cell_angle_beta   72.97491219
_cell_angle_gamma   72.82677563
_symmetry_Int_Tables_number   1
_chemical_formula_structural   CuH8C6N2Cl
_chemical_formula_sum   'Cu4 H32 C24 N8 Cl4'
_cell_volume   727.40613375
_cell_formula_units_Z   4
loop_
 _symmetry_equiv_pos_site_id
 _symmetry_equiv_pos_as_xyz
  1  'x, y, z'
loop_
 _atom_site_type_symbol
 _atom_site_label
 _atom_site_symmetry_multiplicity
 _atom_site_fract_x
 _atom_site_fract_y
 _atom_site_fract_z
 _atom_site_occupancy
 _atom_site_hle17_bader_spin_density
 _atom_site_hle17_ddec_charge
 _atom_site_hle17_ddec_spin_density
 _atom_site_hle17_ddec_sum_bond_order
 _atom_site_hle17_magmom
 _atom_site_hse06_10hf_bader_spin_density
 _atom_site_hse06_10hf_ddec_charge
 _atom_site_hse06_10hf_ddec_spin_density
 _atom_site_hse06_10hf_ddec_sum_bond_order
 _atom_site_hse06_10hf_magmom
 _atom_site_hse06_bader_spin_density
 _atom_site_hse06_ddec_charge
 _atom_site_hse06_ddec_spin_density
 _atom_site_hse06_ddec_sum_bond_order
 _atom_site_hse06_magmom
 _atom_site_pbe_bader_spin_density
 _atom_site_pbe_cm5_charge
 _atom_site_pbe_ddec_charge
 _atom_site_pbe_ddec_spin_density
 _atom_site_pbe_ddec_sum_bond_order
 _atom_site_pbe_magmom
Cu  Cu0  1  0.92732421  0.41800351  0.92135832  1  0  0.470502  0  1.932779  0  0  0.369332  0  2.396408  0  0  0.358688  0  2.361016  0  0  0.480467  0.378955  0  2.417559  0
Cu  Cu1  1  0.26657146  0.08239877  0.57868021  1  0  0.468669  0  1.934248  0  0  0.36698  0  2.398042  0  0  0.356466  0  2.362627  0  0  0.47972  0.376952  0  2.418732  0
Cu  Cu2  1  0.07266730  0.58200479  0.07864594  1  0  0.470554  0  1.932676  0  0  0.369428  0  2.396301  0  0  0.358814  0  2.360909  0  0  0.48048  0.379054  0  2.417438  0
Cu  Cu3  1  0.73345844  0.91758617  0.42130852  1  0  0.468661  0  1.934199  0  0  0.36703  0  2.398004  0  0  0.356542  0  2.362615  0  0  0.479742  0.377043  0  2.418581  0
H  H4  1  0.47952299  0.78985149  0.65040021  1  0  0.088261  0  0.98765  0  0  0.092061  0  1.058545  0  0  0.095221  0  1.056522  0  0  0.10527  0.089508  0  1.060485  0
H  H5  1  0.91812132  0.71067897  0.85107409  1  0  0.087658  0  0.987654  0  0  0.09169  0  1.058473  0  0  0.094837  0  1.056454  0  0  0.104674  0.089094  0  1.060512  0
H  H6  1  0.52048035  0.21015396  0.34958462  1  0  0.08821  0  0.987928  0  0  0.092003  0  1.058832  0  0  0.09516  0  1.05681  0  0  0.105246  0.08945  0  1.060767  0
H  H7  1  0.08184174  0.28933224  0.14893128  1  0  0.087641  0  0.987575  0  0  0.091638  0  1.058469  0  0  0.094781  0  1.056455  0  0  0.104715  0.089041  0  1.06051  0
H  H8  1  0.54663284  0.59851669  0.84298542  1  0  0.099444  0  0.976168  0  0  0.103283  0  1.046901  0  0  0.107063  0  1.044367  0  0  0.10221  0.100442  0  1.048886  0
H  H9  1  0.98536388  0.90274174  0.65874162  1  0  0.101665  0  0.976174  0  0  0.104345  0  1.04791  0  0  0.108192  0  1.045348  0  0  0.102399  0.101387  0  1.049992  0
H  H10  1  0.45336947  0.40149850  0.15700697  1  0  0.099425  0  0.976136  0  0  0.103257  0  1.046896  0  0  0.107039  0  1.044359  0  0  0.102216  0.100417  0  1.048879  0
H  H11  1  0.01461009  0.09726755  0.34125887  1  0  0.101689  0  0.976227  0  0  0.104287  0  1.048044  0  0  0.10813  0  1.045478  0  0  0.102383  0.101326  0  1.050126  0
H  H12  1  0.21778985  0.36137373  0.71594890  1  0  0.115691  0  0.958696  0  0  0.131858  0  1.031909  0  0  0.13678  0  1.026191  0  0  0.090438  0.128441  0  1.035374  0
H  H13  1  0.29893782  0.13801279  0.78323049  1  0  0.116753  0  0.958942  0  0  0.132624  0  1.031976  0  0  0.137593  0  1.026225  0  0  0.090331  0.12914  0  1.035493  0
H  H14  1  0.78220670  0.63861015  0.28406411  1  0  0.115663  0  0.958905  0  0  0.131807  0  1.032151  0  0  0.136729  0  1.02643  0  0  0.090386  0.128388  0  1.03562  0
H  H15  1  0.70111060  0.86197027  0.21674105  1  0  0.116712  0  0.95882  0  0  0.132561  0  1.031902  0  0  0.137532  0  1.026156  0  0  0.09033  0.129073  0  1.035419  0
H  H16  1  0.36075839  0.48757310  0.66474005  1  0  0.127957  0  0.9427  0  0  0.150111  0  1.000989  0  0  0.151515  0  1.001607  0  0  0.095024  0.148874  0  1.000857  0
H  H17  1  0.51485232  0.01114588  0.83569808  1  0  0.127731  0  0.942036  0  0  0.149381  0  1.000716  0  0  0.150724  0  1.001437  0  0  0.095097  0.148196  0  1.00052  0
H  H18  1  0.63924553  0.51241562  0.33528315  1  0  0.127976  0  0.942694  0  0  0.150132  0  1.000988  0  0  0.151536  0  1.001603  0  0  0.095022  0.148894  0  1.000856  0
H  H19  1  0.48515401  0.98883407  0.16432191  1  0  0.127752  0  0.941986  0  0  0.149404  0  1.00065  0  0  0.150745  0  1.001371  0  0  0.095097  0.148219  0  1.000452  0
H  H20  1  0.30504685  0.43394232  0.54797025  1  0  0.114796  0  0.960313  0  0  0.134916  0  1.022567  0  0  0.135391  0  1.024391  0  0  0.092856  0.134394  0  1.021639  0
H  H21  1  0.28736088  0.06614616  0.95147650  1  0  0.115314  0  0.961047  0  0  0.134943  0  1.023706  0  0  0.135441  0  1.02552  0  0  0.092551  0.134559  0  1.02253  0
H  H22  1  0.69497922  0.56604645  0.45204042  1  0  0.114772  0  0.96036  0  0  0.134915  0  1.022578  0  0  0.135391  0  1.024407  0  0  0.092893  0.134393  0  1.021652  0
H  H23  1  0.71260896  0.93387588  0.04850587  1  0  0.115398  0  0.961205  0  0  0.135032  0  1.023788  0  0  0.135531  0  1.025601  0  0  0.092559  0.134647  0  1.022614  0
H  H24  1  0.10365087  0.77232727  0.35324719  1  0  0.113817  0  0.975094  0  0  0.126481  0  1.05299  0  0  0.131281  0  1.048176  0  0  0.087781  0.123005  0  1.056258  0
H  H25  1  0.23273403  0.72649293  0.14563701  1  0  0.112779  0  0.975588  0  0  0.125478  0  1.053643  0  0  0.130223  0  1.048929  0  0  0.087169  0.122126  0  1.056665  0
H  H26  1  0.89638445  0.22767224  0.64676337  1  0  0.113883  0  0.975139  0  0  0.126561  0  1.052986  0  0  0.131318  0  1.048205  0  0  0.087833  0.123086  0  1.056256  0
H  H27  1  0.76722420  0.27352904  0.85436325  1  0  0.112675  0  0.975548  0  0  0.125459  0  1.053534  0  0  0.130203  0  1.048822  0  0  0.08719  0.122112  0  1.056551  0
H  H28  1  0.22864750  0.60181004  0.38170019  1  0  0.116307  0  0.957898  0  0  0.137891  0  1.016074  0  0  0.137915  0  1.018388  0  0  0.093753  0.137818  0  1.014555  0
H  H29  1  0.21171586  0.89734555  0.11825359  1  0  0.114588  0  0.958978  0  0  0.136535  0  1.016845  0  0  0.136572  0  1.019134  0  0  0.093112  0.136264  0  1.015596  0
H  H30  1  0.77136718  0.39818951  0.61829763  1  0  0.116329  0  0.957848  0  0  0.137849  0  1.016147  0  0  0.137873  0  1.018458  0  0  0.09373  0.137776  0  1.014629  0
H  H31  1  0.78828565  0.10266968  0.88172692  1  0  0.11457  0  0.958906  0  0  0.136502  0  1.01682  0  0  0.136538  0  1.019117  0  0  0.093099  0.136235  0  1.015569  0
H  H32  1  0.30551261  0.70365029  0.44588100  1  0  0.135402  0  0.946284  0  0  0.158407  0  0.999732  0  0  0.159895  0  1.000549  0  0  0.092984  0.157325  0  0.999012  0
H  H33  1  0.45656586  0.79765787  0.05244384  1  0  0.134125  0  0.947069  0  0  0.156961  0  1.000787  0  0  0.158445  0  1.001594  0  0  0.093096  0.15585  0  1.000099  0
H  H34  1  0.69451589  0.29633066  0.55413375  1  0  0.135356  0  0.946124  0  0  0.158289  0  0.999692  0  0  0.159777  0  1.000512  0  0  0.09291  0.157222  0  0.998956  0
H  H35  1  0.54341639  0.20233384  0.94755948  1  0  0.134169  0  0.947214  0  0  0.157016  0  1.000903  0  0  0.158502  0  1.001709  0  0  0.093125  0.155905  0  1.000214  0
C  C36  1  0.02706772  0.55034822  0.64672778  1  0  0.205936  0  3.657087  0  0  0.212261  0  3.898336  0  0  0.217379  0  3.915616  0  0  0.115491  0.20855  0  3.88696  0
C  C37  1  0.22475275  0.94970822  0.85322098  1  0  0.199922  0  3.66098  0  0  0.20646  0  3.902064  0  0  0.211565  0  3.919369  0  0  0.113298  0.202749  0  3.890971  0
C  C38  1  0.97293202  0.44965720  0.35326697  1  0  0.205516  0  3.657329  0  0  0.212078  0  3.898349  0  0  0.217218  0  3.915617  0  0  0.115425  0.208358  0  3.886974  0
C  C39  1  0.77523464  0.05029719  0.14677338  1  0  0.199852  0  3.660901  0  0  0.206507  0  3.90196  0  0  0.211618  0  3.919275  0  0  0.113341  0.20279  0  3.890871  0
C  C40  1  0.99119762  0.65966959  0.54143275  1  0  0.212381  0  3.657224  0  0  0.218816  0  3.897654  0  0  0.22326  0  3.915139  0  0  0.120019  0.215474  0  3.886426  0
C  C41  1  0.19315960  0.84006055  0.95841586  1  0  0.215533  0  3.654406  0  0  0.221281  0  3.895521  0  0  0.225713  0  3.912983  0  0  0.120934  0.217562  0  3.884566  0
C  C42  1  0.00883709  0.34032118  0.45856652  1  0  0.212233  0  3.657114  0  0  0.218571  0  3.897582  0  0  0.223008  0  3.91506  0  0  0.1199  0.215249  0  3.886351  0
C  C43  1  0.80683178  0.15993996  0.04158236  1  0  0.215431  0  3.654603  0  0  0.221103  0  3.895791  0  0  0.225526  0  3.913256  0  0  0.120793  0.217385  0  3.884835  0
C  C44  1  0.63716332  0.72161092  0.65188478  1  0  0.066363  0  3.694394  0  0  0.033329  0  3.955661  0  0  0.037318  0  3.96717  0  0  0.026216  0.02977  0  3.949634  0
C  C45  1  0.00939846  0.77890079  0.84919284  1  0  0.066165  0  3.693982  0  0  0.03262  0  3.955541  0  0  0.036672  0  3.966818  0  0  0.026324  0.029523  0  3.949036  0
C  C46  1  0.36286413  0.27838768  0.34810730  1  0  0.066234  0  3.6943  0  0  0.033184  0  3.955579  0  0  0.037173  0  3.967085  0  0  0.026207  0.029641  0  3.949551  0
C  C47  1  0.99057852  0.22111242  0.15080221  1  0  0.066407  0  3.693744  0  0  0.032872  0  3.955261  0  0  0.036922  0  3.966529  0  0  0.026345  0.029774  0  3.94876  0
C  C48  1  0.67360832  0.61697118  0.75641138  1  0  0.060885  0  3.69367  0  0  0.025561  0  3.959942  0  0  0.029711  0  3.97019  0  0  0.024462  0.022625  0  3.95418  0
C  C49  1  0.04522907  0.88392965  0.74477983  1  0  0.057732  0  3.695031  0  0  0.023205  0  3.961678  0  0  0.027352  0  3.971672  0  0  0.023615  0.020189  0  3.955719  0
C  C50  1  0.32639466  0.38303619  0.24358367  1  0  0.06119  0  3.693635  0  0  0.025885  0  3.959947  0  0  0.030033  0  3.970213  0  0  0.024521  0.022948  0  3.954173  0
C  C51  1  0.95474010  0.11608060  0.25522484  1  0  0.057624  0  3.694845  0  0  0.023207  0  3.961557  0  0  0.027371  0  3.97155  0  0  0.023653  0.020189  0  3.955598  0
C  C52  1  0.23934269  0.45298586  0.64245534  1  0  -0.358647  0  3.724926  0  0  -0.442024  0  3.961081  0  0  -0.445496  0  3.967832  0  0  -0.242604  -0.439164  0  3.956408  0
C  C53  1  0.33654515  0.04664264  0.85719925  1  0  -0.358315  0  3.723799  0  0  -0.440352  0  3.959653  0  0  -0.443881  0  3.966423  0  0  -0.241643  -0.43757  0  3.955052  0
C  C54  1  0.76065286  0.54701267  0.35755262  1  0  -0.358418  0  3.725145  0  0  -0.441861  0  3.961191  0  0  -0.445345  0  3.967956  0  0  -0.242558  -0.439004  0  3.956527  0
C  C55  1  0.66346113  0.95336086  0.14278547  1  0  -0.358377  0  3.723883  0  0  -0.440388  0  3.959704  0  0  -0.443921  0  3.966461  0  0  -0.241665  -0.437607  0  3.955101  0
C  C56  1  0.16708586  0.68484295  0.42408105  1  0  -0.362323  0  3.706488  0  0  -0.440868  0  3.936728  0  0  -0.444835  0  3.94425  0  0  -0.244775  -0.437639  0  3.931439  0
C  C57  1  0.27750414  0.81483975  0.07516798  1  0  -0.35798  0  3.705035  0  0  -0.436351  0  3.93542  0  0  -0.440257  0  3.942928  0  0  -0.243374  -0.433195  0  3.930393  0
C  C58  1  0.83293354  0.31514485  0.57592737  1  0  -0.362269  0  3.706181  0  0  -0.440732  0  3.936526  0  0  -0.444657  0  3.944098  0  0  -0.244733  -0.437517  0  3.931213  0
C  C59  1  0.72247835  0.18516564  0.92483285  1  0  -0.357878  0  3.705009  0  0  -0.436342  0  3.935462  0  0  -0.44025  0  3.942978  0  0  -0.243379  -0.433186  0  3.930431  0
N  N60  1  0.87042008  0.53146977  0.75630646  1  0  -0.310701  0  3.359756  0  0  -0.247221  0  3.658412  0  0  -0.248106  0  3.659165  0  0  -0.364907  -0.247631  0  3.657935  0
N  N61  1  0.15750506  0.96919741  0.74424755  1  0  -0.307074  0  3.359552  0  0  -0.243324  0  3.657405  0  0  -0.244206  0  3.658131  0  0  -0.36282  -0.243553  0  3.656945  0
N  N62  1  0.12959222  0.46853366  0.24369761  1  0  -0.310791  0  3.360079  0  0  -0.247443  0  3.658781  0  0  -0.248354  0  3.659562  0  0  -0.36497  -0.247844  0  3.658294  0
N  N63  1  0.84249059  0.03080117  0.25574764  1  0  -0.307014  0  3.359249  0  0  -0.243437  0  3.657225  0  0  -0.244347  0  3.657986  0  0  -0.362921  -0.243663  0  3.656764  0
N  N64  1  0.79594703  0.74620599  0.54497602  1  0  -0.298442  0  3.344756  0  0  -0.235674  0  3.637483  0  0  -0.236946  0  3.639633  0  0  -0.358357  -0.235736  0  3.636547  0
N  N65  1  0.08722332  0.75365807  0.95546413  1  0  -0.301239  0  3.340829  0  0  -0.238245  0  3.63425  0  0  -0.239364  0  3.636269  0  0  -0.360004  -0.238326  0  3.633492  0
N  N66  1  0.20406377  0.25378379  0.45502389  1  0  -0.298104  0  3.344442  0  0  -0.235277  0  3.637128  0  0  -0.236536  0  3.63926  0  0  -0.358132  -0.235376  0  3.636213  0
N  N67  1  0.91274501  0.24634729  0.04454127  1  0  -0.301205  0  3.341036  0  0  -0.238157  0  3.634436  0  0  -0.239258  0  3.636435  0  0  -0.359879  -0.238237  0  3.63368  0
Cl  Cl68  1  0.27690090  0.44258139  0.93868927  1  0  -0.595792  0  1.118841  0  0  -0.526479  0  1.441245  0  0  -0.544172  0  1.418138  0  0  -0.315408  -0.513354  0  1.455632  0
Cl  Cl69  1  0.65862811  0.05765770  0.56028897  1  0  -0.595949  0  1.119211  0  0  -0.526329  0  1.441335  0  0  -0.544024  0  1.418246  0  0  -0.315436  -0.51268  0  1.455454  0
Cl  Cl70  1  0.72308333  0.55742983  0.06131722  1  0  -0.595795  0  1.118827  0  0  -0.526513  0  1.441264  0  0  -0.544204  0  1.418154  0  0  -0.315409  -0.513381  0  1.455635  0
Cl  Cl71  1  0.34138661  0.94232528  0.43970341  1  0  -0.595984  0  1.119182  0  0  -0.526367  0  1.441302  0  0  -0.544061  0  1.418213  0  0  -0.315458  -0.512722  0  1.45542  0
