# generated using pymatgen
data_RbH6C8O3F
_symmetry_space_group_name_H-M   'P 1'
_cell_length_a   6.91299305
_cell_length_b   7.11430922
_cell_length_c   18.12872342
_cell_angle_alpha   89.99994094
_cell_angle_beta   92.10584212
_cell_angle_gamma   89.99990776
_symmetry_Int_Tables_number   1
_chemical_formula_structural   RbH6C8O3F
_chemical_formula_sum   'Rb4 H24 C32 O12 F4'
_cell_volume   890.98969732
_cell_formula_units_Z   4
loop_
 _symmetry_equiv_pos_site_id
 _symmetry_equiv_pos_as_xyz
  1  'x, y, z'
loop_
 _atom_site_type_symbol
 _atom_site_label
 _atom_site_symmetry_multiplicity
 _atom_site_fract_x
 _atom_site_fract_y
 _atom_site_fract_z
 _atom_site_occupancy
 _atom_site_hle17_bader_spin_density
 _atom_site_hle17_ddec_charge
 _atom_site_hle17_ddec_spin_density
 _atom_site_hle17_ddec_sum_bond_order
 _atom_site_hle17_magmom
 _atom_site_hse06_10hf_bader_spin_density
 _atom_site_hse06_10hf_ddec_charge
 _atom_site_hse06_10hf_ddec_spin_density
 _atom_site_hse06_10hf_ddec_sum_bond_order
 _atom_site_hse06_10hf_magmom
 _atom_site_hse06_bader_spin_density
 _atom_site_hse06_ddec_charge
 _atom_site_hse06_ddec_spin_density
 _atom_site_hse06_ddec_sum_bond_order
 _atom_site_hse06_magmom
 _atom_site_pbe_bader_spin_density
 _atom_site_pbe_cm5_charge
 _atom_site_pbe_ddec_charge
 _atom_site_pbe_ddec_spin_density
 _atom_site_pbe_ddec_sum_bond_order
 _atom_site_pbe_magmom
Rb  Rb0  1  0.75571574  0.52229831  0.43230596  1  0  0.938038  0  0.553899  0  0  0.885107  0  0.772651  0  0  0.901081  0  0.748775  0  0  0.852763  0.873208  0  0.78963  0
Rb  Rb1  1  0.74428314  0.02230019  0.56769423  1  0  0.938034  0  0.553875  0  0  0.885114  0  0.772603  0  0  0.901088  0  0.748727  0  0  0.852753  0.873216  0  0.789581  0
Rb  Rb2  1  0.24428355  0.47769968  0.56769451  1  0  0.938047  0  0.553873  0  0  0.885111  0  0.772626  0  0  0.901086  0  0.748749  0  0  0.852765  0.873213  0  0.789604  0
Rb  Rb3  1  0.25571470  0.97769920  0.43230621  1  0  0.938042  0  0.553878  0  0  0.885114  0  0.772622  0  0  0.901087  0  0.748746  0  0  0.852764  0.873216  0  0.7896  0
H  H4  1  0.35472781  0.30946453  0.17295088  1  0  0.100557  0  0.998159  0  0  0.10748  0  1.066511  0  0  0.109302  0  1.068014  0  0  0.098852  0.106153  0  1.065598  0
H  H5  1  0.14527361  0.80947021  0.82704830  1  0  0.100552  0  0.998151  0  0  0.10748  0  1.066502  0  0  0.109303  0  1.068004  0  0  0.098868  0.106153  0  1.065589  0
H  H6  1  0.64527293  0.69052924  0.82704960  1  0  0.100555  0  0.99815  0  0  0.10748  0  1.0665  0  0  0.109302  0  1.068001  0  0  0.098876  0.106153  0  1.065587  0
H  H7  1  0.85472857  0.19053762  0.17295110  1  0  0.100571  0  0.998147  0  0  0.107476  0  1.066508  0  0  0.109294  0  1.068017  0  0  0.098865  0.106149  0  1.065595  0
H  H8  1  0.49577887  0.30102244  0.04908063  1  0  0.128793  0  0.944832  0  0  0.131081  0  1.014434  0  0  0.135287  0  1.010968  0  0  0.104832  0.128036  0  1.016984  0
H  H9  1  0.00422836  0.80102661  0.95091918  1  0  0.128813  0  0.944811  0  0  0.131081  0  1.014434  0  0  0.135288  0  1.010968  0  0  0.104828  0.128037  0  1.016984  0
H  H10  1  0.50422621  0.69897133  0.95091991  1  0  0.128868  0  0.944786  0  0  0.131145  0  1.014386  0  0  0.135351  0  1.01092  0  0  0.104855  0.128102  0  1.016936  0
H  H11  1  0.99577672  0.19898122  0.04908026  1  0  0.128823  0  0.944801  0  0  0.131113  0  1.014409  0  0  0.135318  0  1.010942  0  0  0.104835  0.128069  0  1.01696  0
H  H12  1  0.94379375  0.68523779  0.12169250  1  0  0.121774  0  0.955165  0  0  0.129552  0  1.018443  0  0  0.131868  0  1.018678  0  0  0.104995  0.12787  0  1.018401  0
H  H13  1  0.55620052  0.18523914  0.87830866  1  0  0.121788  0  0.955148  0  0  0.129572  0  1.01841  0  0  0.131888  0  1.018645  0  0  0.105026  0.12789  0  1.018368  0
H  H14  1  0.05620265  0.31476160  0.87830847  1  0  0.121808  0  0.955161  0  0  0.129594  0  1.018415  0  0  0.13191  0  1.018649  0  0  0.105031  0.127912  0  1.018373  0
H  H15  1  0.44379298  0.81476447  0.12169228  1  0  0.121798  0  0.95519  0  0  0.129562  0  1.018467  0  0  0.131876  0  1.0187  0  0  0.105016  0.12788  0  1.018425  0
H  H16  1  0.80604420  0.69316963  0.24773148  1  0  0.115773  0  0.956437  0  0  0.124278  0  1.018169  0  0  0.128541  0  1.015514  0  0  0.110848  0.121171  0  1.020225  0
H  H17  1  0.69394571  0.19317110  0.75226852  1  0  0.115769  0  0.956481  0  0  0.124278  0  1.018205  0  0  0.128542  0  1.015552  0  0  0.110872  0.121171  0  1.020262  0
H  H18  1  0.19395220  0.30682695  0.75226840  1  0  0.115746  0  0.956477  0  0  0.124244  0  1.018215  0  0  0.128509  0  1.015564  0  0  0.110832  0.121138  0  1.020272  0
H  H19  1  0.30604489  0.80683110  0.24773183  1  0  0.115732  0  0.956353  0  0  0.12422  0  1.018107  0  0  0.12849  0  1.015455  0  0  0.110804  0.121113  0  1.020164  0
H  H20  1  0.35595582  0.26833739  0.29988893  1  0  0.080955  0  0.937039  0  0  0.089038  0  1.008341  0  0  0.091122  0  1.006089  0  0  0.109767  0.087516  0  1.010117  0
H  H21  1  0.14403989  0.76834059  0.70011184  1  0  0.08092  0  0.937087  0  0  0.08901  0  1.008402  0  0  0.091092  0  1.00615  0  0  0.109756  0.08749  0  1.010178  0
H  H22  1  0.64404202  0.73165779  0.70011151  1  0  0.080911  0  0.937121  0  0  0.088956  0  1.008473  0  0  0.091034  0  1.006217  0  0  0.109747  0.087437  0  1.010244  0
H  H23  1  0.85595506  0.23166302  0.29988967  1  0  0.080979  0  0.93701  0  0  0.089042  0  1.008344  0  0  0.091125  0  1.00609  0  0  0.109767  0.087523  0  1.01012  0
H  H24  1  0.21080392  0.45741845  0.26393734  1  0  0.082202  0  0.916281  0  0  0.095753  0  0.977909  0  0  0.096491  0  0.977211  0  0  0.110021  0.095239  0  0.9785  0
H  H25  1  0.28919436  0.95742555  0.73606339  1  0  0.08215  0  0.91629  0  0  0.095741  0  0.977897  0  0  0.096479  0  0.977195  0  0  0.110014  0.095225  0  0.978487  0
H  H26  1  0.78919682  0.54257251  0.73606314  1  0  0.082148  0  0.916301  0  0  0.095734  0  0.977907  0  0  0.096472  0  0.977205  0  0  0.109994  0.095218  0  0.978497  0
H  H27  1  0.71080348  0.04258368  0.26393705  1  0  0.082185  0  0.916289  0  0  0.095762  0  0.977898  0  0  0.096499  0  0.977195  0  0  0.110029  0.09525  0  0.978489  0
C  C28  1  0.57093002  0.50395823  0.21834297  1  0  0.244334  0  3.827595  0  0  0.235642  0  4.086802  0  0  0.245142  0  4.103991  0  0  0.073781  0.229001  0  4.075167  0
C  C29  1  0.92906744  0.00396066  0.78165665  1  0  0.244338  0  3.827431  0  0  0.235607  0  4.086694  0  0  0.245108  0  4.103882  0  0  0.073754  0.228966  0  4.07506  0
C  C30  1  0.42907072  0.49603975  0.78165751  1  0  0.244268  0  3.827521  0  0  0.23553  0  4.086798  0  0  0.245029  0  4.103989  0  0  0.073711  0.22889  0  4.075165  0
C  C31  1  0.07093184  0.99604295  0.21834216  1  0  0.244329  0  3.827644  0  0  0.235645  0  4.086854  0  0  0.245148  0  4.104043  0  0  0.073786  0.229004  0  4.075218  0
C  C32  1  0.48336668  0.39227220  0.16292494  1  0  -0.181775  0  3.762991  0  0  -0.197903  0  4.013293  0  0  -0.202908  0  4.035275  0  0  -0.109179  -0.194518  0  3.998518  0
C  C33  1  0.01663171  0.89227524  0.83707471  1  0  -0.181764  0  3.762955  0  0  -0.197887  0  4.013275  0  0  -0.202892  0  4.035258  0  0  -0.109187  -0.194501  0  3.9985  0
C  C34  1  0.51663261  0.60772157  0.83707552  1  0  -0.181701  0  3.762945  0  0  -0.197824  0  4.013269  0  0  -0.202828  0  4.035251  0  0  -0.109177  -0.194438  0  3.998495  0
C  C35  1  0.98336758  0.10773118  0.16292465  1  0  -0.181808  0  3.762946  0  0  -0.197931  0  4.013302  0  0  -0.202932  0  4.035282  0  0  -0.109226  -0.194545  0  3.998526  0
C  C36  1  0.56116426  0.38727104  0.09283082  1  0  -0.154652  0  3.76424  0  0  -0.183362  0  4.029528  0  0  -0.184917  0  4.047103  0  0  -0.100172  -0.182171  0  4.01775  0
C  C37  1  0.93883835  0.88727323  0.90716927  1  0  -0.154671  0  3.764179  0  0  -0.183357  0  4.029451  0  0  -0.184914  0  4.047029  0  0  -0.100183  -0.182166  0  4.017672  0
C  C38  1  0.43883792  0.61272554  0.90717023  1  0  -0.154796  0  3.7642  0  0  -0.183484  0  4.029473  0  0  -0.18504  0  4.047046  0  0  -0.10022  -0.182293  0  4.017696  0
C  C39  1  0.06116383  0.11273178  0.09283068  1  0  -0.154633  0  3.764222  0  0  -0.183364  0  4.029515  0  0  -0.18492  0  4.047088  0  0  -0.100127  -0.182173  0  4.017736  0
C  C40  1  0.72373372  0.49436636  0.07955360  1  0  0.282621  0  3.793359  0  0  0.267008  0  4.079628  0  0  0.275007  0  4.091356  0  0  0.082893  0.261187  0  4.071925  0
C  C41  1  0.77626437  0.99437158  0.92044638  1  0  0.282579  0  3.793543  0  0  0.26697  0  4.079812  0  0  0.274968  0  4.09154  0  0  0.082886  0.26115  0  4.072109  0
C  C42  1  0.27626411  0.50563022  0.92044463  1  0  0.282599  0  3.793525  0  0  0.266974  0  4.079797  0  0  0.274974  0  4.091523  0  0  0.082865  0.261153  0  4.072095  0
C  C43  1  0.22373347  0.00563765  0.07955351  1  0  0.282599  0  3.793374  0  0  0.267025  0  4.079598  0  0  0.275024  0  4.091324  0  0  0.082929  0.261206  0  4.071894  0
C  C44  1  0.81535332  0.60398473  0.13401254  1  0  -0.162641  0  3.773453  0  0  -0.187222  0  4.030618  0  0  -0.18864  0  4.049011  0  0  -0.100517  -0.186138  0  4.01828  0
C  C45  1  0.68464398  0.10398732  0.86598815  1  0  -0.162634  0  3.773573  0  0  -0.187215  0  4.03074  0  0  -0.188635  0  4.049142  0  0  -0.100536  -0.186129  0  4.018396  0
C  C46  1  0.18464742  0.39601326  0.86598850  1  0  -0.162663  0  3.773623  0  0  -0.187244  0  4.030787  0  0  -0.188662  0  4.049179  0  0  -0.100529  -0.186162  0  4.018452  0
C  C47  1  0.31535530  0.89601770  0.13401176  1  0  -0.162711  0  3.773558  0  0  -0.187286  0  4.030724  0  0  -0.1887  0  4.049117  0  0  -0.100584  -0.186201  0  4.018381  0
C  C48  1  0.73833998  0.60770677  0.20399765  1  0  -0.173924  0  3.751528  0  0  -0.193198  0  4.008067  0  0  -0.19709  0  4.025784  0  0  -0.103048  -0.190553  0  3.996239  0
C  C49  1  0.76165296  0.10770662  0.79600186  1  0  -0.17393  0  3.751424  0  0  -0.193203  0  4.007998  0  0  -0.197096  0  4.025712  0  0  -0.103065  -0.190559  0  3.996175  0
C  C50  1  0.26165641  0.39228981  0.79600277  1  0  -0.173837  0  3.751326  0  0  -0.193092  0  4.007878  0  0  -0.196988  0  4.025601  0  0  -0.103001  -0.190447  0  3.996052  0
C  C51  1  0.23834198  0.89229418  0.20399688  1  0  -0.173828  0  3.75138  0  0  -0.193077  0  4.007895  0  0  -0.19698  0  4.02562  0  0  -0.102964  -0.190431  0  3.996068  0
C  C52  1  0.32915291  0.42038730  0.30387504  1  0  -0.058065  0  3.6175  0  0  -0.11673  0  3.884318  0  0  -0.111912  0  3.882726  0  0  -0.069587  -0.120239  0  3.885571  0
C  C53  1  0.17084544  0.92039048  0.69612570  1  0  -0.057928  0  3.617293  0  0  -0.116655  0  3.884168  0  0  -0.111829  0  3.882568  0  0  -0.069571  -0.120164  0  3.885421  0
C  C54  1  0.67084783  0.57960787  0.69612544  1  0  -0.057963  0  3.617443  0  0  -0.116633  0  3.884308  0  0  -0.111801  0  3.8827  0  0  -0.069557  -0.120138  0  3.885558  0
C  C55  1  0.82915674  0.07961173  0.30387425  1  0  -0.058118  0  3.617435  0  0  -0.116791  0  3.884315  0  0  -0.111962  0  3.882714  0  0  -0.06962  -0.120307  0  3.885573  0
C  C56  1  0.26297222  0.46576060  0.38161625  1  0  0.672395  0  3.964247  0  0  0.631564  0  4.264963  0  0  0.663853  0  4.255792  0  0  0.171486  0.609626  0  4.27048  0
C  C57  1  0.23703184  0.96575965  0.61838455  1  0  0.672425  0  3.964106  0  0  0.631588  0  4.264854  0  0  0.663875  0  4.255683  0  0  0.171505  0.609652  0  4.270372  0
C  C58  1  0.73703142  0.53423739  0.61838427  1  0  0.672447  0  3.964125  0  0  0.631574  0  4.264924  0  0  0.663862  0  4.255752  0  0  0.171474  0.609637  0  4.270441  0
C  C59  1  0.76297468  0.03423833  0.38161435  1  0  0.672564  0  3.964176  0  0  0.631688  0  4.264972  0  0  0.663977  0  4.255794  0  0  0.171551  0.60975  0  4.270492  0
O  O60  1  0.50155890  0.52250532  0.28815153  1  0  -0.299322  0  2.375407  0  0  -0.231675  0  2.61746  0  0  -0.247861  0  2.618525  0  0  -0.216045  -0.220158  0  2.61642  0
O  O61  1  0.99843853  0.02250923  0.71184808  1  0  -0.299363  0  2.375298  0  0  -0.231696  0  2.617389  0  0  -0.247888  0  2.618452  0  0  -0.216029  -0.220178  0  2.61635  0
O  O62  1  0.49844184  0.47748985  0.71184895  1  0  -0.299351  0  2.375431  0  0  -0.231674  0  2.617499  0  0  -0.247861  0  2.618559  0  0  -0.216012  -0.220157  0  2.616459  0
O  O63  1  0.00156075  0.97749578  0.28815018  1  0  -0.299308  0  2.375502  0  0  -0.231659  0  2.617573  0  0  -0.247854  0  2.61864  0  0  -0.21603  -0.220141  0  2.616534  0
O  O64  1  0.34686968  0.59568736  0.41819972  1  0  -0.758809  0  1.986604  0  0  -0.712913  0  2.23096  0  0  -0.735866  0  2.219374  0  0  -0.528828  -0.696746  0  2.238434  0
O  O65  1  0.15313065  0.09569076  0.58179953  1  0  -0.758856  0  1.986457  0  0  -0.712957  0  2.230817  0  0  -0.735911  0  2.219231  0  0  -0.528855  -0.696789  0  2.23829  0
O  O66  1  0.65313250  0.40431063  0.58179968  1  0  -0.758799  0  1.986536  0  0  -0.712885  0  2.230911  0  0  -0.73584  0  2.219329  0  0  -0.52881  -0.696717  0  2.238384  0
O  O67  1  0.84687877  0.90430442  0.41819942  1  0  -0.758921  0  1.98643  0  0  -0.713007  0  2.230815  0  0  -0.735961  0  2.219227  0  0  -0.528892  -0.696838  0  2.238289  0
O  O68  1  0.12409563  0.36475439  0.40296616  1  0  -0.755338  0  1.937801  0  0  -0.710375  0  2.178333  0  0  -0.735678  0  2.169269  0  0  -0.488409  -0.692468  0  2.183939  0
O  O69  1  0.37590425  0.86475609  0.59703463  1  0  -0.75532  0  1.937815  0  0  -0.710354  0  2.178347  0  0  -0.735656  0  2.169284  0  0  -0.488401  -0.692449  0  2.183955  0
O  O70  1  0.87590510  0.63524360  0.59703433  1  0  -0.755364  0  1.937771  0  0  -0.710387  0  2.178327  0  0  -0.73569  0  2.169264  0  0  -0.488406  -0.692481  0  2.183934  0
O  O71  1  0.62410227  0.13524049  0.40296483  1  0  -0.755357  0  1.937929  0  0  -0.710388  0  2.178505  0  0  -0.73569  0  2.169438  0  0  -0.488398  -0.692481  0  2.184112  0
F  F72  1  0.79775451  0.49084673  0.01045549  1  0  -0.222932  0  1.205083  0  0  -0.163137  0  1.361016  0  0  -0.172833  0  1.352599  0  0  -0.104457  -0.156033  0  1.366716  0
F  F73  1  0.70224503  0.99085329  0.98954452  1  0  -0.222895  0  1.205141  0  0  -0.163114  0  1.361084  0  0  -0.17281  0  1.352669  0  0  -0.104439  -0.15601  0  1.366784  0
F  F74  1  0.20224478  0.50914704  0.98954498  1  0  -0.222911  0  1.205069  0  0  -0.163107  0  1.360994  0  0  -0.172804  0  1.352576  0  0  -0.104438  -0.156003  0  1.366694  0
F  F75  1  0.29775281  0.00915876  0.01045482  1  0  -0.222941  0  1.205082  0  0  -0.16315  0  1.361  0  0  -0.172846  0  1.352584  0  0  -0.104495  -0.156046  0  1.3667  0
