# generated using pymatgen
data_ZnH12(C2O)8
_symmetry_space_group_name_H-M   'P 1'
_cell_length_a   7.29316898
_cell_length_b   11.95826878
_cell_length_c   17.77460000
_cell_angle_alpha   104.47548237
_cell_angle_beta   90.00000000
_cell_angle_gamma   90.00000000
_symmetry_Int_Tables_number   1
_chemical_formula_structural   ZnH12(C2O)8
_chemical_formula_sum   'Zn4 H48 C64 O32'
_cell_volume   1500.97698541
_cell_formula_units_Z   4
loop_
 _symmetry_equiv_pos_site_id
 _symmetry_equiv_pos_as_xyz
  1  'x, y, z'
loop_
 _atom_site_type_symbol
 _atom_site_label
 _atom_site_symmetry_multiplicity
 _atom_site_fract_x
 _atom_site_fract_y
 _atom_site_fract_z
 _atom_site_occupancy
 _atom_site_hle17_bader_spin_density
 _atom_site_hle17_ddec_charge
 _atom_site_hle17_ddec_spin_density
 _atom_site_hle17_ddec_sum_bond_order
 _atom_site_hle17_magmom
 _atom_site_hse06_10hf_bader_spin_density
 _atom_site_hse06_10hf_ddec_charge
 _atom_site_hse06_10hf_ddec_spin_density
 _atom_site_hse06_10hf_ddec_sum_bond_order
 _atom_site_hse06_10hf_magmom
 _atom_site_hse06_bader_spin_density
 _atom_site_hse06_ddec_charge
 _atom_site_hse06_ddec_spin_density
 _atom_site_hse06_ddec_sum_bond_order
 _atom_site_hse06_magmom
 _atom_site_pbe_bader_charge
 _atom_site_pbe_bader_spin_density
 _atom_site_pbe_cm5_charge
 _atom_site_pbe_ddec_charge
 _atom_site_pbe_ddec_spin_density
 _atom_site_pbe_ddec_sum_bond_order
 _atom_site_pbe_magmom
Zn  Zn0  1  0.94935412  0.04116369  0.19798503  1  0  1.202372  0  1.703593  0  0  1.030852  0  2.176669  0  0  1.082807  0  2.108827  0  1.356991  0  0.702522  0.993964  0  2.223857  0
Zn  Zn1  1  0.44935336  0.95883632  0.30201424  1  0  1.202372  0  1.703584  0  0  1.03085  0  2.176675  0  0  1.082804  0  2.108832  0  1.356995  0  0.702518  0.993962  0  2.223862  0
Zn  Zn2  1  0.05064739  0.95883718  0.80201438  1  0  1.202385  0  1.703592  0  0  1.03086  0  2.176662  0  0  1.082814  0  2.108822  0  1.357007  0  0.702537  0.993973  0  2.223849  0
Zn  Zn3  1  0.55064815  0.04116369  0.69798559  1  0  1.202408  0  1.703584  0  0  1.03088  0  2.176673  0  0  1.082834  0  2.108832  0  1.357004  0  0.702535  0.993993  0  2.223861  0
H  H4  1  0.00589319  0.49112807  0.41520366  1  0  0.101297  0  0.946305  0  0  0.111672  0  1.007367  0  0  0.114786  0  1.005428  0  0.108572  0  0.10532  0.109414  0  1.008816  0
H  H5  1  0.50589394  0.50887107  0.08479659  1  0  0.101305  0  0.946342  0  0  0.111687  0  1.007395  0  0  0.1148  0  1.005456  0  0.10872  0  0.105334  0.109429  0  1.008844  0
H  H6  1  0.99410695  0.50887194  0.58479674  1  0  0.10132  0  0.946329  0  0  0.111697  0  1.007385  0  0  0.114809  0  1.005447  0  0.10858  0  0.105338  0.109439  0  1.008834  0
H  H7  1  0.49410346  0.49112807  0.91520366  1  0  0.101307  0  0.946303  0  0  0.111688  0  1.007366  0  0  0.114802  0  1.005429  0  0.108541  0  0.105337  0.10943  0  1.008815  0
H  H8  1  0.80513834  0.64043132  0.49740190  1  0  0.096297  0  0.958753  0  0  0.106098  0  1.021238  0  0  0.10824  0  1.02221  0  0.077979  0  0.100443  0.104581  0  1.020643  0
H  H9  1  0.30513759  0.35956869  0.00259850  1  0  0.096296  0  0.958763  0  0  0.106101  0  1.021243  0  0  0.108244  0  1.022211  0  0.07799  0  0.100446  0.104584  0  1.020648  0
H  H10  1  0.19486180  0.35956956  0.50259808  1  0  0.096303  0  0.95875  0  0  0.106108  0  1.021229  0  0  0.108249  0  1.022201  0  0.077998  0  0.100449  0.104591  0  1.020633  0
H  H11  1  0.69486118  0.64042959  0.99740161  1  0  0.096277  0  0.958777  0  0  0.106099  0  1.021233  0  0  0.108239  0  1.022209  0  0.077993  0  0.100462  0.104582  0  1.020637  0
H  H12  1  0.34491865  0.50589750  0.35010673  1  0  0.109481  0  0.95284  0  0  0.115489  0  1.017686  0  0  0.119611  0  1.014986  0  0.108563  0  0.104898  0.112549  0  1.019687  0
H  H13  1  0.84491941  0.49410424  0.14989396  1  0  0.109475  0  0.952854  0  0  0.115484  0  1.017702  0  0  0.119606  0  1.015003  0  0.10857  0  0.1049  0.112544  0  1.019703  0
H  H14  1  0.65508149  0.49410424  0.64989396  1  0  0.109466  0  0.952865  0  0  0.115474  0  1.017715  0  0  0.119596  0  1.015016  0  0.108561  0  0.104894  0.112535  0  1.019716  0
H  H15  1  0.15507936  0.50589663  0.85010602  1  0  0.109493  0  0.952845  0  0  0.115503  0  1.017689  0  0  0.119625  0  1.014989  0  0.108578  0  0.104905  0.112563  0  1.01969  0
H  H16  1  0.54419828  0.35578673  0.26982505  1  0  0.096615  0  0.96788  0  0  0.106874  0  1.029253  0  0  0.109957  0  1.026792  0  0.119801  0  0.104616  0.104593  0  1.031151  0
H  H17  1  0.04420026  0.64421414  0.23017549  1  0  0.096615  0  0.96787  0  0  0.106875  0  1.029242  0  0  0.109958  0  1.026781  0  0.119795  0  0.104608  0.104594  0  1.031141  0
H  H18  1  0.45580049  0.64421414  0.73017549  1  0  0.096611  0  0.967887  0  0  0.106868  0  1.029263  0  0  0.109951  0  1.026803  0  0.119785  0  0.104612  0.104587  0  1.031161  0
H  H19  1  0.95579988  0.35578501  0.76982420  1  0  0.096604  0  0.967867  0  0  0.106862  0  1.029244  0  0  0.109945  0  1.026783  0  0.119481  0  0.104602  0.104581  0  1.031142  0
H  H20  1  0.37443668  0.64311125  0.52480059  1  0  0.05838  0  0.955637  0  0  0.070078  0  1.026574  0  0  0.068928  0  1.02892  0  0.078906  0  0.101209  0.070927  0  1.024908  0
H  H21  1  0.87443470  0.35688876  0.97520093  1  0  0.058394  0  0.955636  0  0  0.070091  0  1.026563  0  0  0.068941  0  1.02891  0  0.078681  0  0.101217  0.07094  0  1.024896  0
H  H22  1  0.62556483  0.35688962  0.47519995  1  0  0.058372  0  0.955632  0  0  0.070054  0  1.026576  0  0  0.068902  0  1.028924  0  0.078909  0  0.101207  0.070905  0  1.024902  0
H  H23  1  0.12556544  0.64311039  0.02479932  1  0  0.05839  0  0.955673  0  0  0.070101  0  1.02658  0  0  0.06895  0  1.028924  0  0.078905  0  0.101215  0.070948  0  1.024917  0
H  H24  1  0.51372867  0.75423733  0.50365543  1  0  0.074985  0  0.915556  0  0  0.089533  0  0.976346  0  0  0.089759  0  0.975548  0  0.079407  0  0.107272  0.089291  0  0.977077  0
H  H25  1  0.01372929  0.24576268  0.99634497  1  0  0.074979  0  0.915557  0  0  0.089523  0  0.97635  0  0  0.089749  0  0.975553  0  0.079405  0  0.107271  0.089281  0  0.977081  0
H  H26  1  0.48627147  0.24576268  0.49634497  1  0  0.074985  0  0.915549  0  0  0.089529  0  0.97634  0  0  0.089754  0  0.975543  0  0.079413  0  0.107277  0.089286  0  0.977071  0
H  H27  1  0.98627223  0.75423561  0.00365514  1  0  0.075066  0  0.915503  0  0  0.089551  0  0.976367  0  0  0.089774  0  0.97557  0  0.079438  0  0.107286  0.089309  0  0.977098  0
H  H28  1  0.22100955  0.80345378  0.57801242  1  0  0.118058  0  0.973258  0  0  0.125974  0  1.041502  0  0  0.129661  0  1.039007  0  0.10332  0  0.107153  0.123298  0  1.043382  0
H  H29  1  0.72101168  0.19654537  0.92198840  1  0  0.118068  0  0.973232  0  0  0.125983  0  1.041479  0  0  0.129671  0  1.038981  0  0.103327  0  0.107151  0.123308  0  1.043359  0
H  H30  1  0.77899059  0.19654623  0.42198742  1  0  0.118062  0  0.973249  0  0  0.125979  0  1.041492  0  0  0.129668  0  1.038992  0  0.103324  0  0.107154  0.123303  0  1.043373  0
H  H31  1  0.27898983  0.80345464  0.07801200  1  0  0.118069  0  0.973226  0  0  0.125989  0  1.041465  0  0  0.129676  0  1.038969  0  0.103332  0  0.107169  0.123313  0  1.043344  0
H  H32  1  0.71576979  0.95018160  0.52112407  1  0  0.119598  0  0.941746  0  0  0.12644  0  1.008486  0  0  0.130747  0  1.004641  0  0.129478  0  0.110066  0.123286  0  1.011408  0
H  H33  1  0.21576903  0.04981842  0.97887632  1  0  0.11961  0  0.941733  0  0  0.126453  0  1.008469  0  0  0.130762  0  1.004619  0  0.12948  0  0.110067  0.123298  0  1.011391  0
H  H34  1  0.28423173  0.04981755  0.47887505  1  0  0.119563  0  0.941756  0  0  0.126403  0  1.008502  0  0  0.130713  0  1.004648  0  0.129458  0  0.11007  0.12325  0  1.011424  0
H  H35  1  0.78423111  0.95018160  0.02112351  1  0  0.119583  0  0.941772  0  0  0.126426  0  1.008515  0  0  0.130735  0  1.004665  0  0.129474  0  0.110043  0.123271  0  1.011438  0
H  H36  1  0.05631982  0.74631499  0.33920553  1  0  0.121557  0  0.967169  0  0  0.127227  0  1.036361  0  0  0.131704  0  1.03189  0  0.138782  0  0.109688  0.12394  0  1.039716  0
H  H37  1  0.55631784  0.25368415  0.16079472  1  0  0.121538  0  0.967187  0  0  0.127207  0  1.036385  0  0  0.131682  0  1.031915  0  0.138786  0  0.10968  0.123912  0  1.03975  0
H  H38  1  0.94368169  0.25368415  0.66079415  1  0  0.121541  0  0.967131  0  0  0.127204  0  1.036331  0  0  0.13168  0  1.031858  0  0.138805  0  0.109674  0.123909  0  1.039696  0
H  H39  1  0.44368093  0.74631672  0.83920526  1  0  0.121556  0  0.967167  0  0  0.127223  0  1.036366  0  0  0.1317  0  1.031897  0  0.138785  0  0.109682  0.123936  0  1.039723  0
H  H40  1  0.15091245  0.27026813  0.26262666  1  0  0.40392  0  0.889687  0  0  0.374235  0  0.965723  0  0  0.38591  0  0.950757  0  0.653501  0  0.305604  0.366083  0  0.974341  0
H  H41  1  0.65091321  0.72973189  0.23737317  1  0  0.403947  0  0.889632  0  0  0.374259  0  0.965677  0  0  0.385935  0  0.950722  0  0.6535  0  0.305603  0.366107  0  0.974296  0
H  H42  1  0.84908769  0.72973189  0.73737317  1  0  0.403915  0  0.88969  0  0  0.374229  0  0.965731  0  0  0.385906  0  0.950766  0  0.6535  0  0.3056  0.366077  0  0.97435  0
H  H43  1  0.34908693  0.27026813  0.76262666  1  0  0.403934  0  0.889633  0  0  0.37425  0  0.965672  0  0  0.385926  0  0.95073  0  0.653508  0  0.305611  0.366099  0  0.97429  0
H  H44  1  0.14525647  0.85846624  0.20166813  1  0  0.432024  0  0.841602  0  0  0.400589  0  0.922268  0  0  0.410075  0  0.909137  0  0.625385  0  0.305998  0.393806  0  0.930306  0
H  H45  1  0.64525586  0.14153377  0.29833170  1  0  0.432067  0  0.841643  0  0  0.40063  0  0.922301  0  0  0.410117  0  0.9091  0  0.625328  0  0.306013  0.393846  0  0.930342  0
H  H46  1  0.85474367  0.14153377  0.79833170  1  0  0.432078  0  0.841626  0  0  0.400637  0  0.922291  0  0  0.410124  0  0.909089  0  0.625386  0  0.306018  0.393852  0  0.930332  0
H  H47  1  0.35474291  0.85846624  0.70166813  1  0  0.432019  0  0.841594  0  0  0.400582  0  0.922265  0  0  0.410068  0  0.909144  0  0.625381  0  0.305999  0.393798  0  0.930305  0
H  H48  1  0.94220359  0.84351286  0.22611155  1  0  0.434547  0  0.863217  0  0  0.403471  0  0.926868  0  0  0.413717  0  0.912044  0  0.654413  0  0.297708  0.396223  0  0.937343  0
H  H49  1  0.44220284  0.15648716  0.27388885  1  0  0.434556  0  0.863205  0  0  0.403482  0  0.926851  0  0  0.413728  0  0.912027  0  0.654428  0  0.297719  0.396235  0  0.937326  0
H  H50  1  0.05779655  0.15648716  0.77388828  1  0  0.434543  0  0.863222  0  0  0.403466  0  0.926873  0  0  0.413712  0  0.912049  0  0.654417  0  0.297707  0.396218  0  0.937349  0
H  H51  1  0.55779730  0.84351286  0.72611155  1  0  0.434547  0  0.863218  0  0  0.403469  0  0.92687  0  0  0.413716  0  0.912045  0  0.654418  0  0.297708  0.396221  0  0.937346  0
C  C52  1  0.90282565  0.32280448  0.28637456  1  0  0.65995  0  3.807385  0  0  0.607049  0  4.107198  0  0  0.64125  0  4.098641  0  1.49417  0  0.232384  0.58381  0  4.112452  0
C  C53  1  0.40282626  0.67719554  0.21362527  1  0  0.659938  0  3.807417  0  0  0.607045  0  4.107209  0  0  0.641247  0  4.098651  0  1.494176  0  0.23241  0.583806  0  4.112463  0
C  C54  1  0.09717312  0.67719467  0.71362569  1  0  0.659924  0  3.807328  0  0  0.60703  0  4.107135  0  0  0.641231  0  4.098578  0  1.494177  0  0.232358  0.583791  0  4.112389  0
C  C55  1  0.59717114  0.32280534  0.78637414  1  0  0.659954  0  3.807342  0  0  0.607026  0  4.107194  0  0  0.641229  0  4.098636  0  1.494108  0  0.232346  0.583786  0  4.112449  0
C  C56  1  0.78810871  0.41340744  0.33701629  1  0  -0.095471  0  3.793872  0  0  -0.073249  0  4.029688  0  0  -0.083812  0  4.054853  0  -0.060804  0  -0.025321  -0.066357  0  4.012674  0
C  C57  1  0.28810933  0.58659171  0.16298340  1  0  -0.095466  0  3.793845  0  0  -0.073229  0  4.029652  0  0  -0.083793  0  4.054818  0  -0.06079  0  -0.025326  -0.066338  0  4.012635  0
C  C58  1  0.21189006  0.58659171  0.66298396  1  0  -0.095404  0  3.793779  0  0  -0.073177  0  4.029578  0  0  -0.083741  0  4.054743  0  -0.060804  0  -0.025302  -0.066285  0  4.012562  0
C  C59  1  0.71188944  0.41340744  0.83701685  1  0  -0.095416  0  3.793839  0  0  -0.073169  0  4.029658  0  0  -0.083732  0  4.054826  0  -0.060784  0  -0.025294  -0.066277  0  4.012643  0
C  C60  1  0.86045586  0.49381751  0.40173214  1  0  -0.05864  0  3.730073  0  0  -0.084662  0  3.981363  0  0  -0.083022  0  4.001657  0  -0.065852  0  -0.082714  -0.085522  0  3.967543  0
C  C61  1  0.36045511  0.50618251  0.09826713  1  0  -0.058625  0  3.73005  0  0  -0.084663  0  3.981358  0  0  -0.083022  0  4.001652  0  -0.066008  0  -0.082704  -0.085521  0  3.967535  0
C  C62  1  0.13954428  0.50618251  0.59826770  1  0  -0.058695  0  3.73006  0  0  -0.084717  0  3.981349  0  0  -0.083077  0  4.001643  0  -0.065876  0  -0.082741  -0.085576  0  3.967527  0
C  C63  1  0.63954366  0.49381578  0.90173410  1  0  -0.058685  0  3.730032  0  0  -0.084733  0  3.981351  0  0  -0.083095  0  4.001647  0  -0.065935  0  -0.082735  -0.085592  0  3.967529  0
C  C64  1  0.74719234  0.57751811  0.44775592  1  0  -0.128329  0  3.74632  0  0  -0.146109  0  3.996054  0  0  -0.151896  0  4.019774  0  -0.051512  0  -0.090383  -0.142295  0  3.980008  0
C  C65  1  0.24719159  0.42248017  0.05224419  1  0  -0.128365  0  3.746287  0  0  -0.146144  0  3.996034  0  0  -0.151932  0  4.019753  0  -0.051515  0  -0.090412  -0.142326  0  3.979991  0
C  C66  1  0.25280780  0.42248104  0.55224433  1  0  -0.128359  0  3.746304  0  0  -0.14614  0  3.996042  0  0  -0.151929  0  4.01976  0  -0.051501  0  -0.0904  -0.142322  0  3.98  0
C  C67  1  0.75280855  0.57751638  0.94775731  1  0  -0.128331  0  3.746244  0  0  -0.146096  0  3.996002  0  0  -0.15188  0  4.01972  0  -0.051442  0  -0.09042  -0.14228  0  3.979958  0
C  C68  1  0.56105652  0.58317248  0.42943099  1  0  0.088976  0  3.718806  0  0  0.103591  0  3.960666  0  0  0.105472  0  3.98305  0  -0.018559  0  -0.001669  0.102427  0  3.945502  0
C  C69  1  0.06105713  0.41682753  0.07056997  1  0  0.088934  0  3.718705  0  0  0.103534  0  3.960609  0  0  0.105422  0  3.982978  0  -0.018558  0  -0.001709  0.10236  0  3.945462  0
C  C70  1  0.43894362  0.41682839  0.57056955  1  0  0.088938  0  3.718712  0  0  0.103542  0  3.960606  0  0  0.10543  0  3.982974  0  -0.018543  0  -0.001704  0.102367  0  3.94546  0
C  C71  1  0.93894301  0.58317076  0.92943183  1  0  0.089042  0  3.718666  0  0  0.10359  0  3.960631  0  0  0.105468  0  3.983012  0  -0.018567  0  -0.001668  0.102422  0  3.945474  0
C  C72  1  0.48905078  0.50211554  0.36517458  1  0  -0.108817  0  3.713901  0  0  -0.129831  0  3.965117  0  0  -0.133799  0  3.984396  0  -0.072445  0  -0.089656  -0.1273  0  3.952131  0
C  C73  1  0.98905154  0.49788447  0.13482637  1  0  -0.108745  0  3.713831  0  0  -0.129763  0  3.965063  0  0  -0.133732  0  3.984339  0  -0.072448  0  -0.089622  -0.127229  0  3.952078  0
C  C74  1  0.51094936  0.49788447  0.63482637  1  0  -0.108762  0  3.713868  0  0  -0.129785  0  3.965102  0  0  -0.133753  0  3.984378  0  -0.072452  0  -0.089627  -0.127251  0  3.952118  0
C  C75  1  0.01094860  0.50211554  0.86517458  1  0  -0.108855  0  3.713808  0  0  -0.129846  0  3.96505  0  0  -0.133813  0  3.984328  0  -0.072423  0  -0.089656  -0.127314  0  3.952065  0
C  C76  1  0.60116803  0.41802110  0.31973325  1  0  -0.050511  0  3.736274  0  0  -0.074253  0  3.981732  0  0  -0.072655  0  4.001727  0  -0.007664  0  -0.080097  -0.075026  0  3.96808  0
C  C77  1  0.10116864  0.58197977  0.18026672  1  0  -0.050547  0  3.736307  0  0  -0.074291  0  3.981764  0  0  -0.072694  0  4.001761  0  -0.007689  0  -0.080095  -0.075064  0  3.968109  0
C  C78  1  0.39883211  0.58197977  0.68026672  1  0  -0.050532  0  3.73629  0  0  -0.074269  0  3.981746  0  0  -0.072671  0  4.001743  0  -0.007662  0  -0.080092  -0.075042  0  3.968092  0
C  C79  1  0.89883013  0.41801938  0.81973296  1  0  -0.05052  0  3.736231  0  0  -0.074269  0  3.981695  0  0  -0.072671  0  4.001691  0  -0.007354  0  -0.080095  -0.075043  0  3.968042  0
C  C80  1  0.43764377  0.67437483  0.47738527  1  0  0.053824  0  3.625909  0  0  -0.008802  0  3.883301  0  0  -0.000362  0  3.887532  0  0.407204  0  -0.055132  -0.014561  0  3.880274  0
C  C81  1  0.93764453  0.32562518  0.02261512  1  0  0.053841  0  3.625859  0  0  -0.008766  0  3.883245  0  0  -0.000331  0  3.887478  0  0.407447  0  -0.055119  -0.014523  0  3.880219  0
C  C82  1  0.56235637  0.32562518  0.52261512  1  0  0.053879  0  3.625809  0  0  -0.008724  0  3.883195  0  0  -0.000287  0  3.887426  0  0.407222  0  -0.055101  -0.01448  0  3.88017  0
C  C83  1  0.06235698  0.67437310  0.97738498  1  0  0.053759  0  3.625879  0  0  -0.008821  0  3.8833  0  0  -0.000372  0  3.88752  0  0.407199  0  -0.055117  -0.014581  0  3.880273  0
C  C84  1  0.15319952  0.76398718  0.45541208  1  0  0.273865  0  3.813332  0  0  0.270128  0  4.071214  0  0  0.278945  0  4.086722  0  0.448533  0  0.089512  0.263619  0  4.060794  0
C  C85  1  0.65319891  0.23601284  0.04458888  1  0  0.273859  0  3.813268  0  0  0.270114  0  4.071172  0  0  0.278932  0  4.086677  0  0.448528  0  0.089521  0.263606  0  4.060751  0
C  C86  1  0.84680336  0.23601370  0.54458846  1  0  0.273868  0  3.813356  0  0  0.270132  0  4.071226  0  0  0.278949  0  4.086732  0  0.448533  0  0.089519  0.263623  0  4.060807  0
C  C87  1  0.34679986  0.76398804  0.95541110  1  0  0.273872  0  3.813315  0  0  0.270124  0  4.071217  0  0  0.278942  0  4.086722  0  0.448541  0  0.089527  0.263615  0  4.060797  0
C  C88  1  0.12311521  0.81346013  0.53413579  1  0  -0.177598  0  3.691079  0  0  -0.215168  0  3.942738  0  0  -0.215973  0  3.96069  0  0.00341  0  -0.094763  -0.214314  0  3.930692  0
C  C89  1  0.62311596  0.18653988  0.96586517  1  0  -0.177593  0  3.691061  0  0  -0.215161  0  3.942724  0  0  -0.215969  0  3.960677  0  0.003427  0  -0.094765  -0.214307  0  3.930678  0
C  C90  1  0.87688631  0.18653988  0.46586404  1  0  -0.177595  0  3.691023  0  0  -0.21516  0  3.942672  0  0  -0.215968  0  3.960626  0  0.003422  0  -0.094746  -0.214307  0  3.930626  0
C  C91  1  0.37688418  0.81346186  0.03413496  1  0  -0.17757  0  3.691018  0  0  -0.215134  0  3.942679  0  0  -0.215941  0  3.960631  0  0.003426  0  -0.094777  -0.21428  0  3.930632  0
C  C92  1  0.96466433  0.88010175  0.55741577  1  0  -0.065079  0  3.791656  0  0  -0.03886  0  4.029207  0  0  -0.048434  0  4.053226  0  -0.001148  0  -0.022026  -0.032687  0  4.01306  0
C  C93  1  0.46466495  0.11989826  0.94258463  1  0  -0.065063  0  3.79164  0  0  -0.038833  0  4.029175  0  0  -0.048404  0  4.053196  0  -0.00115  0  -0.02202  -0.032658  0  4.013027  0
C  C94  1  0.03533581  0.11989826  0.44258407  1  0  -0.065076  0  3.79155  0  0  -0.038833  0  4.029118  0  0  -0.048407  0  4.053139  0  -0.001167  0  -0.022009  -0.032657  0  4.012968  0
C  C95  1  0.53533519  0.88010261  0.05741535  1  0  -0.065092  0  3.791599  0  0  -0.03885  0  4.029162  0  0  -0.048421  0  4.053179  0  -0.001154  0  -0.022031  -0.032676  0  4.013015  0
C  C96  1  0.83668842  0.89695950  0.50288686  1  0  -0.085038  0  3.700322  0  0  -0.128255  0  3.958962  0  0  -0.125409  0  3.977771  0  -0.005797  0  -0.083059  -0.129908  0  3.946345  0
C  C97  1  0.33668766  0.10304224  0.99711383  1  0  -0.085184  0  3.700353  0  0  -0.128386  0  3.959008  0  0  -0.125543  0  3.977817  0  -0.00576  0  -0.083127  -0.130038  0  3.94639  0
C  C98  1  0.16331310  0.10304051  0.49711297  1  0  -0.085021  0  3.700272  0  0  -0.128236  0  3.958906  0  0  -0.125389  0  3.977717  0  -0.005788  0  -0.083089  -0.129888  0  3.946286  0
C  C99  1  0.66330974  0.89696123  0.00288602  1  0  -0.085123  0  3.700369  0  0  -0.128337  0  3.959004  0  0  -0.125491  0  3.97781  0  -0.005769  0  -0.08304  -0.12999  0  3.946387  0
C  C100  1  0.86965899  0.84753923  0.42369268  1  0  -0.069229  0  3.790819  0  0  -0.043916  0  4.031563  0  0  -0.053652  0  4.055907  0  -0.051745  0  -0.020997  -0.037688  0  4.015169  0
C  C101  1  0.36965824  0.15246078  0.07630772  1  0  -0.069079  0  3.790621  0  0  -0.043816  0  4.031421  0  0  -0.053549  0  4.055763  0  -0.051776  0  -0.020953  -0.037589  0  4.015029  0
C  C102  1  0.13034252  0.15246078  0.57630716  1  0  -0.069179  0  3.790755  0  0  -0.043871  0  4.031466  0  0  -0.053606  0  4.055809  0  -0.051732  0  -0.020997  -0.037643  0  4.015072  0
C  C103  1  0.63034053  0.84754009  0.92369170  1  0  -0.069065  0  3.790687  0  0  -0.043771  0  4.031448  0  0  -0.053504  0  4.05579  0  -0.05175  0  -0.020979  -0.037544  0  4.015056  0
C  C104  1  0.02715692  0.78226996  0.40033743  1  0  -0.127696  0  3.659877  0  0  -0.167659  0  3.915965  0  0  -0.166805  0  3.931672  0  -0.005138  0  -0.079097  -0.167801  0  3.905311  0
C  C105  1  0.52715630  0.21773005  0.09966296  1  0  -0.127715  0  3.659891  0  0  -0.167666  0  3.916011  0  0  -0.166809  0  3.931714  0  -0.00517  0  -0.079095  -0.167803  0  3.905367  0
C  C106  1  0.97284459  0.21773005  0.59966240  1  0  -0.127708  0  3.659819  0  0  -0.167676  0  3.915908  0  0  -0.166822  0  3.931617  0  -0.005191  0  -0.079104  -0.167812  0  3.905262  0
C  C107  1  0.47284247  0.78227083  0.90033702  1  0  -0.127738  0  3.659902  0  0  -0.167699  0  3.91602  0  0  -0.166851  0  3.931734  0  -0.005174  0  -0.079097  -0.167842  0  3.905367  0
C  C108  1  0.93994668  0.93646411  0.64170661  1  0  0.695631  0  3.855361  0  0  0.642626  0  4.138892  0  0  0.679021  0  4.130183  0  1.566938  0  0.22784  0.617803  0  4.144157  0
C  C109  1  0.43994730  0.06353591  0.85829323  1  0  0.695655  0  3.85535  0  0  0.642639  0  4.138896  0  0  0.679033  0  4.130188  0  1.566948  0  0.227834  0.617816  0  4.14416  0
C  C110  1  0.06005346  0.06353591  0.35829266  1  0  0.695807  0  3.855182  0  0  0.642723  0  4.138838  0  0  0.679117  0  4.130129  0  1.56695  0  0.227863  0.617898  0  4.144101  0
C  C111  1  0.56005284  0.93646411  0.14170661  1  0  0.695704  0  3.855252  0  0  0.642643  0  4.138873  0  0  0.679038  0  4.130164  0  1.56694  0  0.227852  0.61782  0  4.144138  0
C  C112  1  0.74105646  0.86574170  0.36277485  1  0  0.679984  0  3.846206  0  0  0.623773  0  4.138493  0  0  0.659093  0  4.13046  0  1.535853  0  0.22404  0.599812  0  4.143225  0
C  C113  1  0.24105708  0.13425918  0.13722569  1  0  0.679981  0  3.846254  0  0  0.623785  0  4.138554  0  0  0.659103  0  4.130522  0  1.535906  0  0.224036  0.599824  0  4.143287  0
C  C114  1  0.25894368  0.13425831  0.63722555  1  0  0.679755  0  3.846493  0  0  0.6236  0  4.138701  0  0  0.658919  0  4.130669  0  1.535858  0  0.223944  0.599638  0  4.143433  0
C  C115  1  0.75894443  0.86574170  0.86277373  1  0  0.679777  0  3.846482  0  0  0.623582  0  4.138764  0  0  0.6589  0  4.130733  0  1.535864  0  0.223935  0.59962  0  4.143495  0
O  O116  1  0.08193558  0.33572999  0.29966917  1  0  -0.540582  0  2.074476  0  0  -0.48763  0  2.284772  0  0  -0.510079  0  2.269849  0  -1.152188  0  -0.328717  -0.47197  0  2.293163  0
O  O117  1  0.58193770  0.66426829  0.20033093  1  0  -0.540622  0  2.074395  0  0  -0.487673  0  2.284687  0  0  -0.510121  0  2.269771  0  -1.152213  0  -0.328713  -0.472013  0  2.293077  0
O  O118  1  0.91806182  0.66426829  0.70033037  1  0  -0.540558  0  2.07436  0  0  -0.487626  0  2.284667  0  0  -0.510073  0  2.269741  0  -1.152226  0  -0.328712  -0.471966  0  2.293059  0
O  O119  1  0.41806107  0.33573085  0.79966932  1  0  -0.540587  0  2.074364  0  0  -0.487649  0  2.284683  0  0  -0.510098  0  2.269779  0  -1.15217  0  -0.328706  -0.471989  0  2.293074  0
O  O120  1  0.83533098  0.24164562  0.23616884  1  0  -0.59262  0  2.01764  0  0  -0.540753  0  2.264479  0  0  -0.563839  0  2.252662  0  -1.160136  0  -0.285022  -0.524822  0  2.272289  0
O  O121  1  0.33533023  0.75835353  0.26383028  1  0  -0.592591  0  2.017694  0  0  -0.540746  0  2.264552  0  0  -0.563834  0  2.252739  0  -1.160123  0  -0.28506  -0.524813  0  2.272365  0
O  O122  1  0.16466916  0.75835353  0.76383141  1  0  -0.59263  0  2.01766  0  0  -0.540763  0  2.264498  0  0  -0.56385  0  2.252685  0  -1.160119  0  -0.285008  -0.524833  0  2.272311  0
O  O123  1  0.66466991  0.24164648  0.73616786  1  0  -0.592655  0  2.01761  0  0  -0.540754  0  2.264433  0  0  -0.563841  0  2.252617  0  -1.160127  0  -0.285014  -0.524821  0  2.272244  0
O  O124  1  0.29879878  0.69646808  0.42587695  1  0  -0.270978  0  2.356283  0  0  -0.199324  0  2.586279  0  0  -0.217954  0  2.590077  0  -1.071363  0  -0.171761  -0.185995  0  2.583205  0
O  O125  1  0.79879954  0.30353280  0.07412415  1  0  -0.270986  0  2.356195  0  0  -0.199334  0  2.586203  0  0  -0.217963  0  2.589999  0  -1.071378  0  -0.171765  -0.186006  0  2.583129  0
O  O126  1  0.70120410  0.30353280  0.57412303  1  0  -0.271011  0  2.356312  0  0  -0.199347  0  2.586293  0  0  -0.217975  0  2.590089  0  -1.071355  0  -0.171774  -0.186019  0  2.58322  0
O  O127  1  0.20120060  0.69646808  0.92587582  1  0  -0.271027  0  2.35623  0  0  -0.199358  0  2.586221  0  0  -0.217989  0  2.590013  0  -1.071375  0  -0.171804  -0.186026  0  2.583145  0
O  O128  1  0.06527067  0.91649546  0.68735661  1  0  -0.674573  0  2.139634  0  0  -0.59643  0  2.415544  0  0  -0.626816  0  2.399892  0  -1.168378  0  -0.315036  -0.575256  0  2.425725  0
O  O129  1  0.56527142  0.08350455  0.81264322  1  0  -0.674605  0  2.139638  0  0  -0.596464  0  2.41555  0  0  -0.62685  0  2.399897  0  -1.168387  0  -0.315052  -0.575293  0  2.425741  0
O  O130  1  0.93472810  0.08350455  0.31264379  1  0  -0.67462  0  2.139547  0  0  -0.596484  0  2.415548  0  0  -0.626872  0  2.399896  0  -1.168389  0  -0.315054  -0.575309  0  2.425731  0
O  O131  1  0.43473009  0.91649546  0.18735605  1  0  -0.674583  0  2.139595  0  0  -0.596444  0  2.415559  0  0  -0.62683  0  2.399907  0  -1.168375  0  -0.31504  -0.575276  0  2.425757  0
O  O132  1  0.80536321  0.00287253  0.66443726  1  0  -0.665051  0  2.137215  0  0  -0.591127  0  2.423567  0  0  -0.619643  0  2.405266  0  -1.211827  0  -0.323448  -0.571238  0  2.43563  0
O  O133  1  0.30536246  0.99712835  0.83556385  1  0  -0.665036  0  2.137168  0  0  -0.591111  0  2.423517  0  0  -0.619626  0  2.405218  0  -1.211815  0  -0.323434  -0.571225  0  2.435586  0
O  O134  1  0.19463830  0.99712835  0.33556160  1  0  -0.665146  0  2.137117  0  0  -0.591189  0  2.423506  0  0  -0.619704  0  2.405202  0  -1.2118  0  -0.323463  -0.571315  0  2.43561  0
O  O135  1  0.69463768  0.00287253  0.16443669  1  0  -0.665083  0  2.137135  0  0  -0.591134  0  2.423515  0  0  -0.619651  0  2.405213  0  -1.21182  0  -0.323473  -0.571242  0  2.435572  0
O  O136  1  0.77778535  0.82178148  0.29112407  1  0  -0.672421  0  2.052797  0  0  -0.606582  0  2.280377  0  0  -0.631394  0  2.266776  0  -1.209006  0  -0.314841  -0.589328  0  2.288957  0
O  O137  1  0.27778734  0.17821940  0.20887535  1  0  -0.672385  0  2.052854  0  0  -0.606555  0  2.280428  0  0  -0.631365  0  2.266827  0  -1.209094  0  -0.31482  -0.5893  0  2.289007  0
O  O138  1  0.22221479  0.17821853  0.70887577  1  0  -0.67234  0  2.052894  0  0  -0.606519  0  2.280442  0  0  -0.63133  0  2.266844  0  -1.209014  0  -0.314828  -0.589265  0  2.289022  0
O  O139  1  0.72221417  0.82178061  0.79112336  1  0  -0.672366  0  2.052907  0  0  -0.606513  0  2.280447  0  0  -0.631325  0  2.266849  0  -1.209051  0  -0.314827  -0.58926  0  2.289027  0
O  O140  1  0.59750158  0.92655276  0.38552944  1  0  -0.618414  0  2.026012  0  0  -0.542251  0  2.28953  0  0  -0.571738  0  2.273447  0  -1.142923  0  -0.304914  -0.521738  0  2.299938  0
O  O141  1  0.09750357  0.07344725  0.11447095  1  0  -0.618443  0  2.026058  0  0  -0.542271  0  2.289554  0  0  -0.571767  0  2.273492  0  -1.142911  0  -0.304908  -0.521758  0  2.299964  0
O  O142  1  0.40249993  0.07344639  0.61447137  1  0  -0.618313  0  2.026181  0  0  -0.542176  0  2.289671  0  0  -0.571668  0  2.273593  0  -1.142945  0  -0.304832  -0.521664  0  2.300082  0
O  O143  1  0.90249931  0.92655276  0.88552776  1  0  -0.618334  0  2.026236  0  0  -0.54217  0  2.289733  0  0  -0.571665  0  2.273667  0  -1.142931  0  -0.304843  -0.521658  0  2.300143  0
O  O144  1  0.01811970  0.86533751  0.18538418  1  0  -0.820335  0  1.876836  0  0  -0.760827  0  2.090449  0  0  -0.782387  0  2.057635  0  -1.234714  0  -0.567615  -0.745603  0  2.112031  0
O  O145  1  0.51812045  0.13466251  0.31461565  1  0  -0.820376  0  1.876878  0  0  -0.760873  0  2.090501  0  0  -0.782436  0  2.05762  0  -1.234673  0  -0.567629  -0.74565  0  2.112087  0
O  O146  1  0.98188044  0.13466251  0.81461565  1  0  -0.820362  0  1.876862  0  0  -0.76086  0  2.090487  0  0  -0.782422  0  2.057606  0  -1.234722  0  -0.567621  -0.745637  0  2.112072  0
O  O147  1  0.48187969  0.86533751  0.68538418  1  0  -0.820325  0  1.876804  0  0  -0.76083  0  2.09043  0  0  -0.782391  0  2.057625  0  -1.234709  0  -0.567617  -0.745608  0  2.112013  0
