# generated using pymatgen
data_Co3H8C14(NO)6
_symmetry_space_group_name_H-M   'P 1'
_cell_length_a   10.94809552
_cell_length_b   10.94712415
_cell_length_c   10.78802599
_cell_angle_alpha   87.14805155
_cell_angle_beta   87.17334649
_cell_angle_gamma   75.33647879
_symmetry_Int_Tables_number   1
_chemical_formula_structural   Co3H8C14(NO)6
_chemical_formula_sum   'Co6 H16 C28 N12 O12'
_cell_volume   1248.38256880
_cell_formula_units_Z   2
loop_
 _symmetry_equiv_pos_site_id
 _symmetry_equiv_pos_as_xyz
  1  'x, y, z'
loop_
 _atom_site_type_symbol
 _atom_site_label
 _atom_site_symmetry_multiplicity
 _atom_site_fract_x
 _atom_site_fract_y
 _atom_site_fract_z
 _atom_site_occupancy
 _atom_site_pbe_bader_charge
 _atom_site_pbe_bader_spin_density
 _atom_site_pbe_cm5_charge
 _atom_site_pbe_ddec_charge
 _atom_site_pbe_ddec_spin_density
 _atom_site_pbe_ddec_sum_bond_order
 _atom_site_pbe_magmom
Co  Co0  1  0.08559412  0.91444084  0.25007506  1  1.323645  2.667396  0.694525  0.912262  2.912259  2.649911  2.651
Co  Co1  1  0.91440366  0.08556212  0.74992086  1  1.323657  2.667406  0.694559  0.912338  2.91228  2.649832  2.651
Co  Co2  1  0.01620045  0.15322898  0.99548685  1  1.215793  2.558476  0.672999  0.838806  2.733445  2.566398  2.511
Co  Co3  1  0.84651721  0.98388912  0.50460697  1  1.214937  2.55806  0.672572  0.837682  2.732418  2.564522  2.51
Co  Co4  1  0.98380208  0.84677007  0.00451272  1  1.215744  2.558472  0.672989  0.838826  2.733433  2.56631  2.511
Co  Co5  1  0.15348251  0.01610977  0.49539466  1  1.214959  2.558072  0.672562  0.837725  2.732434  2.564426  2.511
H  H6  1  0.05787340  0.44039576  0.05734755  1  0.132491  0.00095  0.110865  0.129298  0.000273  1.035751  0.0
H  H7  1  0.55946596  0.94316717  0.44228711  1  0.133553  0.000947  0.110608  0.129405  0.000272  1.03619  0.0
H  H8  1  0.94211506  0.55961701  0.94265483  1  0.132787  0.000949  0.110896  0.129322  0.000273  1.035724  0.0
H  H9  1  0.44053000  0.05683634  0.55771445  1  0.133663  0.000946  0.110618  0.129356  0.000272  1.036235  0.0
H  H10  1  0.14888623  0.34272690  0.51171766  1  0.093199  0.00065  0.11045  0.122375  0.000199  0.990566  0.0
H  H11  1  0.65782935  0.84954268  0.98861583  1  0.092456  0.00065  0.110641  0.122543  0.000198  0.989951  0.0
H  H12  1  0.85112291  0.65726409  0.48828479  1  0.093128  0.00065  0.110465  0.122474  0.000199  0.99061  0.0
H  H13  1  0.34217115  0.15044945  0.01137599  1  0.092307  0.00065  0.110607  0.122591  0.000198  0.989917  0.0
H  H14  1  0.13975589  0.55742251  0.41383388  1  0.098572  0.000377  0.103313  0.108899  0.000105  1.007561  0.0
H  H15  1  0.44322756  0.85840340  0.08649012  1  0.108042  0.000376  0.103838  0.109672  0.000105  1.00717  0.0
H  H16  1  0.86024671  0.44257116  0.58617439  1  0.09872  0.000377  0.103311  0.108904  0.000105  1.007592  0.0
H  H17  1  0.55677310  0.14159435  0.91351244  1  0.108058  0.000376  0.103854  0.109733  0.000105  1.007094  0.0
H  H18  1  0.19018318  0.90980579  0.04086444  1  0.580767  0.004632  0.308163  0.39385  0.00309  0.899753  0.005
H  H19  1  0.09029995  0.80970089  0.45906268  1  0.579113  0.004632  0.308034  0.393366  0.003087  0.900218  0.005
H  H20  1  0.80982421  0.09019308  0.95914503  1  0.580644  0.004635  0.30816  0.393773  0.003091  0.899918  0.005
H  H21  1  0.90970053  0.19029576  0.54092421  1  0.579263  0.004632  0.308029  0.39339  0.003087  0.900183  0.005
C  C22  1  0.08999080  0.64261770  0.18172550  1  1.552653  -0.000132  0.216749  0.593265  -0.001455  4.15367  0.0
C  C23  1  0.35755285  0.90985981  0.31820401  1  1.552025  -0.000203  0.216792  0.593059  -0.001527  4.15224  0.0
C  C24  1  0.91001184  0.35738326  0.81828136  1  1.553558  -0.000137  0.216821  0.59329  -0.001456  4.153736  0.0
C  C25  1  0.64244686  0.09014724  0.68179245  1  1.551177  -0.000202  0.216745  0.592851  -0.001526  4.152226  0.0
C  C26  1  0.09873691  0.51045828  0.23134724  1  0.061784  0.010309  -0.021302  -0.041018  0.005183  3.975435  0.008
C  C27  1  0.48977087  0.90095726  0.26859965  1  0.061027  0.010398  -0.021141  -0.039533  0.005229  3.97158  0.009
C  C28  1  0.90126102  0.48954392  0.76866170  1  0.066132  0.010308  -0.021321  -0.040861  0.005183  3.975406  0.008
C  C29  1  0.51022971  0.09904039  0.73139551  1  0.061084  0.010398  -0.021156  -0.03956  0.005229  3.971525  0.009
C  C30  1  0.07733568  0.41961811  0.15494442  1  -0.016535  -0.003117  -0.077037  -0.151792  -0.004732  3.917214  -0.002
C  C31  1  0.58038920  0.92313291  0.34484215  1  -0.009731  -0.003177  -0.077237  -0.152977  -0.004786  3.915469  -0.002
C  C32  1  0.92265185  0.58038947  0.84506207  1  -0.016788  -0.003118  -0.077036  -0.151849  -0.004732  3.917203  -0.002
C  C33  1  0.41960761  0.07686120  0.65515720  1  -0.009829  -0.003176  -0.07728  -0.152916  -0.004785  3.915433  -0.002
C  C34  1  0.08077883  0.30010684  0.20965083  1  0.345971  0.011477  0.093553  0.129766  0.00626  4.040999  0.011
C  C35  1  0.69988011  0.91967128  0.29019150  1  0.341789  0.011559  0.094089  0.131053  0.006287  4.039348  0.011
C  C36  1  0.91921713  0.69989667  0.79035074  1  0.346145  0.011474  0.093491  0.129649  0.006259  4.041099  0.011
C  C37  1  0.30011859  0.08032415  0.70980578  1  0.341176  0.011563  0.094133  0.131205  0.006287  4.039407  0.011
C  C38  1  0.10784909  0.27258170  0.33678909  1  0.383396  0.006751  0.098394  0.137477  0.004  4.056697  0.007
C  C39  1  0.72752202  0.89206665  0.16319042  1  0.379532  0.006709  0.097918  0.136444  0.003973  4.057807  0.007
C  C40  1  0.89215061  0.72741990  0.66320958  1  0.383505  0.006751  0.098411  0.137548  0.003999  4.056665  0.007
C  C41  1  0.27247665  0.10792966  0.83680403  1  0.378997  0.00671  0.097924  0.136334  0.003974  4.057847  0.007
C  C42  1  0.12995481  0.36398492  0.41372358  1  -0.037327  0.002078  -0.089697  -0.159224  0.000814  4.002018  0.001
C  C43  1  0.63643529  0.86901362  0.08646685  1  -0.035891  0.002108  -0.089746  -0.15856  0.000832  4.001522  0.002
C  C44  1  0.87005442  0.63601160  0.58628315  1  -0.038097  0.002077  -0.089663  -0.15933  0.000814  4.002255  0.001
C  C45  1  0.36356240  0.13097835  0.91352702  1  -0.035077  0.002108  -0.089758  -0.158652  0.000832  4.001467  0.002
C  C46  1  0.12465589  0.48200063  0.35913930  1  -0.039535  -0.002046  -0.086717  -0.094054  -0.002841  3.996047  -0.001
C  C47  1  0.51845184  0.87424986  0.14100633  1  -0.054939  -0.002076  -0.087174  -0.09545  -0.002876  3.995284  -0.001
C  C48  1  0.87534672  0.51799668  0.64086780  1  -0.04322  -0.002046  -0.086666  -0.094052  -0.002843  3.996048  -0.001
C  C49  1  0.48154873  0.12574780  0.85898883  1  -0.054903  -0.002075  -0.087108  -0.095437  -0.002875  3.995065  -0.001
N  N50  1  0.10492018  0.14982785  0.36080035  1  -0.698485  0.073247  -0.244189  -0.232704  0.037541  3.567826  0.056
N  N51  1  0.85015586  0.89529907  0.13911686  1  -0.700524  0.073559  -0.244035  -0.232875  0.037682  3.568552  0.056
N  N52  1  0.89508233  0.85017299  0.63919633  1  -0.698501  0.073244  -0.244212  -0.232643  0.03754  3.567894  0.056
N  N53  1  0.14984380  0.10469613  0.86088223  1  -0.700481  0.073563  -0.244019  -0.232784  0.037683  3.568323  0.056
N  N54  1  0.07663606  0.10524492  0.25632356  1  -0.17166  0.050116  -0.115658  -0.038708  0.026741  3.578374  0.046
N  N55  1  0.89465518  0.92398708  0.24349669  1  -0.169582  0.050008  -0.115503  -0.038977  0.026667  3.578079  0.046
N  N56  1  0.92336362  0.89475757  0.74367319  1  -0.171786  0.050114  -0.115702  -0.038889  0.026742  3.578553  0.046
N  N57  1  0.10534542  0.07600970  0.75650130  1  -0.169613  0.05001  -0.115462  -0.038876  0.026667  3.577934  0.046
N  N58  1  0.06156732  0.19185213  0.16286905  1  -0.695361  0.05293  -0.243951  -0.247524  0.02759  3.542893  0.032
N  N59  1  0.80804429  0.93918145  0.33691322  1  -0.690752  0.052729  -0.244009  -0.247693  0.0275  3.542888  0.032
N  N60  1  0.93842953  0.80814927  0.83712889  1  -0.695405  0.052929  -0.243939  -0.247441  0.027591  3.542978  0.032
N  N61  1  0.19195725  0.06081508  0.66308381  1  -0.690364  0.052728  -0.244092  -0.247869  0.027502  3.543033  0.032
O  O62  1  0.11405799  0.71935644  0.25583878  1  -1.159463  0.072938  -0.309144  -0.549624  0.037266  2.363055  0.065
O  O63  1  0.28067537  0.88595756  0.24414087  1  -1.159835  0.072914  -0.309071  -0.549586  0.037247  2.36341  0.065
O  O64  1  0.88594654  0.28064676  0.74416688  1  -1.160225  0.072942  -0.309197  -0.549689  0.037265  2.363114  0.065
O  O65  1  0.71932153  0.11405116  0.75585751  1  -1.158918  0.072913  -0.309066  -0.549501  0.037246  2.363338  0.065
O  O66  1  0.05690891  0.66998556  0.06894210  1  -1.159568  0.091067  -0.320819  -0.557332  0.046299  2.350281  0.073
O  O67  1  0.33029909  0.94301426  0.43098769  1  -1.157178  0.090886  -0.321062  -0.557756  0.046199  2.348997  0.073
O  O68  1  0.94309373  0.33001632  0.93106470  1  -1.159703  0.091075  -0.32091  -0.557412  0.046302  2.350241  0.073
O  O69  1  0.66970153  0.05699160  0.56900600  1  -1.157229  0.090893  -0.321003  -0.557627  0.0462  2.348915  0.073
O  O70  1  0.10003866  0.93978924  0.06032922  1  -1.148246  0.236017  -0.552975  -0.837428  0.124783  2.359065  0.194
O  O71  1  0.06017582  0.89989832  0.43980679  1  -1.146246  0.235793  -0.553029  -0.836486  0.124662  2.356375  0.193
O  O72  1  0.89996666  0.06021629  0.93966233  1  -1.148009  0.236013  -0.552975  -0.837344  0.124785  2.359311  0.194
O  O73  1  0.93982388  0.10010056  0.56019391  1  -1.146443  0.23579  -0.553021  -0.836499  0.124659  2.356378  0.193
