# generated using pymatgen
data_Ag2H6C8O5
_symmetry_space_group_name_H-M   'P 1'
_cell_length_a   6.49359228
_cell_length_b   11.54637901
_cell_length_c   12.23663851
_cell_angle_alpha   105.30674564
_cell_angle_beta   90.00071588
_cell_angle_gamma   89.99920287
_symmetry_Int_Tables_number   1
_chemical_formula_structural   Ag2H6C8O5
_chemical_formula_sum   'Ag8 H24 C32 O20'
_cell_volume   884.92619351
_cell_formula_units_Z   4
loop_
 _symmetry_equiv_pos_site_id
 _symmetry_equiv_pos_as_xyz
  1  'x, y, z'
loop_
 _atom_site_type_symbol
 _atom_site_label
 _atom_site_symmetry_multiplicity
 _atom_site_fract_x
 _atom_site_fract_y
 _atom_site_fract_z
 _atom_site_occupancy
 _atom_site_hle17_bader_spin_density
 _atom_site_hle17_ddec_charge
 _atom_site_hle17_ddec_spin_density
 _atom_site_hle17_ddec_sum_bond_order
 _atom_site_hle17_magmom
 _atom_site_hse06_10hf_bader_spin_density
 _atom_site_hse06_10hf_ddec_charge
 _atom_site_hse06_10hf_ddec_spin_density
 _atom_site_hse06_10hf_ddec_sum_bond_order
 _atom_site_hse06_10hf_magmom
 _atom_site_hse06_bader_spin_density
 _atom_site_hse06_ddec_charge
 _atom_site_hse06_ddec_spin_density
 _atom_site_hse06_ddec_sum_bond_order
 _atom_site_hse06_magmom
 _atom_site_pbe_bader_spin_density
 _atom_site_pbe_cm5_charge
 _atom_site_pbe_ddec_charge
 _atom_site_pbe_ddec_spin_density
 _atom_site_pbe_ddec_sum_bond_order
 _atom_site_pbe_magmom
Ag  Ag0  1  0.10583975  0.56424908  0.20575529  1  0  0.650731  0  1.299098  0  0  0.533479  0  1.731492  0  0  0.571388  0  1.668265  0  0  0.420062  0.506478  0  1.775573  0
Ag  Ag1  1  0.60583222  0.43574839  0.29424064  1  0  0.650789  0  1.298991  0  0  0.533506  0  1.731394  0  0  0.571419  0  1.668163  0  0  0.420091  0.506503  0  1.775474  0
Ag  Ag2  1  0.89416240  0.43575159  0.79423983  1  0  0.650716  0  1.29907  0  0  0.533448  0  1.731486  0  0  0.571362  0  1.668254  0  0  0.420035  0.506441  0  1.77557  0
Ag  Ag3  1  0.39415761  0.56424940  0.70576107  1  0  0.650766  0  1.299045  0  0  0.533501  0  1.731453  0  0  0.571415  0  1.66822  0  0  0.420053  0.506496  0  1.775534  0
Ag  Ag4  1  0.83351580  0.54653356  0.59609719  1  0  0.608804  0  1.370583  0  0  0.488813  0  1.826279  0  0  0.527009  0  1.761751  0  0  0.411004  0.461998  0  1.871189  0
Ag  Ag5  1  0.33352619  0.45346688  0.90390479  1  0  0.608792  0  1.370656  0  0  0.488759  0  1.826388  0  0  0.526964  0  1.761861  0  0  0.410991  0.46194  0  1.871302  0
Ag  Ag6  1  0.16646017  0.45347138  0.40390808  1  0  0.608832  0  1.370578  0  0  0.488812  0  1.8263  0  0  0.527014  0  1.761772  0  0  0.411003  0.461996  0  1.871212  0
Ag  Ag7  1  0.66646672  0.54653372  0.09609277  1  0  0.608826  0  1.37055  0  0  0.488777  0  1.826324  0  0  0.52698  0  1.761798  0  0  0.411002  0.461958  0  1.871237  0
H  H8  1  0.28588941  0.85891809  0.63253883  1  0  0.104917  0  0.940758  0  0  0.117516  0  0.998672  0  0  0.120256  0  0.997646  0  0  0.107085  0.115441  0  0.999702  0
H  H9  1  0.78587558  0.14108536  0.86746283  1  0  0.104882  0  0.940737  0  0  0.117479  0  0.998646  0  0  0.12022  0  0.997624  0  0  0.107064  0.115405  0  0.999676  0
H  H10  1  0.71411736  0.14108605  0.36746213  1  0  0.104898  0  0.940717  0  0  0.117496  0  0.99863  0  0  0.120234  0  0.997606  0  0  0.107067  0.115422  0  0.99966  0
H  H11  1  0.21411580  0.85891425  0.13253855  1  0  0.10494  0  0.940679  0  0  0.11753  0  0.998601  0  0  0.12027  0  0.997574  0  0  0.107064  0.115455  0  0.999632  0
H  H12  1  0.47664392  0.05005255  0.71633332  1  0  0.089909  0  0.981208  0  0  0.099501  0  1.044348  0  0  0.102288  0  1.043695  0  0  0.097533  0.097508  0  1.044915  0
H  H13  1  0.97662177  0.94995235  0.78367163  1  0  0.090033  0  0.981246  0  0  0.09961  0  1.044383  0  0  0.102397  0  1.043725  0  0  0.097564  0.097616  0  1.04495  0
H  H14  1  0.52336901  0.94995335  0.28366975  1  0  0.089939  0  0.981267  0  0  0.09953  0  1.044389  0  0  0.102317  0  1.043731  0  0  0.097545  0.097537  0  1.044956  0
H  H15  1  0.02336652  0.05004633  0.21633113  1  0  0.089918  0  0.981278  0  0  0.099533  0  1.044394  0  0  0.102322  0  1.043733  0  0  0.097543  0.097539  0  1.044962  0
H  H16  1  0.83169743  0.07669890  0.65069718  1  0  0.101845  0  0.955069  0  0  0.110626  0  1.017958  0  0  0.114096  0  1.015826  0  0  0.102771  0.10814  0  1.019544  0
H  H17  1  0.33168094  0.92329820  0.84929408  1  0  0.101813  0  0.955214  0  0  0.110612  0  1.018058  0  0  0.114091  0  1.015918  0  0  0.102802  0.108128  0  1.019635  0
H  H18  1  0.16832012  0.92330001  0.34929584  1  0  0.101753  0  0.955359  0  0  0.110564  0  1.018191  0  0  0.114043  0  1.016051  0  0  0.102799  0.108081  0  1.019768  0
H  H19  1  0.66831043  0.07670327  0.15070535  1  0  0.101835  0  0.95514  0  0  0.110589  0  1.018049  0  0  0.114069  0  1.015908  0  0  0.102771  0.108105  0  1.019627  0
H  H20  1  0.99975103  0.90887132  0.50747733  1  0  0.091078  0  0.976237  0  0  0.101237  0  1.041164  0  0  0.103252  0  1.040995  0  0  0.10316  0.099711  0  1.041544  0
H  H21  1  0.49974793  0.09112289  0.99251509  1  0  0.091163  0  0.976234  0  0  0.101319  0  1.041149  0  0  0.103335  0  1.040979  0  0  0.103193  0.099789  0  1.041533  0
H  H22  1  0.00025420  0.09112312  0.49251366  1  0  0.091099  0  0.976206  0  0  0.101288  0  1.041081  0  0  0.103304  0  1.040909  0  0  0.103173  0.099758  0  1.041467  0
H  H23  1  0.50024807  0.90887678  0.00748385  1  0  0.091123  0  0.976218  0  0  0.101298  0  1.041122  0  0  0.103314  0  1.040951  0  0  0.1032  0.099771  0  1.041502  0
H  H24  1  0.77923204  0.75825782  0.73242706  1  0  0.405772  0  0.877465  0  0  0.38075  0  0.946031  0  0  0.389237  0  0.938447  0  0  0.295174  0.374761  0  0.951308  0
H  H25  1  0.27924908  0.24174299  0.76757383  1  0  0.405713  0  0.877491  0  0  0.380705  0  0.946029  0  0  0.389192  0  0.938446  0  0  0.295133  0.374717  0  0.951303  0
H  H26  1  0.22074855  0.24174622  0.26757796  1  0  0.405699  0  0.877522  0  0  0.3807  0  0.946032  0  0  0.389186  0  0.938454  0  0  0.295151  0.374711  0  0.951306  0
H  H27  1  0.72074537  0.75825674  0.23242267  1  0  0.405697  0  0.877528  0  0  0.380712  0  0.946015  0  0  0.389196  0  0.938441  0  0  0.295178  0.374724  0  0.951287  0
H  H28  1  0.98971592  0.71008058  0.76588347  1  0  0.413851  0  0.898106  0  0  0.382724  0  0.963857  0  0  0.393962  0  0.947795  0  0  0.282758  0.374769  0  0.975184  0
H  H29  1  0.48972635  0.28992160  0.73411839  1  0  0.413834  0  0.898086  0  0  0.382692  0  0.963913  0  0  0.39393  0  0.94785  0  0  0.282702  0.374736  0  0.975241  0
H  H30  1  0.01027083  0.28992533  0.23411879  1  0  0.413779  0  0.89813  0  0  0.382637  0  0.963979  0  0  0.393875  0  0.947917  0  0  0.282698  0.374682  0  0.975306  0
H  H31  1  0.51027119  0.71007628  0.26588007  1  0  0.413803  0  0.898122  0  0  0.382662  0  0.963951  0  0  0.3939  0  0.94789  0  0  0.282716  0.374706  0  0.97528  0
C  C32  1  0.73494035  0.79486241  0.48368364  1  0  -0.070504  0  3.720467  0  0  -0.051939  0  3.947843  0  0  -0.057704  0  3.968649  0  0  -0.016439  -0.04821  0  3.934059  0
C  C33  1  0.23493231  0.20513326  0.01631593  1  0  -0.070141  0  3.72027  0  0  -0.051599  0  3.947571  0  0  -0.05736  0  3.968378  0  0  -0.016313  -0.047872  0  3.933784  0
C  C34  1  0.26506642  0.20513367  0.51631433  1  0  -0.070374  0  3.720272  0  0  -0.051818  0  3.947624  0  0  -0.057583  0  3.968432  0  0  -0.016382  -0.048089  0  3.933839  0
C  C35  1  0.76506060  0.79486812  0.98368674  1  0  -0.070239  0  3.720281  0  0  -0.051681  0  3.94757  0  0  -0.057452  0  3.968389  0  0  -0.016331  -0.047954  0  3.933782  0
C  C36  1  0.53207943  0.78094685  0.51945841  1  0  -0.076076  0  3.73564  0  0  -0.059493  0  3.969492  0  0  -0.065178  0  3.990258  0  0  -0.014767  -0.055867  0  3.955752  0
C  C37  1  0.03206977  0.21905285  0.98053972  1  0  -0.076361  0  3.735743  0  0  -0.059809  0  3.969551  0  0  -0.065494  0  3.990315  0  0  -0.01486  -0.05618  0  3.955811  0
C  C38  1  0.46793042  0.21905280  0.48054134  1  0  -0.07617  0  3.735624  0  0  -0.05962  0  3.96945  0  0  -0.065304  0  3.990216  0  0  -0.014775  -0.055993  0  3.955712  0
C  C39  1  0.96792622  0.78094774  0.01945865  1  0  -0.076184  0  3.735763  0  0  -0.059653  0  3.96957  0  0  -0.065335  0  3.990336  0  0  -0.014828  -0.056026  0  3.955828  0
C  C40  1  0.44191042  0.87184184  0.60488256  1  0  -0.070455  0  3.712118  0  0  -0.09332  0  3.961075  0  0  -0.094092  0  3.980904  0  0  -0.08217  -0.092797  0  3.947931  0
C  C41  1  0.94189294  0.12815787  0.89512159  1  0  -0.070187  0  3.712122  0  0  -0.093042  0  3.961045  0  0  -0.093817  0  3.980877  0  0  -0.082074  -0.09252  0  3.947899  0
C  C42  1  0.55810405  0.12815859  0.39512231  1  0  -0.070258  0  3.712205  0  0  -0.093109  0  3.961137  0  0  -0.093879  0  3.980966  0  0  -0.082105  -0.092587  0  3.947993  0
C  C43  1  0.05810305  0.87184176  0.10487898  1  0  -0.070325  0  3.71209  0  0  -0.093178  0  3.961043  0  0  -0.093949  0  3.980872  0  0  -0.082096  -0.092655  0  3.947896  0
C  C44  1  0.54846546  0.97845004  0.65135187  1  0  -0.054938  0  3.73756  0  0  -0.070165  0  3.988506  0  0  -0.071572  0  4.009126  0  0  -0.086653  -0.069167  0  3.974461  0
C  C45  1  0.04844526  0.02155129  0.84864926  1  0  -0.055265  0  3.737891  0  0  -0.070489  0  3.988871  0  0  -0.071897  0  4.009495  0  0  -0.086762  -0.069492  0  3.974826  0
C  C46  1  0.45155209  0.02155222  0.34865185  1  0  -0.055155  0  3.737826  0  0  -0.070382  0  3.988811  0  0  -0.07179  0  4.009436  0  0  -0.086739  -0.069385  0  3.974767  0
C  C47  1  0.95154611  0.97844925  0.15135074  1  0  -0.055034  0  3.737815  0  0  -0.070285  0  3.988767  0  0  -0.071694  0  4.009393  0  0  -0.086681  -0.069288  0  3.97472  0
C  C48  1  0.74784908  0.99338700  0.61480279  1  0  -0.067772  0  3.742775  0  0  -0.081509  0  3.995614  0  0  -0.083111  0  4.01499  0  0  -0.087464  -0.080371  0  3.982444  0
C  C49  1  0.24783013  0.00660954  0.88519593  1  0  -0.067679  0  3.742799  0  0  -0.08145  0  3.995686  0  0  -0.08306  0  4.015059  0  0  -0.087454  -0.080312  0  3.982515  0
C  C50  1  0.25216847  0.00660996  0.38519624  1  0  -0.067674  0  3.742915  0  0  -0.081458  0  3.995787  0  0  -0.083069  0  4.015162  0  0  -0.087452  -0.080319  0  3.982615  0
C  C51  1  0.75216124  0.99339003  0.11480707  1  0  -0.067754  0  3.742796  0  0  -0.081481  0  3.995676  0  0  -0.083093  0  4.01505  0  0  -0.08745  -0.080343  0  3.982503  0
C  C52  1  0.84109811  0.90091974  0.53298156  1  0  -0.063201  0  3.723523  0  0  -0.087955  0  3.972034  0  0  -0.088045  0  3.991459  0  0  -0.083763  -0.087899  0  3.959125  0
C  C53  1  0.34108496  0.09907261  0.96701666  1  0  -0.063331  0  3.723399  0  0  -0.088067  0  3.97192  0  0  -0.088157  0  3.991345  0  0  -0.083849  -0.088009  0  3.959013  0
C  C54  1  0.15891482  0.09907362  0.46701650  1  0  -0.063212  0  3.723342  0  0  -0.087964  0  3.971849  0  0  -0.088053  0  3.991275  0  0  -0.083827  -0.087906  0  3.958944  0
C  C55  1  0.65890949  0.90092786  0.03298658  1  0  -0.06333  0  3.723436  0  0  -0.088111  0  3.971984  0  0  -0.088198  0  3.99141  0  0  -0.083883  -0.088055  0  3.959075  0
C  C56  1  0.40724932  0.67397292  0.46131330  1  0  0.671407  0  3.87013  0  0  0.614733  0  4.155759  0  0  0.650956  0  4.150291  0  0  0.208384  0.589898  0  4.158691  0
C  C57  1  0.90724461  0.32602988  0.03868362  1  0  0.671377  0  3.870226  0  0  0.614854  0  4.155624  0  0  0.65108  0  4.150147  0  0  0.208433  0.590018  0  4.158558  0
C  C58  1  0.59276053  0.32603120  0.53868847  1  0  0.671352  0  3.870212  0  0  0.614793  0  4.15569  0  0  0.651017  0  4.150218  0  0  0.208404  0.589958  0  4.158625  0
C  C59  1  0.09276216  0.67396983  0.96131369  1  0  0.671213  0  3.870461  0  0  0.614705  0  4.155868  0  0  0.65093  0  4.150395  0  0  0.208369  0.589868  0  4.158801  0
C  C60  1  0.84378630  0.69752926  0.39728223  1  0  0.657185  0  3.881044  0  0  0.602128  0  4.163264  0  0  0.638729  0  4.15729  0  0  0.204611  0.57692  0  4.166651  0
C  C61  1  0.34378405  0.30246392  0.10271740  1  0  0.657082  0  3.881312  0  0  0.602089  0  4.163394  0  0  0.638687  0  4.157417  0  0  0.204621  0.576883  0  4.166782  0
C  C62  1  0.15621585  0.30246674  0.60271899  1  0  0.65711  0  3.881189  0  0  0.602091  0  4.163335  0  0  0.638693  0  4.157357  0  0  0.204607  0.576884  0  4.166726  0
C  C63  1  0.65621040  0.69753581  0.89727910  1  0  0.65702  0  3.881251  0  0  0.602079  0  4.163252  0  0  0.63868  0  4.157274  0  0  0.204651  0.576873  0  4.166641  0
O  O64  1  0.94905955  0.72934571  0.32194044  1  0  -0.623641  0  2.043577  0  0  -0.549417  0  2.295479  0  0  -0.580921  0  2.284833  0  0  -0.31512  -0.527174  0  2.301929  0
O  O65  1  0.44905065  0.27064411  0.17805900  1  0  -0.623701  0  2.043881  0  0  -0.549437  0  2.295687  0  0  -0.58094  0  2.285041  0  0  -0.315103  -0.527183  0  2.30211  0
O  O66  1  0.05095030  0.27064135  0.67805674  1  0  -0.623652  0  2.043724  0  0  -0.549427  0  2.295598  0  0  -0.580931  0  2.284949  0  0  -0.315088  -0.527173  0  2.302024  0
O  O67  1  0.55094226  0.72936009  0.82193953  1  0  -0.623675  0  2.043833  0  0  -0.54945  0  2.29564  0  0  -0.580957  0  2.284995  0  0  -0.315132  -0.527185  0  2.302036  0
O  O68  1  0.82646449  0.58894712  0.40298706  1  0  -0.691292  0  2.223859  0  0  -0.601734  0  2.509403  0  0  -0.637207  0  2.494648  0  0  -0.337084  -0.576662  0  2.518572  0
O  O69  1  0.32647017  0.41104880  0.09701565  1  0  -0.691333  0  2.223932  0  0  -0.60179  0  2.50941  0  0  -0.63729  0  2.494721  0  0  -0.337132  -0.576717  0  2.518577  0
O  O70  1  0.17352996  0.41105071  0.59701303  1  0  -0.691292  0  2.223951  0  0  -0.601754  0  2.509504  0  0  -0.63724  0  2.494771  0  0  -0.33712  -0.576683  0  2.518676  0
O  O71  1  0.67352890  0.58895172  0.90298515  1  0  -0.691265  0  2.223868  0  0  -0.601753  0  2.509356  0  0  -0.637245  0  2.494649  0  0  -0.337124  -0.57668  0  2.518522  0
O  O72  1  0.40119166  0.64489972  0.35318841  1  0  -0.684825  0  2.171904  0  0  -0.602075  0  2.422995  0  0  -0.634969  0  2.410347  0  0  -0.317136  -0.578917  0  2.430914  0
O  O73  1  0.90119341  0.35510403  0.14680792  1  0  -0.684815  0  2.172028  0  0  -0.602113  0  2.423043  0  0  -0.635003  0  2.410387  0  0  -0.317143  -0.578957  0  2.430966  0
O  O74  1  0.59881511  0.35510171  0.64681264  1  0  -0.684891  0  2.172036  0  0  -0.602187  0  2.423085  0  0  -0.635079  0  2.410431  0  0  -0.317202  -0.579028  0  2.431007  0
O  O75  1  0.09881490  0.64489841  0.85318850  1  0  -0.684821  0  2.172018  0  0  -0.602139  0  2.423031  0  0  -0.635031  0  2.410378  0  0  -0.317173  -0.578982  0  2.430953  0
O  O76  1  0.31092040  0.61631644  0.52111158  1  0  -0.607961  0  2.109625  0  0  -0.523786  0  2.390974  0  0  -0.559715  0  2.378704  0  0  -0.315075  -0.498551  0  2.398627  0
O  O77  1  0.81091548  0.38368975  0.97888281  1  0  -0.607888  0  2.109544  0  0  -0.523754  0  2.390813  0  0  -0.559685  0  2.378543  0  0  -0.315099  -0.498518  0  2.398464  0
O  O78  1  0.68908637  0.38368594  0.47888728  1  0  -0.607829  0  2.109613  0  0  -0.523689  0  2.390906  0  0  -0.559621  0  2.378637  0  0  -0.315017  -0.498455  0  2.398557  0
O  O79  1  0.18909591  0.61631628  0.02111458  1  0  -0.607763  0  2.109779  0  0  -0.523614  0  2.391019  0  0  -0.559542  0  2.37875  0  0  -0.315  -0.498379  0  2.39867  0
O  O80  1  0.91535852  0.72995828  0.70070153  1  0  -0.784824  0  1.93829  0  0  -0.710113  0  2.147498  0  0  -0.738654  0  2.122745  0  0  -0.57689  -0.690019  0  2.164501  0
O  O81  1  0.41537407  0.27003989  0.79929875  1  0  -0.784773  0  1.938384  0  0  -0.710052  0  2.147574  0  0  -0.738596  0  2.122826  0  0  -0.576781  -0.689954  0  2.164572  0
O  O82  1  0.08462053  0.27004317  0.29929871  1  0  -0.784697  0  1.938426  0  0  -0.709989  0  2.147646  0  0  -0.738532  0  2.122899  0  0  -0.576787  -0.68989  0  2.164644  0
O  O83  1  0.58462038  0.72995797  0.20070052  1  0  -0.784736  0  1.938455  0  0  -0.710022  0  2.147636  0  0  -0.738565  0  2.122891  0  0  -0.57684  -0.689921  0  2.164635  0
