# generated using pymatgen
data_CdH16C22(NO3)2
_symmetry_space_group_name_H-M   'P 1'
_cell_length_a   8.94917963
_cell_length_b   10.98687745
_cell_length_c   11.90391146
_cell_angle_alpha   64.51245954
_cell_angle_beta   75.34213245
_cell_angle_gamma   89.33188804
_symmetry_Int_Tables_number   1
_chemical_formula_structural   CdH16C22(NO3)2
_chemical_formula_sum   'Cd2 H32 C44 N4 O12'
_cell_volume   1015.78631616
_cell_formula_units_Z   2
loop_
 _symmetry_equiv_pos_site_id
 _symmetry_equiv_pos_as_xyz
  1  'x, y, z'
loop_
 _atom_site_type_symbol
 _atom_site_label
 _atom_site_symmetry_multiplicity
 _atom_site_fract_x
 _atom_site_fract_y
 _atom_site_fract_z
 _atom_site_occupancy
 _atom_site_hle17_bader_spin_density
 _atom_site_hle17_ddec_charge
 _atom_site_hle17_ddec_spin_density
 _atom_site_hle17_ddec_sum_bond_order
 _atom_site_hle17_magmom
 _atom_site_hse06_10hf_bader_spin_density
 _atom_site_hse06_10hf_ddec_charge
 _atom_site_hse06_10hf_ddec_spin_density
 _atom_site_hse06_10hf_ddec_sum_bond_order
 _atom_site_hse06_10hf_magmom
 _atom_site_hse06_bader_spin_density
 _atom_site_hse06_ddec_charge
 _atom_site_hse06_ddec_spin_density
 _atom_site_hse06_ddec_sum_bond_order
 _atom_site_hse06_magmom
 _atom_site_pbe_bader_spin_density
 _atom_site_pbe_cm5_charge
 _atom_site_pbe_ddec_charge
 _atom_site_pbe_ddec_spin_density
 _atom_site_pbe_ddec_sum_bond_order
 _atom_site_pbe_magmom
Cd  Cd0  1  0.49622149  0.30693750  0.59330059  1  0  1.112945  0  1.680637  0  0  0.91376  0  2.12556  0  0  0.975903  0  2.071404  0  0  0.769835  0.869969  0  2.162306  0
Cd  Cd1  1  0.50377993  0.69306541  0.40669809  1  0  1.112923  0  1.680639  0  0  0.913736  0  2.125568  0  0  0.975885  0  2.071405  0  0  0.769817  0.869947  0  2.162316  0
H  H2  1  0.86225394  0.62904693  0.60133807  1  0  0.11473  0  0.886307  0  0  0.1322  0  0.933022  0  0  0.133747  0  0.932211  0  0  0.125826  0.131072  0  0.933765  0
H  H3  1  0.13775198  0.37095499  0.39865930  1  0  0.11477  0  0.886344  0  0  0.132219  0  0.933059  0  0  0.133773  0  0.932241  0  0  0.125819  0.131091  0  0.933802  0
H  H4  1  0.67382539  0.67888738  0.63961701  1  0  0.098529  0  0.968634  0  0  0.10508  0  1.039288  0  0  0.107041  0  1.038161  0  0  0.106924  0.103711  0  1.040142  0
H  H5  1  0.32618297  0.32111554  0.36038118  1  0  0.098471  0  0.968645  0  0  0.105028  0  1.039289  0  0  0.106988  0  1.038152  0  0  0.106909  0.103657  0  1.04014  0
H  H6  1  0.76792652  0.49665438  0.02291171  1  0  0.102342  0  0.957622  0  0  0.114211  0  1.017047  0  0  0.117111  0  1.016184  0  0  0.101181  0.112193  0  1.017712  0
H  H7  1  0.23207812  0.50334653  0.97708546  1  0  0.102348  0  0.957626  0  0  0.114207  0  1.017054  0  0  0.117107  0  1.016191  0  0  0.101178  0.112191  0  1.017723  0
H  H8  1  0.45440067  0.55139905  0.78696657  1  0  0.107997  0  0.965795  0  0  0.119935  0  1.024879  0  0  0.122195  0  1.024605  0  0  0.104359  0.118314  0  1.025082  0
H  H9  1  0.54560500  0.44860085  0.21303080  1  0  0.108039  0  0.965785  0  0  0.119986  0  1.024851  0  0  0.122236  0  1.02459  0  0  0.104357  0.118359  0  1.025076  0
H  H10  1  0.65350338  0.04115602  0.36420697  1  0  0.093804  0  0.951636  0  0  0.101559  0  1.019587  0  0  0.103496  0  1.018249  0  0  0.106486  0.100203  0  1.020586  0
H  H11  1  0.34649434  0.95883570  0.63580015  1  0  0.093818  0  0.951654  0  0  0.101561  0  1.019612  0  0  0.103492  0  1.01827  0  0  0.106496  0.100204  0  1.020611  0
H  H12  1  0.68158176  0.20637648  0.23387917  1  0  0.087559  0  0.933879  0  0  0.099233  0  0.998823  0  0  0.100138  0  0.998888  0  0  0.108212  0.098583  0  0.99898  0
H  H13  1  0.31841559  0.79361225  0.76612331  1  0  0.08762  0  0.933821  0  0  0.099243  0  0.99884  0  0  0.100141  0  0.998901  0  0  0.108203  0.098591  0  0.998998  0
H  H14  1  0.15187725  0.19206738  0.29723429  1  0  0.107745  0  0.954108  0  0  0.117337  0  1.015986  0  0  0.121275  0  1.013288  0  0  0.102195  0.114515  0  1.017994  0
H  H15  1  0.84811764  0.80792938  0.70277392  1  0  0.107789  0  0.95407  0  0  0.117412  0  1.015916  0  0  0.121351  0  1.013217  0  0  0.102211  0.114589  0  1.017926  0
H  H16  1  0.72061092  0.93806906  0.53114783  1  0  0.116144  0  0.998151  0  0  0.124003  0  1.063529  0  0  0.12804  0  1.060555  0  0  0.099546  0.121006  0  1.065903  0
H  H17  1  0.27938307  0.06192973  0.46885976  1  0  0.116115  0  0.99816  0  0  0.124002  0  1.063503  0  0  0.128039  0  1.06053  0  0  0.099526  0.120994  0  1.065893  0
H  H18  1  0.21781779  0.49446555  0.65259097  1  0  0.095039  0  0.956221  0  0  0.10125  0  1.021568  0  0  0.104138  0  1.018786  0  0  0.11708  0.099102  0  1.0236  0
H  H19  1  0.78217992  0.50553534  0.34740753  1  0  0.095059  0  0.956215  0  0  0.101286  0  1.02154  0  0  0.104174  0  1.018759  0  0  0.117095  0.099138  0  1.023571  0
H  H20  1  0.00011409  0.48451353  0.83619268  1  0  0.118187  0  0.957836  0  0  0.12506  0  1.018676  0  0  0.129315  0  1.016152  0  0  0.111065  0.1219  0  1.020731  0
H  H21  1  0.99988106  0.51548535  0.16380541  1  0  0.118198  0  0.957852  0  0  0.125062  0  1.018698  0  0  0.129318  0  1.016172  0  0  0.111052  0.121911  0  1.020746  0
H  H22  1  0.94490547  0.27541780  0.05074531  1  0  0.105142  0  0.942785  0  0  0.11434  0  1.005349  0  0  0.117484  0  1.002966  0  0  0.110835  0.112103  0  1.006941  0
H  H23  1  0.05508877  0.72458310  0.94925217  1  0  0.105104  0  0.942801  0  0  0.114321  0  1.005342  0  0  0.117465  0  1.00296  0  0  0.110842  0.112088  0  1.006925  0
H  H24  1  0.00424912  0.04226383  0.17912416  1  0  0.107811  0  0.965103  0  0  0.115951  0  1.027042  0  0  0.119054  0  1.02612  0  0  0.105644  0.113725  0  1.027806  0
H  H25  1  0.99574705  0.95773402  0.82087582  1  0  0.107802  0  0.96507  0  0  0.115937  0  1.027027  0  0  0.119041  0  1.026103  0  0  0.105619  0.11371  0  1.027791  0
H  H26  1  0.15782316  0.84792530  0.19023361  1  0  0.118942  0  0.927387  0  0  0.132737  0  0.978806  0  0  0.135777  0  0.977827  0  0  0.113417  0.130427  0  0.979705  0
H  H27  1  0.84217558  0.15207457  0.80976593  1  0  0.118929  0  0.927396  0  0  0.132729  0  0.978807  0  0  0.13578  0  0.977816  0  0  0.113416  0.130418  0  0.979707  0
H  H28  1  0.36651914  0.75146064  0.08378935  1  0  0.125358  0  0.981063  0  0  0.131565  0  1.046318  0  0  0.135425  0  1.043254  0  0  0.109313  0.128735  0  1.0486  0
H  H29  1  0.63348241  0.24854330  0.91620806  1  0  0.125322  0  0.981034  0  0  0.131554  0  1.046265  0  0  0.135417  0  1.043196  0  0  0.109318  0.128722  0  1.048547  0
H  H30  1  0.58530216  0.78585617  0.88858271  1  0  0.102775  0  0.959279  0  0  0.112044  0  1.020069  0  0  0.113935  0  1.021816  0  0  0.10476  0.110446  0  1.019432  0
H  H31  1  0.41469811  0.21414676  0.11141450  1  0  0.102739  0  0.95929  0  0  0.112006  0  1.020083  0  0  0.113896  0  1.021832  0  0  0.104744  0.110408  0  1.019446  0
H  H32  1  0.63651955  0.01162358  0.69225770  1  0  0.07868  0  0.952299  0  0  0.087608  0  1.01733  0  0  0.089265  0  1.016174  0  0  0.11675  0.086303  0  1.018283  0
H  H33  1  0.36347867  0.98838135  0.30774080  1  0  0.078688  0  0.952294  0  0  0.087618  0  1.017322  0  0  0.089275  0  1.016167  0  0  0.116756  0.086315  0  1.018275  0
C  C34  1  0.67592175  0.47966031  0.64717551  1  0  0.655585  0  3.894467  0  0  0.604498  0  4.196926  0  0  0.637638  0  4.190975  0  0  0.195414  0.581969  0  4.199949  0
C  C35  1  0.32408327  0.52034364  0.35282039  1  0  0.655703  0  3.894302  0  0  0.604565  0  4.196821  0  0  0.637709  0  4.190865  0  0  0.195472  0.582036  0  4.199845  0
C  C36  1  0.74406135  0.59333372  0.66665003  1  0  -0.082207  0  3.635356  0  0  -0.137968  0  3.899105  0  0  -0.135469  0  3.899788  0  0  -0.069226  -0.13972  0  3.898599  0
C  C37  1  0.25594342  0.40666819  0.33334757  1  0  -0.082318  0  3.635375  0  0  -0.138018  0  3.899089  0  0  -0.135503  0  3.899772  0  0  -0.069217  -0.13976  0  3.898575  0
C  C38  1  0.62792089  0.52696171  0.89233121  1  0  0.240131  0  3.829541  0  0  0.232161  0  4.092417  0  0  0.241511  0  4.108026  0  0  0.069556  0.225619  0  4.081867  0
C  C39  1  0.37208632  0.47304122  0.10766552  1  0  0.240117  0  3.829586  0  0  0.232111  0  4.092494  0  0  0.241479  0  4.108101  0  0  0.069509  0.225573  0  4.081946  0
C  C40  1  0.64990112  0.49722076  0.01343567  1  0  -0.165087  0  3.777308  0  0  -0.187527  0  4.033505  0  0  -0.190072  0  4.051719  0  0  -0.107464  -0.185767  0  4.021432  0
C  C41  1  0.35010416  0.50277608  0.98656381  1  0  -0.165116  0  3.777274  0  0  -0.187535  0  4.033473  0  0  -0.190079  0  4.051686  0  0  -0.107451  -0.185781  0  4.021406  0
C  C42  1  0.47626042  0.52950778  0.87934150  1  0  -0.180166  0  3.779334  0  0  -0.199666  0  4.0313  0  0  -0.202729  0  4.05143  0  0  -0.109287  -0.197415  0  4.017923  0
C  C43  1  0.52374409  0.47049211  0.12065693  1  0  -0.180228  0  3.779417  0  0  -0.199724  0  4.031384  0  0  -0.202777  0  4.051517  0  0  -0.109285  -0.197475  0  4.018004  0
C  C44  1  0.62610351  0.20292880  0.42086067  1  0  0.634032  0  3.918118  0  0  0.586004  0  4.220884  0  0  0.618089  0  4.217199  0  0  0.184396  0.564305  0  4.222468  0
C  C45  1  0.37389407  0.79707108  0.57913825  1  0  0.634167  0  3.918124  0  0  0.586137  0  4.220888  0  0  0.618214  0  4.217202  0  0  0.184423  0.564436  0  4.222474  0
C  C46  1  0.70584659  0.14591781  0.32732287  1  0  -0.068247  0  3.647716  0  0  -0.123294  0  3.910587  0  0  -0.120159  0  3.910639  0  0  -0.072874  -0.125594  0  3.910637  0
C  C47  1  0.29415011  0.85407495  0.67268068  1  0  -0.068348  0  3.647899  0  0  -0.123358  0  3.910816  0  0  -0.120203  0  3.910826  0  0  -0.072861  -0.125652  0  3.910857  0
C  C48  1  0.92952713  0.07558699  0.40285178  1  0  0.250033  0  3.824961  0  0  0.241618  0  4.086123  0  0  0.250639  0  4.1029  0  0  0.066104  0.235238  0  4.07482  0
C  C49  1  0.07046981  0.92440778  0.59715345  1  0  0.249684  0  3.825116  0  0  0.241427  0  4.086135  0  0  0.250435  0  4.102917  0  0  0.065994  0.235049  0  4.074829  0
C  C50  1  0.08665701  0.10674835  0.38632980  1  0  -0.161043  0  3.772592  0  0  -0.183511  0  4.03028  0  0  -0.186441  0  4.048747  0  0  -0.108178  -0.181504  0  4.017893  0
C  C51  1  0.91333917  0.89324943  0.61367777  1  0  -0.161053  0  3.772768  0  0  -0.183597  0  4.030403  0  0  -0.186528  0  4.048872  0  0  -0.108197  -0.18159  0  4.018019  0
C  C52  1  0.84226873  0.96777481  0.51702330  1  0  -0.19644  0  3.781256  0  0  -0.214162  0  4.029188  0  0  -0.218241  0  4.048917  0  0  -0.116479  -0.211303  0  4.016098  0
C  C53  1  0.15772641  0.03222397  0.48298491  1  0  -0.196353  0  3.781222  0  0  -0.214152  0  4.029117  0  0  -0.218228  0  4.048841  0  0  -0.116478  -0.211282  0  4.016024  0
C  C54  1  0.18909924  0.40435796  0.74551296  1  0  0.14996  0  3.677388  0  0  0.118855  0  3.928805  0  0  0.127176  0  3.94605  0  0  0.056945  0.113482  0  3.916921  0
C  C55  1  0.81089975  0.59564393  0.25448658  1  0  0.149918  0  3.677401  0  0  0.118804  0  3.928827  0  0  0.127124  0  3.946075  0  0  0.056935  0.113432  0  3.916946  0
C  C56  1  0.06806279  0.39887905  0.85002396  1  0  -0.114002  0  3.717394  0  0  -0.126764  0  3.970943  0  0  -0.133523  0  3.990669  0  0  -0.080963  -0.122524  0  3.957797  0
C  C57  1  0.93193351  0.60111980  0.14997644  1  0  -0.114023  0  3.717441  0  0  -0.126786  0  3.971008  0  0  -0.133544  0  3.990734  0  0  -0.080958  -0.122555  0  3.95786  0
C  C58  1  0.03661625  0.28356208  0.96677373  1  0  -0.044083  0  3.675607  0  0  -0.068989  0  3.925109  0  0  -0.066769  0  3.942969  0  0  -0.059404  -0.070279  0  3.913017  0
C  C59  1  0.96338133  0.71643779  0.03322603  1  0  -0.044058  0  3.675564  0  0  -0.068961  0  3.925081  0  0  -0.066741  0  3.942942  0  0  -0.059418  -0.070251  0  3.912994  0
C  C60  1  0.12431979  0.17293685  0.97861324  1  0  0.026632  0  3.791713  0  0  0.043788  0  4.023235  0  0  0.041443  0  4.04826  0  0  -0.000237  0.045167  0  4.006641  0
C  C61  1  0.87568036  0.82706506  0.02138524  1  0  0.026652  0  3.791641  0  0  0.04376  0  4.023223  0  0  0.041413  0  4.04825  0  0  -0.00024  0.04514  0  4.006627  0
C  C62  1  0.09525306  0.04891369  0.09549954  1  0  -0.102809  0  3.735683  0  0  -0.1268  0  3.994691  0  0  -0.130825  0  4.018077  0  0  -0.084634  -0.124155  0  3.978955  0
C  C63  1  0.90474465  0.95108720  0.90449980  1  0  -0.102784  0  3.735598  0  0  -0.126752  0  3.994611  0  0  -0.130779  0  4.018001  0  0  -0.08459  -0.124109  0  3.978873  0
C  C64  1  0.17920333  0.94263520  0.10157781  1  0  -0.093621  0  3.727805  0  0  -0.11617  0  3.981133  0  0  -0.118989  0  4.003838  0  0  -0.07927  -0.114066  0  3.965751  0
C  C65  1  0.82079578  0.05736769  0.89842384  1  0  -0.093632  0  3.727844  0  0  -0.116183  0  3.981175  0  0  -0.11901  0  4.003878  0  0  -0.079295  -0.114077  0  3.96579  0
C  C66  1  0.30071040  0.95344259  0.99192225  1  0  0.027152  0  3.782857  0  0  0.044379  0  4.014311  0  0  0.04167  0  4.038637  0  0  -0.000997  0.046001  0  3.99786  0
C  C67  1  0.69929091  0.04655930  0.00807770  1  0  0.027145  0  3.782916  0  0  0.044336  0  4.014421  0  0  0.041625  0  4.038751  0  0  -0.000985  0.04596  0  3.997967  0
C  C68  1  0.39159429  0.84645067  0.99514193  1  0  -0.045052  0  3.647784  0  0  -0.072547  0  3.898385  0  0  -0.069856  0  3.915379  0  0  -0.063397  -0.074234  0  3.88688  0
C  C69  1  0.60840701  0.15355122  0.00485885  1  0  -0.045032  0  3.647685  0  0  -0.072546  0  3.898309  0  0  -0.069854  0  3.915305  0  0  -0.063435  -0.07423  0  3.8868  0
C  C70  1  0.51218827  0.86594416  0.88805631  1  0  -0.121887  0  3.743166  0  0  -0.134413  0  4.000142  0  0  -0.142188  0  4.0229  0  0  -0.084434  -0.129299  0  3.985124  0
C  C71  1  0.48781341  0.13406079  0.11194153  1  0  -0.121814  0  3.743119  0  0  -0.134336  0  4.000097  0  0  -0.142108  0  4.022848  0  0  -0.084403  -0.129224  0  3.985084  0
C  C72  1  0.54086564  0.99170145  0.77787896  1  0  0.149765  0  3.702558  0  0  0.117099  0  3.958707  0  0  0.126066  0  3.975838  0  0  0.059599  0.111225  0  3.947027  0
C  C73  1  0.45913360  0.00830248  0.22211889  1  0  0.149697  0  3.702611  0  0  0.117031  0  3.95877  0  0  0.125996  0  3.975906  0  0  0.059584  0.111155  0  3.947093  0
C  C74  1  0.33579048  0.07615445  0.87548516  1  0  0.130451  0  3.755588  0  0  0.12506  0  3.989534  0  0  0.129828  0  4.011816  0  0  0.117431  0.121817  0  3.974425  0
C  C75  1  0.66421082  0.92384742  0.12451731  1  0  0.130429  0  3.755674  0  0  0.125071  0  3.989583  0  0  0.129838  0  4.011868  0  0  0.117422  0.121828  0  3.974474  0
C  C76  1  0.24415170  0.18740195  0.86777094  1  0  0.13437  0  3.748998  0  0  0.127175  0  3.984188  0  0  0.131423  0  4.006924  0  0  0.117852  0.124362  0  3.968939  0
C  C77  1  0.75584704  0.81259792  0.13222860  1  0  0.134376  0  3.748995  0  0  0.127209  0  3.98415  0  0  0.131459  0  4.006886  0  0  0.117885  0.124395  0  3.968903  0
N  N78  1  0.27466254  0.30220791  0.75459513  1  0  -0.358051  0  3.249811  0  0  -0.286898  0  3.511791  0  0  -0.307253  0  3.53066  0  0  -0.322834  -0.273069  0  3.498767  0
N  N79  1  0.72533761  0.69779399  0.24540419  1  0  -0.357999  0  3.249846  0  0  -0.286856  0  3.511829  0  0  -0.307212  0  3.530701  0  0  -0.322829  -0.273028  0  3.498805  0
N  N80  1  0.45426971  0.09246431  0.77153590  1  0  -0.360117  0  3.274446  0  0  -0.288884  0  3.536933  0  0  -0.309465  0  3.555342  0  0  -0.325215  -0.274858  0  3.524123  0
N  N81  1  0.54573082  0.90754062  0.22846300  1  0  -0.36005  0  3.274545  0  0  -0.288831  0  3.537015  0  0  -0.309412  0  3.555428  0  0  -0.32519  -0.274806  0  3.524207  0
O  O82  1  0.67622795  0.35750326  0.72134904  1  0  -0.599082  0  1.952151  0  0  -0.551799  0  2.183796  0  0  -0.576297  0  2.175184  0  0  -0.313378  -0.534336  0  2.188834  0
O  O83  1  0.32377477  0.64250069  0.27864647  1  0  -0.599117  0  1.952138  0  0  -0.551831  0  2.183837  0  0  -0.576328  0  2.175216  0  0  -0.313409  -0.534364  0  2.18887  0
O  O84  1  0.61859087  0.51797001  0.54937369  1  0  -0.685922  0  2.094456  0  0  -0.600951  0  2.363947  0  0  -0.635385  0  2.351849  0  0  -0.34274  -0.57663  0  2.371141  0
O  O85  1  0.38141300  0.48203395  0.45062244  1  0  -0.685888  0  2.094353  0  0  -0.60096  0  2.363972  0  0  -0.635397  0  2.351875  0  0  -0.342721  -0.576638  0  2.371165  0
O  O86  1  0.76084666  0.55264557  0.79365130  1  0  -0.267616  0  2.353859  0  0  -0.204892  0  2.593481  0  0  -0.220769  0  2.594328  0  0  -0.183974  -0.193541  0  2.592474  0
O  O87  1  0.23915901  0.44735432  0.20634775  1  0  -0.267504  0  2.353949  0  0  -0.204761  0  2.593544  0  0  -0.220683  0  2.594415  0  0  -0.18393  -0.193422  0  2.592544  0
O  O88  1  0.47873147  0.18017433  0.46127004  1  0  -0.647043  0  1.965141  0  0  -0.587536  0  2.206345  0  0  -0.615618  0  2.197563  0  0  -0.330176  -0.567603  0  2.211506  0
O  O89  1  0.52126624  0.81982657  0.53872762  1  0  -0.647121  0  1.965156  0  0  -0.587596  0  2.206361  0  0  -0.615683  0  2.197589  0  0  -0.33021  -0.567668  0  2.211528  0
O  O90  1  0.70726260  0.27074655  0.45262823  1  0  -0.620353  0  1.94707  0  0  -0.558446  0  2.180556  0  0  -0.586797  0  2.171253  0  0  -0.330274  -0.538769  0  2.186285  0
O  O91  1  0.29273820  0.72925131  0.54737087  1  0  -0.620395  0  1.947072  0  0  -0.558478  0  2.180552  0  0  -0.58683  0  2.171253  0  0  -0.330254  -0.538802  0  2.186283  0
O  O92  1  0.87067771  0.15491839  0.30087700  1  0  -0.279011  0  2.334928  0  0  -0.217275  0  2.57506  0  0  -0.231961  0  2.574196  0  0  -0.195281  -0.206804  0  2.575278  0
O  O93  1  0.12932027  0.84507537  0.69912760  1  0  -0.278791  0  2.334867  0  0  -0.217114  0  2.574961  0  0  -0.231782  0  2.574075  0  0  -0.195235  -0.206644  0  2.575174  0
