# generated using pymatgen
data_NaBH4C6(N2O)6
_symmetry_space_group_name_H-M   'P 1'
_cell_length_a   9.48677387
_cell_length_b   9.48674055
_cell_length_c   9.48677853
_cell_angle_alpha   65.26555398
_cell_angle_beta   65.26579610
_cell_angle_gamma   65.26562602
_symmetry_Int_Tables_number   1
_chemical_formula_structural   NaBH4C6(N2O)6
_chemical_formula_sum   'Na2 B2 H8 C12 N24 O12'
_cell_volume   672.98251916
_cell_formula_units_Z   2
loop_
 _symmetry_equiv_pos_site_id
 _symmetry_equiv_pos_as_xyz
  1  'x, y, z'
loop_
 _atom_site_type_symbol
 _atom_site_label
 _atom_site_symmetry_multiplicity
 _atom_site_fract_x
 _atom_site_fract_y
 _atom_site_fract_z
 _atom_site_occupancy
 _atom_site_hle17_bader_spin_density
 _atom_site_hle17_ddec_charge
 _atom_site_hle17_ddec_spin_density
 _atom_site_hle17_ddec_sum_bond_order
 _atom_site_hle17_magmom
 _atom_site_hse06_10hf_bader_spin_density
 _atom_site_hse06_10hf_ddec_charge
 _atom_site_hse06_10hf_ddec_spin_density
 _atom_site_hse06_10hf_ddec_sum_bond_order
 _atom_site_hse06_10hf_magmom
 _atom_site_hse06_bader_spin_density
 _atom_site_hse06_ddec_charge
 _atom_site_hse06_ddec_spin_density
 _atom_site_hse06_ddec_sum_bond_order
 _atom_site_hse06_magmom
 _atom_site_pbe_bader_spin_density
 _atom_site_pbe_cm5_charge
 _atom_site_pbe_ddec_charge
 _atom_site_pbe_ddec_spin_density
 _atom_site_pbe_ddec_sum_bond_order
 _atom_site_pbe_magmom
Na  Na0  1  0.68071836  0.68072004  0.68072121  1  0  0.858395  0  0.420913  0  0  0.768273  0  0.623737  0  0  0.783095  0  0.60028  0  0  0.673539  0.757682  0  0.640294  0
Na  Na1  1  0.18072068  0.18072122  0.18071863  1  0  0.858405  0  0.420887  0  0  0.768275  0  0.623723  0  0  0.783092  0  0.600261  0  0  0.673539  0.75768  0  0.640279  0
B  B2  1  0.84453392  0.84452722  0.84453056  1  0  0.504374  0  3.162808  0  0  0.316495  0  3.492764  0  0  0.3377  0  3.491317  0  0  -0.045158  0.301769  0  3.494286  0
B  B3  1  0.34453197  0.34452718  0.34453240  1  0  0.504429  0  3.162782  0  0  0.316557  0  3.492714  0  0  0.337759  0  3.491277  0  0  -0.045118  0.301824  0  3.49425  0
H  H4  1  0.62574720  0.10094360  0.99191877  1  0  0.105904  0  0.938395  0  0  0.107665  0  1.011716  0  0  0.111152  0  1.007727  0  0  0.139213  0.105062  0  1.014678  0
H  H5  1  0.99192296  0.62573628  0.10094944  1  0  0.105937  0  0.938409  0  0  0.1077  0  1.011727  0  0  0.111188  0  1.007732  0  0  0.139196  0.105083  0  1.014704  0
H  H6  1  0.10095029  0.99191468  0.62574275  1  0  0.105952  0  0.938383  0  0  0.107719  0  1.011694  0  0  0.111206  0  1.007701  0  0  0.139222  0.10512  0  1.014653  0
H  H7  1  0.49192152  0.60094435  0.12574563  1  0  0.105944  0  0.938369  0  0  0.107673  0  1.011725  0  0  0.111158  0  1.00774  0  0  0.13923  0.105084  0  1.014671  0
H  H8  1  0.60095058  0.12573514  0.49192262  1  0  0.105947  0  0.938381  0  0  0.10771  0  1.011694  0  0  0.111198  0  1.007701  0  0  0.139203  0.105094  0  1.014671  0
H  H9  1  0.12574489  0.49191625  0.60094679  1  0  0.105941  0  0.938385  0  0  0.107699  0  1.011704  0  0  0.111185  0  1.007714  0  0  0.13923  0.105107  0  1.014655  0
H  H10  1  0.89865907  0.89865491  0.89865795  1  0  -0.178537  0  0.886353  0  0  -0.13602  0  0.966474  0  0  -0.139554  0  0.964393  0  0  0.073713  -0.133618  0  0.967966  0
H  H11  1  0.39865827  0.39865488  0.39865825  1  0  -0.178579  0  0.886423  0  0  -0.136059  0  0.966536  0  0  -0.139593  0  0.964455  0  0  0.073698  -0.133656  0  0.968029  0
C  C12  1  0.57431331  0.05868630  0.93949239  1  0  0.238364  0  3.633902  0  0  0.170124  0  3.922894  0  0  0.182315  0  3.934455  0  0  0.175451  0.162384  0  3.914764  0
C  C13  1  0.93950087  0.57430919  0.05868659  1  0  0.238199  0  3.63369  0  0  0.169966  0  3.922649  0  0  0.182158  0  3.934206  0  0  0.175368  0.162239  0  3.914527  0
C  C14  1  0.05869170  0.93949247  0.57431560  1  0  0.238302  0  3.633799  0  0  0.170079  0  3.922745  0  0  0.182272  0  3.934303  0  0  0.175372  0.162337  0  3.914617  0
C  C15  1  0.43949495  0.55868583  0.07431078  1  0  0.238354  0  3.633883  0  0  0.170139  0  3.922876  0  0  0.182332  0  3.934435  0  0  0.175452  0.162388  0  3.91474  0
C  C16  1  0.55868899  0.07430928  0.43949889  1  0  0.238159  0  3.633667  0  0  0.169934  0  3.922614  0  0  0.182127  0  3.934171  0  0  0.175346  0.162205  0  3.914494  0
C  C17  1  0.07430990  0.43949159  0.55869151  1  0  0.238291  0  3.633865  0  0  0.170063  0  3.922844  0  0  0.182257  0  3.934403  0  0  0.175402  0.162317  0  3.914715  0
C  C18  1  0.42435138  0.02466339  0.85517783  1  0  0.327673  0  3.739379  0  0  0.280944  0  4.024022  0  0  0.288826  0  4.038982  0  0  0.312904  0.275696  0  4.013947  0
C  C19  1  0.85517815  0.42434713  0.02466324  1  0  0.327924  0  3.739297  0  0  0.281125  0  4.024047  0  0  0.289009  0  4.039004  0  0  0.312989  0.275875  0  4.013978  0
C  C20  1  0.02466713  0.85517166  0.42435099  1  0  0.327772  0  3.739229  0  0  0.280938  0  4.024006  0  0  0.288817  0  4.038965  0  0  0.312861  0.27569  0  4.013933  0
C  C21  1  0.35517995  0.52466180  0.92435050  1  0  0.327735  0  3.739511  0  0  0.280897  0  4.02424  0  0  0.288777  0  4.0392  0  0  0.312902  0.275647  0  4.014168  0
C  C22  1  0.52466419  0.92434657  0.35517732  1  0  0.327942  0  3.739261  0  0  0.28113  0  4.024019  0  0  0.289011  0  4.038978  0  0  0.312983  0.27588  0  4.013945  0
C  C23  1  0.92435099  0.35517385  0.52466703  1  0  0.327765  0  3.739233  0  0  0.280944  0  4.023989  0  0  0.288823  0  4.038948  0  0  0.312894  0.275697  0  4.013919  0
N  N24  1  0.66415323  0.94385798  0.86044483  1  0  -0.13505  0  3.449988  0  0  -0.039389  0  3.69506  0  0  -0.055148  0  3.717861  0  0  -0.106839  -0.028853  0  3.679528  0
N  N25  1  0.86044936  0.66414413  0.94386322  1  0  -0.134977  0  3.449952  0  0  -0.039307  0  3.695002  0  0  -0.055067  0  3.717804  0  0  -0.106754  -0.028768  0  3.679464  0
N  N26  1  0.94386464  0.86043923  0.66415099  1  0  -0.135079  0  3.449956  0  0  -0.03943  0  3.695032  0  0  -0.05519  0  3.717833  0  0  -0.106781  -0.028892  0  3.679502  0
N  N27  1  0.36044694  0.44385929  0.16415090  1  0  -0.13507  0  3.449881  0  0  -0.039405  0  3.694945  0  0  -0.055165  0  3.717744  0  0  -0.106851  -0.028867  0  3.679415  0
N  N28  1  0.44386513  0.16414415  0.36044802  1  0  -0.134923  0  3.449825  0  0  -0.039258  0  3.694869  0  0  -0.055016  0  3.717669  0  0  -0.106745  -0.028721  0  3.679333  0
N  N29  1  0.16415125  0.36043901  0.44386429  1  0  -0.135019  0  3.449931  0  0  -0.039367  0  3.695004  0  0  -0.055128  0  3.717807  0  0  -0.106813  -0.028827  0  3.679472  0
N  N30  1  0.56774319  0.92073753  0.80455042  1  0  -0.274689  0  2.886293  0  0  -0.268267  0  3.167652  0  0  -0.272523  0  3.179939  0  0  -0.224635  -0.265267  0  3.159458  0
N  N31  1  0.80455291  0.56773694  0.92074220  1  0  -0.274809  0  2.886533  0  0  -0.26834  0  3.167877  0  0  -0.272597  0  3.180164  0  0  -0.224689  -0.265339  0  3.159686  0
N  N32  1  0.92074534  0.80454372  0.56774102  1  0  -0.274621  0  2.886277  0  0  -0.268143  0  3.167622  0  0  -0.272396  0  3.179909  0  0  -0.22461  -0.265144  0  3.159431  0
N  N33  1  0.30455170  0.42073887  0.06774125  1  0  -0.274749  0  2.886327  0  0  -0.268301  0  3.167719  0  0  -0.272554  0  3.180003  0  0  -0.224677  -0.2653  0  3.159524  0
N  N34  1  0.42074284  0.06773820  0.30455169  1  0  -0.274818  0  2.886378  0  0  -0.268343  0  3.167719  0  0  -0.272598  0  3.180004  0  0  -0.224689  -0.265343  0  3.159524  0
N  N35  1  0.06774263  0.30454346  0.42074451  1  0  -0.274666  0  2.886356  0  0  -0.268196  0  3.167704  0  0  -0.272448  0  3.17999  0  0  -0.224605  -0.265196  0  3.159508  0
N  N36  1  0.42064192  0.11148663  0.93930976  1  0  -0.44729  0  3.064536  0  0  -0.417098  0  3.360641  0  0  -0.43052  0  3.371778  0  0  -0.371356  -0.408042  0  3.352961  0
N  N37  1  0.93931353  0.42063021  0.11148919  1  0  -0.447371  0  3.064275  0  0  -0.417147  0  3.360392  0  0  -0.430573  0  3.37153  0  0  -0.37135  -0.408088  0  3.352708  0
N  N38  1  0.11149173  0.93930688  0.42063734  1  0  -0.447387  0  3.064429  0  0  -0.417177  0  3.360564  0  0  -0.430601  0  3.371701  0  0  -0.371314  -0.40812  0  3.352883  0
N  N39  1  0.43931304  0.61148631  0.92064095  1  0  -0.447339  0  3.064644  0  0  -0.417109  0  3.360749  0  0  -0.430535  0  3.371888  0  0  -0.371362  -0.408052  0  3.353073  0
N  N40  1  0.61149013  0.92062965  0.43931240  1  0  -0.447367  0  3.064283  0  0  -0.417144  0  3.360399  0  0  -0.43057  0  3.371539  0  0  -0.37133  -0.408087  0  3.352716  0
N  N41  1  0.92064018  0.43930780  0.61148880  1  0  -0.447372  0  3.064522  0  0  -0.417163  0  3.360664  0  0  -0.430587  0  3.371802  0  0  -0.371368  -0.408107  0  3.35299  0
N  N42  1  0.28162204  0.04972625  0.81610381  1  0  0.436125  0  3.954834  0  0  0.501808  0  4.20476  0  0  0.522851  0  4.208956  0  0  0.068253  0.487639  0  4.201913  0
N  N43  1  0.81610658  0.28161104  0.04973432  1  0  0.436067  0  3.954962  0  0  0.501686  0  4.20502  0  0  0.522729  0  4.209218  0  0  0.068227  0.487518  0  4.202173  0
N  N44  1  0.04973329  0.81610310  0.28161707  1  0  0.435964  0  3.95505  0  0  0.501684  0  4.204981  0  0  0.522729  0  4.209177  0  0  0.068199  0.487514  0  4.202133  0
N  N45  1  0.31610830  0.54973080  0.78161767  1  0  0.436019  0  3.95507  0  0  0.501854  0  4.204865  0  0  0.522895  0  4.209063  0  0  0.068299  0.487685  0  4.202019  0
N  N46  1  0.54973308  0.78161294  0.31610275  1  0  0.436002  0  3.954995  0  0  0.501656  0  4.205002  0  0  0.522699  0  4.2092  0  0  0.068219  0.487487  0  4.202155  0
N  N47  1  0.78161836  0.31610275  0.54973213  1  0  0.436001  0  3.954987  0  0  0.50171  0  4.204903  0  0  0.522755  0  4.2091  0  0  0.068215  0.487541  0  4.202056  0
O  O48  1  0.29587103  0.97179799  0.73097278  1  0  -0.32641  0  1.796587  0  0  -0.327422  0  1.999993  0  0  -0.338714  0  1.996137  0  0  -0.112032  -0.319863  0  2.002784  0
O  O49  1  0.73097697  0.29585711  0.97180551  1  0  -0.326502  0  1.796623  0  0  -0.32748  0  2.000069  0  0  -0.338771  0  1.996213  0  0  -0.112111  -0.319919  0  2.002859  0
O  O50  1  0.97180260  0.73096749  0.29586659  1  0  -0.326436  0  1.796567  0  0  -0.327457  0  1.999999  0  0  -0.338752  0  1.99614  0  0  -0.112054  -0.319895  0  2.002788  0
O  O51  1  0.23097181  0.47179707  0.79587066  1  0  -0.326488  0  1.796494  0  0  -0.327522  0  1.999816  0  0  -0.33881  0  1.995954  0  0  -0.112101  -0.319961  0  2.00261  0
O  O52  1  0.47180547  0.79585656  0.23097662  1  0  -0.326449  0  1.796756  0  0  -0.32742  0  2.000171  0  0  -0.338708  0  1.996314  0  0  -0.11206  -0.319862  0  2.002962  0
O  O53  1  0.79586825  0.23096771  0.47180231  1  0  -0.326476  0  1.796589  0  0  -0.327481  0  2.0  0  0  -0.338773  0  1.996142  0  0  -0.11207  -0.319919  0  2.002788  0
O  O54  1  0.15527711  0.15053298  0.86794011  1  0  -0.319361  0  1.793916  0  0  -0.324615  0  1.998695  0  0  -0.33532  0  1.993969  0  0  -0.114997  -0.31737  0  2.001997  0
O  O55  1  0.86793826  0.15527249  0.15054403  1  0  -0.319221  0  1.794082  0  0  -0.32445  0  1.998909  0  0  -0.335157  0  1.994185  0  0  -0.114899  -0.317206  0  2.002208  0
O  O56  1  0.15053403  0.86793847  0.15527712  1  0  -0.319202  0  1.794139  0  0  -0.324462  0  1.998911  0  0  -0.335164  0  1.994186  0  0  -0.114919  -0.317217  0  2.002209  0
O  O57  1  0.36794027  0.65053036  0.65527958  1  0  -0.319164  0  1.794196  0  0  -0.324499  0  1.998969  0  0  -0.3352  0  1.994244  0  0  -0.114944  -0.317257  0  2.002268  0
O  O58  1  0.65054513  0.65527079  0.36793802  1  0  -0.319259  0  1.793935  0  0  -0.324515  0  1.998761  0  0  -0.335221  0  1.994037  0  0  -0.114968  -0.317271  0  2.002062  0
O  O59  1  0.65527747  0.36793918  0.65053323  1  0  -0.319206  0  1.794058  0  0  -0.324461  0  1.998839  0  0  -0.335164  0  1.994116  0  0  -0.114918  -0.317217  0  2.002139  0
