# generated using pymatgen
data_CdH9C7NO7
_symmetry_space_group_name_H-M   'P 1'
_cell_length_a   6.80263328
_cell_length_b   8.65311856
_cell_length_c   16.85834708
_cell_angle_alpha   89.99994402
_cell_angle_beta   90.00003145
_cell_angle_gamma   90.00001638
_symmetry_Int_Tables_number   1
_chemical_formula_structural   CdH9C7NO7
_chemical_formula_sum   'Cd4 H36 C28 N4 O28'
_cell_volume   992.34961176
_cell_formula_units_Z   4
loop_
 _symmetry_equiv_pos_site_id
 _symmetry_equiv_pos_as_xyz
  1  'x, y, z'
loop_
 _atom_site_type_symbol
 _atom_site_label
 _atom_site_symmetry_multiplicity
 _atom_site_fract_x
 _atom_site_fract_y
 _atom_site_fract_z
 _atom_site_occupancy
 _atom_site_hle17_bader_spin_density
 _atom_site_hle17_ddec_charge
 _atom_site_hle17_ddec_spin_density
 _atom_site_hle17_ddec_sum_bond_order
 _atom_site_hle17_magmom
 _atom_site_hse06_10hf_bader_spin_density
 _atom_site_hse06_10hf_ddec_charge
 _atom_site_hse06_10hf_ddec_spin_density
 _atom_site_hse06_10hf_ddec_sum_bond_order
 _atom_site_hse06_10hf_magmom
 _atom_site_hse06_bader_spin_density
 _atom_site_hse06_ddec_charge
 _atom_site_hse06_ddec_spin_density
 _atom_site_hse06_ddec_sum_bond_order
 _atom_site_hse06_magmom
 _atom_site_pbe_bader_spin_density
 _atom_site_pbe_cm5_charge
 _atom_site_pbe_ddec_charge
 _atom_site_pbe_ddec_spin_density
 _atom_site_pbe_ddec_sum_bond_order
 _atom_site_pbe_magmom
Cd  Cd0  1  0.06710210  0.38763935  0.10189899  1  0  1.235813  0  1.608925  0  0  1.056236  0  2.053074  0  0  1.109671  0  1.997879  0  0  0.779217  1.01725  0  2.09161  0
Cd  Cd1  1  0.93289833  0.88763993  0.89809920  1  0  1.235763  0  1.608987  0  0  1.056177  0  2.05315  0  0  1.109612  0  1.997956  0  0  0.779198  1.017193  0  2.091684  0
Cd  Cd2  1  0.06709945  0.88763915  0.39809991  1  0  1.235818  0  1.608925  0  0  1.056228  0  2.053106  0  0  1.109663  0  1.99791  0  0  0.779221  1.017243  0  2.091643  0
Cd  Cd3  1  0.93289510  0.38764012  0.60189947  1  0  1.235785  0  1.608946  0  0  1.056207  0  2.053106  0  0  1.109643  0  1.99791  0  0  0.779214  1.017224  0  2.091645  0
H  H4  1  0.61186489  0.72412943  0.33898982  1  0  0.116334  0  0.957996  0  0  0.125684  0  1.017801  0  0  0.129438  0  1.014958  0  0  0.109306  0.122697  0  1.020541  0
H  H5  1  0.38813548  0.22412786  0.66101141  1  0  0.116369  0  0.957963  0  0  0.125716  0  1.017778  0  0  0.129473  0  1.014932  0  0  0.109316  0.12273  0  1.020518  0
H  H6  1  0.61186762  0.22413067  0.16100987  1  0  0.116349  0  0.958067  0  0  0.125698  0  1.017865  0  0  0.129454  0  1.015019  0  0  0.109317  0.122711  0  1.020603  0
H  H7  1  0.38813422  0.72412777  0.83898781  1  0  0.116371  0  0.957939  0  0  0.125722  0  1.01775  0  0  0.129477  0  1.014904  0  0  0.109326  0.122735  0  1.020489  0
H  H8  1  0.68347236  0.74617134  0.19462870  1  0  0.118794  0  0.960986  0  0  0.124134  0  1.024919  0  0  0.128666  0  1.021686  0  0  0.110688  0.121046  0  1.027104  0
H  H9  1  0.31652214  0.24617410  0.80537134  1  0  0.118764  0  0.960962  0  0  0.124118  0  1.024888  0  0  0.128649  0  1.021656  0  0  0.110685  0.121029  0  1.027073  0
H  H10  1  0.68347528  0.24617346  0.30537100  1  0  0.118761  0  0.960991  0  0  0.124102  0  1.02493  0  0  0.128633  0  1.021699  0  0  0.110681  0.121014  0  1.027115  0
H  H11  1  0.31652215  0.74617313  0.69462785  1  0  0.118742  0  0.960979  0  0  0.124113  0  1.024884  0  0  0.128643  0  1.021653  0  0  0.110677  0.121025  0  1.027068  0
H  H12  1  0.47048416  0.60226953  0.09778825  1  0  0.087863  0  0.925452  0  0  0.096687  0  0.987391  0  0  0.100168  0  0.983859  0  0  0.119455  0.093971  0  0.990294  0
H  H13  1  0.52951616  0.10227100  0.90221245  1  0  0.087853  0  0.925472  0  0  0.09668  0  0.987405  0  0  0.100162  0  0.983871  0  0  0.119454  0.093965  0  0.990306  0
H  H14  1  0.47048574  0.10227031  0.40221265  1  0  0.087865  0  0.925487  0  0  0.096709  0  0.987401  0  0  0.10018  0  0.98388  0  0  0.119457  0.093994  0  0.990303  0
H  H15  1  0.52951458  0.60227137  0.59778627  1  0  0.087825  0  0.925529  0  0  0.096666  0  0.987439  0  0  0.100138  0  0.983919  0  0  0.119451  0.093951  0  0.99034  0
H  H16  1  0.79402639  0.17578408  0.03225766  1  0  0.420623  0  0.883705  0  0  0.390228  0  0.946411  0  0  0.401148  0  0.930587  0  0  0.287687  0.382315  0  0.957826  0
H  H17  1  0.20597396  0.67578437  0.96774242  1  0  0.420604  0  0.883732  0  0  0.390212  0  0.946432  0  0  0.401132  0  0.930609  0  0  0.287681  0.382298  0  0.957848  0
H  H18  1  0.79402678  0.67578491  0.46774269  1  0  0.420619  0  0.883715  0  0  0.390224  0  0.946417  0  0  0.401142  0  0.930598  0  0  0.287667  0.382305  0  0.957835  0
H  H19  1  0.20597357  0.17578470  0.53225738  1  0  0.420621  0  0.883711  0  0  0.390224  0  0.946418  0  0  0.401143  0  0.930597  0  0  0.28769  0.382304  0  0.957837  0
H  H20  1  0.71154218  0.34770477  0.01100997  1  0  0.432241  0  0.869361  0  0  0.398373  0  0.936826  0  0  0.409736  0  0.920509  0  0  0.289685  0.390627  0  0.947939  0
H  H21  1  0.28845824  0.84770388  0.98899002  1  0  0.432234  0  0.869365  0  0  0.398369  0  0.936826  0  0  0.409732  0  0.920509  0  0  0.289693  0.390625  0  0.947938  0
H  H22  1  0.71154112  0.84770440  0.48899087  1  0  0.432216  0  0.869395  0  0  0.398345  0  0.93687  0  0  0.409708  0  0.920553  0  0  0.289653  0.390599  0  0.947982  0
H  H23  1  0.28845782  0.34770425  0.51100971  1  0  0.432235  0  0.869364  0  0  0.398366  0  0.936832  0  0  0.40973  0  0.920515  0  0  0.289689  0.39062  0  0.947945  0
H  H24  1  0.84447018  0.63209125  0.03614108  1  0  0.416425  0  0.894651  0  0  0.38307  0  0.962642  0  0  0.39498  0  0.945389  0  0  0.28382  0.374555  0  0.975033  0
H  H25  1  0.15553015  0.13209252  0.96385901  1  0  0.416389  0  0.894701  0  0  0.383064  0  0.962648  0  0  0.394974  0  0.945392  0  0  0.283827  0.374549  0  0.975038  0
H  H26  1  0.84447185  0.13209307  0.46385930  1  0  0.416424  0  0.894656  0  0  0.3831  0  0.9626  0  0  0.39501  0  0.945347  0  0  0.283856  0.37459  0  0.974987  0
H  H27  1  0.15552996  0.63209185  0.53614080  1  0  0.416367  0  0.894737  0  0  0.383037  0  0.962693  0  0  0.394946  0  0.94544  0  0  0.28381  0.37452  0  0.975084  0
H  H28  1  0.95032925  0.70821750  0.11202930  1  0  0.412971  0  0.898914  0  0  0.378717  0  0.968869  0  0  0.390346  0  0.952025  0  0  0.284383  0.370453  0  0.980975  0
H  H29  1  0.04967111  0.20821658  0.88797135  1  0  0.412999  0  0.89887  0  0  0.378755  0  0.968806  0  0  0.390385  0  0.951961  0  0  0.28439  0.370491  0  0.980912  0
H  H30  1  0.95032788  0.20821715  0.38797166  1  0  0.412975  0  0.89891  0  0  0.37871  0  0.96888  0  0  0.39034  0  0.952035  0  0  0.284374  0.370448  0  0.980985  0
H  H31  1  0.04967101  0.70821692  0.61202899  1  0  0.413001  0  0.898868  0  0  0.378753  0  0.96881  0  0  0.390383  0  0.951967  0  0  0.284386  0.370491  0  0.980916  0
H  H32  1  0.11657469  0.44659650  0.93017472  1  0  0.43596  0  0.862047  0  0  0.403342  0  0.92732  0  0  0.41392  0  0.912075  0  0  0.300351  0.395693  0  0.938446  0
H  H33  1  0.88342429  0.94659633  0.06982581  1  0  0.435962  0  0.86204  0  0  0.403343  0  0.927318  0  0  0.41392  0  0.912074  0  0  0.300353  0.395694  0  0.938442  0
H  H34  1  0.11657600  0.94659577  0.56982551  1  0  0.43595  0  0.862053  0  0  0.403328  0  0.927334  0  0  0.413904  0  0.912091  0  0  0.300355  0.39568  0  0.938457  0
H  H35  1  0.88342592  0.44659591  0.43017383  1  0  0.435981  0  0.862008  0  0  0.40337  0  0.927263  0  0  0.413946  0  0.912026  0  0  0.300365  0.395721  0  0.938387  0
H  H36  1  0.33993233  0.45175417  0.96104729  1  0  0.434322  0  0.863515  0  0  0.400454  0  0.930877  0  0  0.411226  0  0.915403  0  0  0.296192  0.392751  0  0.941981  0
H  H37  1  0.66006665  0.95175401  0.03895265  1  0  0.434314  0  0.863532  0  0  0.400446  0  0.930893  0  0  0.411218  0  0.915419  0  0  0.296195  0.392744  0  0.941995  0
H  H38  1  0.33993361  0.95175466  0.53895240  1  0  0.434293  0  0.863552  0  0  0.400429  0  0.93091  0  0  0.4112  0  0.915437  0  0  0.296187  0.392726  0  0.942013  0
H  H39  1  0.66006831  0.45175468  0.46104694  1  0  0.434328  0  0.863503  0  0  0.400459  0  0.930866  0  0  0.411231  0  0.915391  0  0  0.296199  0.392757  0  0.941969  0
C  C40  1  0.24970063  0.49593774  0.26321135  1  0  0.074726  0  3.740947  0  0  0.067933  0  3.98395  0  0  0.069482  0  4.004876  0  0  0.108631  0.065881  0  3.970266  0
C  C41  1  0.75029983  0.99593396  0.73678974  1  0  0.074772  0  3.740848  0  0  0.067987  0  3.983858  0  0  0.069537  0  4.004784  0  0  0.108669  0.065934  0  3.970176  0
C  C42  1  0.24970365  0.99593554  0.23678930  1  0  0.074733  0  3.740862  0  0  0.06796  0  3.983877  0  0  0.06951  0  4.004801  0  0  0.108655  0.065909  0  3.970195  0
C  C43  1  0.75029829  0.49593501  0.76321061  1  0  0.074748  0  3.740925  0  0  0.067977  0  3.98394  0  0  0.069524  0  4.004865  0  0  0.108659  0.065925  0  3.970257  0
C  C44  1  0.07773634  0.39339432  0.28553858  1  0  0.636186  0  3.906494  0  0  0.580283  0  4.208336  0  0  0.614039  0  4.201154  0  0  0.214254  0.557379  0  4.212359  0
C  C45  1  0.92226409  0.89339525  0.71446138  1  0  0.636213  0  3.906371  0  0  0.580306  0  4.208214  0  0  0.614059  0  4.201033  0  0  0.214275  0.557402  0  4.212236  0
C  C46  1  0.07773785  0.89339679  0.21446209  1  0  0.63626  0  3.906234  0  0  0.580366  0  4.208073  0  0  0.614116  0  4.20089  0  0  0.214299  0.557462  0  4.212096  0
C  C47  1  0.92226405  0.39339857  0.78553846  1  0  0.636178  0  3.906395  0  0  0.580288  0  4.208231  0  0  0.614043  0  4.201048  0  0  0.214262  0.557384  0  4.212253  0
C  C48  1  0.36334344  0.57149081  0.32065292  1  0  -0.102156  0  3.716494  0  0  -0.08655  0  3.960598  0  0  -0.09424  0  3.980714  0  0  -0.00098  -0.081503  0  3.947624  0
C  C49  1  0.63665540  0.07149041  0.67934720  1  0  -0.102153  0  3.716393  0  0  -0.086571  0  3.960513  0  0  -0.094262  0  3.98063  0  0  -0.000996  -0.081523  0  3.947541  0
C  C50  1  0.36334619  0.07149086  0.17934738  1  0  -0.102058  0  3.716391  0  0  -0.08651  0  3.960562  0  0  -0.094193  0  3.980666  0  0  -0.000986  -0.081463  0  3.947589  0
C  C51  1  0.63665118  0.57149036  0.82065215  1  0  -0.102007  0  3.716465  0  0  -0.08649  0  3.960622  0  0  -0.094167  0  3.980718  0  0  -0.000961  -0.081443  0  3.94765  0
C  C52  1  0.32575952  0.55707511  0.40821014  1  0  0.71335  0  3.870827  0  0  0.646393  0  4.184736  0  0  0.683571  0  4.172142  0  0  0.227682  0.621178  0  4.192695  0
C  C53  1  0.67423784  0.05707604  0.59178940  1  0  0.713331  0  3.870807  0  0  0.64644  0  4.184641  0  0  0.683619  0  4.172047  0  0  0.227744  0.621224  0  4.192602  0
C  C54  1  0.32576657  0.05707417  0.09179016  1  0  0.713307  0  3.870861  0  0  0.64638  0  4.184752  0  0  0.683556  0  4.172161  0  0  0.227702  0.621165  0  4.192712  0
C  C55  1  0.67423227  0.55707467  0.90820997  1  0  0.713142  0  3.871076  0  0  0.646314  0  4.184827  0  0  0.683489  0  4.172238  0  0  0.227666  0.621099  0  4.192783  0
C  C56  1  0.52074131  0.66382750  0.29553717  1  0  -0.025181  0  3.661895  0  0  -0.053213  0  3.910736  0  0  -0.050824  0  3.927936  0  0  -0.064749  -0.055428  0  3.899495  0
C  C57  1  0.47926050  0.16382587  0.70446409  1  0  -0.025235  0  3.661956  0  0  -0.053273  0  3.910818  0  0  -0.050886  0  3.928021  0  0  -0.064759  -0.055486  0  3.899575  0
C  C58  1  0.52074263  0.16382982  0.20446253  1  0  -0.025293  0  3.661954  0  0  -0.053302  0  3.910803  0  0  -0.050916  0  3.928003  0  0  -0.06479  -0.055514  0  3.899562  0
C  C59  1  0.47926066  0.66382587  0.79553518  1  0  -0.025262  0  3.662037  0  0  -0.053292  0  3.910927  0  0  -0.050907  0  3.928125  0  0  -0.064775  -0.055505  0  3.899684  0
C  C60  1  0.56020245  0.67710488  0.21502453  1  0  -0.071687  0  3.679048  0  0  -0.087543  0  3.937446  0  0  -0.09176  0  3.954894  0  0  -0.071156  -0.084379  0  3.924961  0
C  C61  1  0.43979496  0.17710424  0.78497613  1  0  -0.071681  0  3.678964  0  0  -0.087544  0  3.937367  0  0  -0.091761  0  3.954816  0  0  -0.071153  -0.084379  0  3.924881  0
C  C62  1  0.56020535  0.17710588  0.28497576  1  0  -0.071621  0  3.678964  0  0  -0.087486  0  3.937369  0  0  -0.091702  0  3.954817  0  0  -0.071141  -0.084322  0  3.924885  0
C  C63  1  0.43979500  0.67710439  0.71502253  1  0  -0.071642  0  3.678983  0  0  -0.087516  0  3.937387  0  0  -0.091731  0  3.954835  0  0  -0.071129  -0.084351  0  3.9249  0
C  C64  1  0.44225102  0.59704361  0.16136269  1  0  0.150821  0  3.679746  0  0  0.114412  0  3.941615  0  0  0.122269  0  3.956992  0  0  0.054635  0.109899  0  3.930677  0
C  C65  1  0.55774930  0.09704289  0.83863801  1  0  0.150859  0  3.679638  0  0  0.114446  0  3.94151  0  0  0.122303  0  3.956887  0  0  0.054639  0.109934  0  3.930574  0
C  C66  1  0.44225252  0.09704335  0.33863761  1  0  0.150841  0  3.679632  0  0  0.114413  0  3.941516  0  0  0.122277  0  3.956894  0  0  0.054669  0.1099  0  3.930578  0
C  C67  1  0.55774928  0.59704314  0.66136072  1  0  0.150836  0  3.67969  0  0  0.114412  0  3.941563  0  0  0.122274  0  3.956942  0  0  0.054619  0.109901  0  3.930623  0
N  N68  1  0.29097430  0.50958492  0.18524701  1  0  -0.371277  0  3.310298  0  0  -0.298751  0  3.575253  0  0  -0.318281  0  3.595404  0  0  -0.326822  -0.284496  0  3.560708  0
N  N69  1  0.70902598  0.00958313  0.81475374  1  0  -0.371292  0  3.310286  0  0  -0.298763  0  3.57524  0  0  -0.318293  0  3.595391  0  0  -0.326828  -0.284507  0  3.560695  0
N  N70  1  0.29097430  0.00958587  0.31475390  1  0  -0.371328  0  3.310196  0  0  -0.298795  0  3.575158  0  0  -0.318324  0  3.595304  0  0  -0.32685  -0.284539  0  3.560614  0
N  N71  1  0.70902599  0.50958565  0.68524625  1  0  -0.37129  0  3.310314  0  0  -0.298757  0  3.575264  0  0  -0.318287  0  3.595413  0  0  -0.326825  -0.284501  0  3.56072  0
O  O72  1  0.04187380  0.38108770  0.35954465  1  0  -0.641597  0  2.042674  0  0  -0.574463  0  2.262434  0  0  -0.601175  0  2.252965  0  0  -0.308718  -0.556297  0  2.269057  0
O  O73  1  0.95812221  0.88108416  0.64045591  1  0  -0.641576  0  2.042634  0  0  -0.574453  0  2.262412  0  0  -0.601155  0  2.252928  0  0  -0.308725  -0.556285  0  2.269036  0
O  O74  1  0.04187669  0.88108684  0.14045602  1  0  -0.641583  0  2.042568  0  0  -0.574453  0  2.262318  0  0  -0.601171  0  2.252867  0  0  -0.308707  -0.556286  0  2.268942  0
O  O75  1  0.95812374  0.38108733  0.85954454  1  0  -0.641563  0  2.042613  0  0  -0.574451  0  2.262374  0  0  -0.601172  0  2.252915  0  0  -0.308718  -0.556284  0  2.268997  0
O  O76  1  0.98423231  0.32386810  0.23139519  1  0  -0.612925  0  1.983393  0  0  -0.551347  0  2.227419  0  0  -0.579429  0  2.218051  0  0  -0.314795  -0.531317  0  2.232827  0
O  O77  1  0.01576515  0.82386872  0.76860599  1  0  -0.612974  0  1.983314  0  0  -0.551385  0  2.227341  0  0  -0.57947  0  2.217976  0  0  -0.314821  -0.531353  0  2.232747  0
O  O78  1  0.98423684  0.82386930  0.26860512  1  0  -0.612964  0  1.983232  0  0  -0.55141  0  2.227289  0  0  -0.579494  0  2.217928  0  0  -0.314846  -0.531379  0  2.232697  0
O  O79  1  0.01576504  0.32386983  0.73139488  1  0  -0.612928  0  1.98326  0  0  -0.551367  0  2.227314  0  0  -0.579451  0  2.217949  0  0  -0.314821  -0.531336  0  2.232721  0
O  O80  1  0.21718102  0.65884993  0.44112792  1  0  -0.663588  0  2.06694  0  0  -0.58779  0  2.31993  0  0  -0.618376  0  2.305932  0  0  -0.312328  -0.566054  0  2.328745  0
O  O81  1  0.78282226  0.15884864  0.55887216  1  0  -0.66351  0  2.066993  0  0  -0.587728  0  2.319946  0  0  -0.618316  0  2.305949  0  0  -0.312312  -0.565994  0  2.328765  0
O  O82  1  0.21718067  0.15884906  0.05887171  1  0  -0.663551  0  2.066909  0  0  -0.587769  0  2.319889  0  0  -0.618358  0  2.305895  0  0  -0.31231  -0.566031  0  2.328704  0
O  O83  1  0.78281820  0.65884836  0.94112778  1  0  -0.663477  0  2.067028  0  0  -0.587702  0  2.319948  0  0  -0.61829  0  2.305956  0  0  -0.312269  -0.565964  0  2.32876  0
O  O84  1  0.41575997  0.45138024  0.44577021  1  0  -0.643908  0  1.992556  0  0  -0.580995  0  2.216948  0  0  -0.607295  0  2.20449  0  0  -0.310614  -0.563084  0  2.225539  0
O  O85  1  0.58424195  0.95137793  0.55422795  1  0  -0.64393  0  1.992483  0  0  -0.581054  0  2.216872  0  0  -0.607356  0  2.204414  0  0  -0.310663  -0.563143  0  2.225462  0
O  O86  1  0.41575980  0.95137954  0.05422932  1  0  -0.643934  0  1.992603  0  0  -0.581012  0  2.216963  0  0  -0.607311  0  2.204508  0  0  -0.310642  -0.563101  0  2.225555  0
O  O87  1  0.58423918  0.45137863  0.94577061  1  0  -0.643892  0  1.992655  0  0  -0.581013  0  2.216987  0  0  -0.607314  0  2.204534  0  0  -0.310641  -0.563102  0  2.225577  0
O  O88  1  0.78498287  0.28471473  0.05096349  1  0  -0.847421  0  1.868685  0  0  -0.774502  0  2.059783  0  0  -0.798338  0  2.024904  0  0  -0.590299  -0.757297  0  2.084114  0
O  O89  1  0.21501605  0.78471390  0.94903712  1  0  -0.847386  0  1.868688  0  0  -0.77448  0  2.059792  0  0  -0.798315  0  2.024911  0  0  -0.590306  -0.757275  0  2.084122  0
O  O90  1  0.78498323  0.78471559  0.44903680  1  0  -0.847414  0  1.868718  0  0  -0.774474  0  2.059798  0  0  -0.798308  0  2.024914  0  0  -0.590253  -0.757261  0  2.084148  0
O  O91  1  0.21501569  0.28471535  0.55096322  1  0  -0.847415  0  1.868687  0  0  -0.774488  0  2.059781  0  0  -0.798327  0  2.024905  0  0  -0.590301  -0.757274  0  2.084133  0
O  O92  1  0.88774610  0.61155063  0.09180847  1  0  -0.855907  0  1.895366  0  0  -0.790849  0  2.10149  0  0  -0.815241  0  2.066676  0  0  -0.597393  -0.772984  0  2.126064  0
O  O93  1  0.11225275  0.11154968  0.90819222  1  0  -0.855881  0  1.895373  0  0  -0.790853  0  2.101469  0  0  -0.815246  0  2.066653  0  0  -0.5974  -0.772988  0  2.126042  0
O  O94  1  0.88774623  0.11154909  0.40819252  1  0  -0.855897  0  1.895372  0  0  -0.790857  0  2.101473  0  0  -0.81525  0  2.066659  0  0  -0.597406  -0.772993  0  2.12602  0
O  O95  1  0.11225116  0.61155007  0.59180758  1  0  -0.855851  0  1.895376  0  0  -0.790824  0  2.101484  0  0  -0.815217  0  2.06667  0  0  -0.597371  -0.772966  0  2.126073  0
O  O96  1  0.20140952  0.47774477  0.97565190  1  0  -0.8508  0  1.891887  0  0  -0.779959  0  2.081552  0  0  -0.80371  0  2.048005  0  0  -0.568155  -0.762884  0  2.105273  0
O  O97  1  0.79858947  0.97774352  0.02434861  1  0  -0.85079  0  1.891885  0  0  -0.779951  0  2.081551  0  0  -0.8037  0  2.048008  0  0  -0.568153  -0.762876  0  2.105269  0
O  O98  1  0.20140930  0.97774297  0.52434834  1  0  -0.850779  0  1.89192  0  0  -0.779934  0  2.081579  0  0  -0.803683  0  2.048036  0  0  -0.568164  -0.762858  0  2.105297  0
O  O99  1  0.79859116  0.47774532  0.47565099  1  0  -0.85082  0  1.891845  0  0  -0.779983  0  2.081521  0  0  -0.803735  0  2.047972  0  0  -0.568178  -0.762905  0  2.105239  0
