# generated using pymatgen
data_CuH8C6(NCl)2
_symmetry_space_group_name_H-M   'P 1'
_cell_length_a   6.86886559
_cell_length_b   7.30633370
_cell_length_c   9.28395238
_cell_angle_alpha   103.20022404
_cell_angle_beta   89.99366476
_cell_angle_gamma   117.99292975
_symmetry_Int_Tables_number   1
_chemical_formula_structural   CuH8C6(NCl)2
_chemical_formula_sum   'Cu2 H16 C12 N4 Cl4'
_cell_volume   397.42646190
_cell_formula_units_Z   2
loop_
 _symmetry_equiv_pos_site_id
 _symmetry_equiv_pos_as_xyz
  1  'x, y, z'
loop_
 _atom_site_type_symbol
 _atom_site_label
 _atom_site_symmetry_multiplicity
 _atom_site_fract_x
 _atom_site_fract_y
 _atom_site_fract_z
 _atom_site_occupancy
 _atom_site_hle17_ddec_charge
 _atom_site_hle17_ddec_spin_density
 _atom_site_hle17_ddec_sum_bond_order
 _atom_site_hle17_magmom
 _atom_site_hse06_10hf_ddec_charge
 _atom_site_hse06_10hf_ddec_spin_density
 _atom_site_hse06_10hf_ddec_sum_bond_order
 _atom_site_hse06_10hf_magmom
 _atom_site_hse06_ddec_charge
 _atom_site_hse06_ddec_spin_density
 _atom_site_hse06_ddec_sum_bond_order
 _atom_site_hse06_magmom
 _atom_site_pbe_cm5_charge
 _atom_site_pbe_ddec_charge
 _atom_site_pbe_ddec_spin_density
 _atom_site_pbe_ddec_sum_bond_order
 _atom_site_pbe_magmom
Cu  Cu0  1  0.54053389  0.08171025  0.33011871  1  0.69691  0.632213  1.942481  0.439  0.683702  0.734525  2.328658  0.556  0.771624  0.817468  2.25822  0.642  0.578057  0.634548  0.674481  2.372627  0.5
Cu  Cu1  1  0.45946000  0.91829331  0.66988187  1  0.696926  -0.632224  1.942464  -0.439  0.683721  -0.734534  2.328656  -0.556  0.771643  -0.817488  2.258226  -0.642  0.578088  0.634553  -0.674502  2.372626  -0.5
H  H2  1  0.34488518  0.32640210  0.51015064  1  0.09902  0.001622  0.979806  0.002  0.102919  0.001331  1.051742  0.002  0.105642  0.00099  1.049165  0.002  0.105296  0.100994  0.00169  1.053798  0.002
H  H3  1  0.01975421  0.67355073  0.49009096  1  0.099228  -0.001612  0.979521  -0.002  0.102713  -0.001329  1.052249  -0.002  0.105402  -0.000988  1.049672  -0.002  0.10549  0.100821  -0.001687  1.054243  -0.002
H  H4  1  0.65509625  0.67359985  0.48985288  1  0.099019  -0.001613  0.97977  -0.002  0.102922  -0.001331  1.051697  -0.002  0.10563  -0.00099  1.049138  -0.002  0.105295  0.100999  -0.00169  1.05375  -0.002
H  H5  1  0.98024187  0.32643684  0.50989379  1  0.099341  0.001616  0.979595  0.002  0.102814  0.001328  1.052298  0.002  0.105499  0.000988  1.049735  0.002  0.105547  0.100941  0.001687  1.054264  0.002
H  H6  1  0.28621950  0.85077621  0.07522488  1  0.108332  -7.5e-05  0.993317  0.0  0.122672  -0.000106  1.069762  0.0  0.123302  -0.000211  1.068885  0.0  0.086377  0.121658  -3.1e-05  1.071045  0.0
H  H7  1  0.43522520  0.14886995  0.92525529  1  0.108089  7.2e-05  0.993389  0.0  0.122479  0.000103  1.069749  0.0  0.123145  0.000208  1.068822  0.0  0.086396  0.121463  2.7e-05  1.071026  0.0
H  H8  1  0.71378763  0.14923055  0.92477736  1  0.108403  7.5e-05  0.993323  0.0  0.12273  0.000107  1.069773  0.0  0.12336  0.000211  1.068897  0.0  0.086413  0.121717  3.1e-05  1.071053  0.0
H  H9  1  0.56477391  0.85112076  0.07474403  1  0.108166  -6.9e-05  0.993401  0.0  0.122502  -0.000102  1.069813  0.0  0.123168  -0.000207  1.068886  0.0  0.08639  0.121486  -2.7e-05  1.071095  0.0
H  H10  1  0.02025571  0.75207970  0.97843902  1  0.125978  -0.000164  0.952156  0.0  0.148051  -9.2e-05  1.007728  0.0  0.149923  -7.5e-05  1.007411  0.0  0.095099  0.146677  -7.9e-05  1.008083  0.0
H  H11  1  0.26765829  0.24757115  0.02179960  1  0.125392  0.000164  0.952419  0.0  0.147926  9.2e-05  1.007554  0.0  0.149839  7.5e-05  1.007173  0.0  0.094848  0.146539  7.9e-05  1.007931  0.0
H  H12  1  0.97974895  0.24793669  0.02156712  1  0.125958  0.000163  0.952225  0.0  0.148027  9.2e-05  1.007793  0.0  0.149899  7.6e-05  1.007475  0.0  0.095093  0.146654  7.9e-05  1.008152  0.0
H  H13  1  0.73234789  0.75243080  0.97820069  1  0.125447  -0.000165  0.952409  0.0  0.148003  -9.2e-05  1.007505  0.0  0.149916  -7.5e-05  1.007123  0.0  0.094861  0.146615  -7.9e-05  1.007881  0.0
H  H14  1  0.05048705  0.63506109  0.11868167  1  0.143218  0.000585  0.947568  0.0  0.168385  0.000676  1.001422  0.0  0.170339  0.000495  1.000718  0.0  0.096392  0.167086  0.00078  1.001868  0.0
H  H15  1  0.41520028  0.36475907  0.88178659  1  0.142747  -0.000595  0.947522  0.0  0.167886  -0.000683  1.001523  0.0  0.169821  -0.000501  1.000844  0.0  0.096078  0.16655  -0.00079  1.001998  0.0
H  H16  1  0.94951783  0.36494408  0.88131704  1  0.143253  -0.000588  0.947518  0.0  0.168413  -0.000675  1.001372  0.0  0.170367  -0.000495  1.000668  0.0  0.096392  0.167113  -0.00078  1.001819  0.0
H  H17  1  0.58480561  0.63523645  0.11821361  1  0.142792  0.000596  0.94752  0.0  0.167927  0.000684  1.001528  0.0  0.169865  0.000501  1.000842  0.0  0.096123  0.166593  0.00079  1.002004  0.0
C  C18  1  0.07309626  0.93996643  0.20516179  1  0.230986  0.003258  3.630537  0.003  0.237416  0.004281  3.873923  0.004  0.243502  0.002596  3.89461  0.002  0.133661  0.233373  0.005817  3.860523  0.005
C  C19  1  0.13336597  0.05993757  0.79498319  1  0.230538  -0.003222  3.63133  -0.003  0.236896  -0.004278  3.874748  -0.004  0.242964  -0.002592  3.895454  -0.002  0.133785  0.232895  -0.005818  3.861262  -0.005
C  C20  1  0.92691944  0.06003709  0.79484739  1  0.230896  -0.003296  3.630567  -0.003  0.237338  -0.004277  3.873988  -0.004  0.243435  -0.002596  3.894645  -0.002  0.133565  0.233293  -0.005814  3.860595  -0.005
C  C21  1  0.86662600  0.94005635  0.20501994  1  0.230583  0.00326  3.631593  0.003  0.23702  0.004282  3.874967  0.004  0.243087  0.002595  3.89568  0.002  0.133911  0.233017  0.005822  3.861477  0.005
C  C22  1  0.20862143  0.21648439  0.42216260  1  0.089483  0.001983  3.662103  0.002  0.055046  0.003001  3.925986  0.002  0.060479  0.001548  3.942007  0.001  0.043656  0.051485  0.004448  3.916162  0.004
C  C23  1  0.99298431  0.78344186  0.57796574  1  0.088916  -0.001917  3.662662  -0.002  0.054201  -0.002996  3.926949  -0.002  0.059707  -0.001539  3.942894  -0.001  0.043411  0.050625  -0.004438  3.917117  -0.004
C  C24  1  0.79139754  0.78351110  0.57784405  1  0.089306  -0.002014  3.662635  -0.002  0.054867  -0.003001  3.926576  -0.002  0.060328  -0.001549  3.942564  -0.001  0.043641  0.051309  -0.004446  3.916752  -0.004
C  C25  1  0.00698680  0.21655691  0.42203181  1  0.088689  0.001959  3.662269  0.002  0.054011  0.002996  3.926625  0.002  0.059516  0.001541  3.942564  0.001  0.043422  0.050431  0.00444  3.916802  0.004
C  C26  1  0.10958629  0.78717893  0.08728351  1  -0.369478  0.002936  3.712607  0.003  -0.455704  0.002493  3.947325  0.003  -0.459142  0.001755  3.956616  0.002  -0.245206  -0.45274  0.003279  3.940633  0.003
C  C27  1  0.32221319  0.21254184  0.91303895  1  -0.368306  -0.002946  3.712202  -0.003  -0.454788  -0.002507  3.946623  -0.003  -0.458263  -0.001767  3.955937  -0.002  -0.244835  -0.45178  -0.003292  3.939949  -0.003
C  C28  1  0.89041582  0.21282944  0.91271902  1  -0.369581  -0.002932  3.712593  -0.003  -0.455792  -0.002494  3.947286  -0.003  -0.459235  -0.001756  3.956575  -0.002  -0.245222  -0.452837  -0.003277  3.940611  -0.003
C  C29  1  0.67779867  0.78745692  0.08695752  1  -0.368478  0.002944  3.712478  0.003  -0.454942  0.002507  3.946878  0.003  -0.458417  0.001766  3.956186  0.002  -0.244878  -0.451928  0.003293  3.9402  0.003
N  N30  1  0.23932643  0.07677413  0.31586050  1  -0.281417  0.072041  3.308999  0.089  -0.231337  0.056202  3.582583  0.073  -0.258752  0.047446  3.607282  0.065  -0.320773  -0.215715  0.060746  3.56853  0.076
N  N31  1  0.16311969  0.92307942  0.68436998  1  -0.280648  -0.072191  3.308551  -0.089  -0.230085  -0.056293  3.581543  -0.073  -0.257499  -0.04752  3.606271  -0.065  -0.320399  -0.21446  -0.060842  3.567449  -0.077
N  N32  1  0.76067137  0.92321978  0.68414263  1  -0.281175  -0.072003  3.308439  -0.089  -0.231122  -0.056197  3.582032  -0.073  -0.25853  -0.047437  3.606715  -0.065  -0.320666  -0.215502  -0.060739  3.567984  -0.076
N  N33  1  0.83688250  0.07691454  0.31562238  1  -0.280535  0.072159  3.309119  0.089  -0.230112  0.056296  3.582171  0.073  -0.257521  0.047522  3.606895  0.065  -0.320519  -0.214483  0.060847  3.568074  0.077
Cl  Cl34  1  0.62745329  0.25552560  0.62601687  1  -0.505232  -0.108752  1.075132  -0.122  -0.50018  -0.075735  1.377052  -0.089  -0.531672  -0.060872  1.354162  -0.074  -0.271893  -0.480357  -0.083112  1.393353  -0.095
Cl  Cl35  1  0.37254256  0.74447315  0.37398175  1  -0.505241  0.108741  1.075161  0.122  -0.500166  0.075733  1.377049  0.089  -0.531654  0.060873  1.354152  0.074  -0.271896  -0.480342  0.08311  1.393353  0.095
Cl  Cl36  1  0.68871755  0.37856875  0.24255298  1  -0.483784  0.14321  0.913328  0.163  -0.47819  0.091872  1.179957  0.111  -0.510367  0.074042  1.162161  0.093  -0.29551  -0.459659  0.099121  1.192681  0.116
Cl  Cl37  1  0.31127684  0.62143000  0.75744565  1  -0.48374  -0.143219  0.913267  -0.163  -0.47817  -0.091876  1.179922  -0.111  -0.510351  -0.07404  1.16213  -0.093  -0.295487  -0.459633  -0.099125  1.192638  -0.116
