# generated using pymatgen
data_Zn4H50C60N4O19
_symmetry_space_group_name_H-M   'P 1'
_cell_length_a   17.90958530
_cell_length_b   19.24733341
_cell_length_c   19.19247551
_cell_angle_alpha   95.03002394
_cell_angle_beta   103.80290044
_cell_angle_gamma   99.15503177
_symmetry_Int_Tables_number   1
_chemical_formula_structural   Zn4H50C60N4O19
_chemical_formula_sum   'Zn4 H50 C60 N4 O19'
_cell_volume   6288.27967909
_cell_formula_units_Z   1
loop_
 _symmetry_equiv_pos_site_id
 _symmetry_equiv_pos_as_xyz
  1  'x, y, z'
loop_
 _atom_site_type_symbol
 _atom_site_label
 _atom_site_symmetry_multiplicity
 _atom_site_fract_x
 _atom_site_fract_y
 _atom_site_fract_z
 _atom_site_occupancy
 _atom_site_pbe_bader_charge
 _atom_site_pbe_bader_spin_density
 _atom_site_pbe_cm5_charge
 _atom_site_pbe_ddec_charge
 _atom_site_pbe_ddec_spin_density
 _atom_site_pbe_ddec_sum_bond_order
 _atom_site_pbe_magmom
Zn  Zn0  1  0.43499297  0.54703499  0.54488461  1  1.318427  0  0.674939  0.964042  0  2.405834  0
Zn  Zn1  1  0.57164435  0.45575140  0.56944409  1  1.313732  0  0.66894  0.961134  0  2.370136  0
Zn  Zn2  1  0.56344012  0.56783282  0.45702466  1  1.315173  0  0.671354  0.9596  0  2.390351  0
Zn  Zn3  1  0.43223383  0.42294090  0.42199696  1  1.312286  0  0.667769  0.965319  0  2.345289  0
H  H4  1  0.93076290  0.32210000  0.40300124  1  0.080395  0  0.102682  0.103529  0  0.994361  0
H  H5  1  0.40464454  0.56351771  0.74565042  1  0.076357  0  0.109129  0.120614  0  0.991605  0
H  H6  1  0.81014780  0.65680012  0.63295594  1  0.072931  0  0.110301  0.127699  0  0.986878  0
H  H7  1  0.05149971  0.29346650  0.38263558  1  0.070371  0  0.102003  0.104787  0  0.997559  0
H  H8  1  0.19564609  0.32656330  0.39709723  1  0.082297  0  0.107418  0.114156  0  0.989135  0
H  H9  1  0.85880954  0.40195635  0.45400367  1  0.068703  0  0.10308  0.1033  0  1.010477  0
H  H10  1  0.14629519  0.58053968  0.57407897  1  0.076928  0  0.106196  0.111459  0  1.038894  0
H  H11  1  0.90326776  0.77058164  0.63428007  1  0.011908  0  0.096717  0.051957  0  0.974231  0
H  H12  1  0.98714414  0.76400457  0.60093284  1  0.051179  0  0.095462  0.050103  0  0.970949  0
H  H13  1  0.07427336  0.80520587  0.72702317  1  0.030199  0  0.093132  0.126149  0  0.99366  0
H  H14  1  0.01670251  0.86936696  0.69649457  1  0.029935  0  0.093777  0.124412  0  0.997447  0
H  H15  1  0.40231599  0.19920656  0.40853956  1  0.118512  0  0.114202  0.136104  0  0.984133  0
H  H16  1  0.99035372  0.81329929  0.75936597  1  0.050074  0  0.093693  0.127611  0  0.992851  0
H  H17  1  0.45746450  0.01823352  0.34057648  1  0.040676  0  0.093956  0.050765  0  0.975721  0
H  H18  1  0.40834412  0.08571518  0.30363100  1  0.036532  0  0.096336  0.05296  0  0.967168  0
H  H19  1  0.27829090  0.00365985  0.28681998  1  0.041705  0  0.094254  0.12838  0  0.988937  0
H  H20  1  0.33884410  0.96532989  0.23888133  1  0.027692  0  0.094047  0.124419  0  0.996584  0
H  H21  1  0.32849335  0.93658487  0.32255804  1  0.049786  0  0.094371  0.13018  0  0.990752  0
H  H22  1  0.38874240  0.75448615  0.55378912  1  0.095338  0  0.110921  0.116223  0  1.000387  0
H  H23  1  0.62274970  0.25345394  0.56937495  1  0.100061  0  0.110104  0.119942  0  0.98889  0
H  H24  1  0.69821291  0.51688347  0.95516684  1  0.043506  0  0.098074  0.054127  0  0.971819  0
H  H25  1  0.68899366  0.44630201  0.88501381  1  0.034187  0  0.100539  0.058267  0  0.978431  0
H  H26  1  0.38137638  0.88416995  0.55292599  1  0.103158  0  0.111733  0.116879  0  0.984806  0
H  H27  1  0.69698451  0.35888595  0.97352106  1  0.033591  0  0.095621  0.130302  0  0.987826  0
H  H28  1  0.77972468  0.42933967  0.00307803  1  0.006298  0  0.094536  0.125039  0  0.997069  0
H  H29  1  0.70021357  0.42630503  0.04442752  1  0.039563  0  0.094397  0.127428  0  0.997977  0
H  H30  1  0.42438803  0.36681199  0.07893007  1  0.088135  0  0.108603  0.119555  0  0.984713  0
H  H31  1  0.67445363  0.55285978  0.10923398  1  0.023086  0  0.093363  0.050133  0  0.979345  0
H  H32  1  0.67093190  0.61538253  0.18272436  1  0.050806  0  0.099685  0.063403  0  1.001653  0
H  H33  1  0.66286933  0.71023185  0.10002466  1  0.035691  0  0.092787  0.125225  0  0.993513  0
H  H34  1  0.74916611  0.67406061  0.10433560  1  0.039574  0  0.092498  0.121546  0  0.998016  0
H  H35  1  0.66742719  0.64814871  0.02734735  1  0.066451  0  0.090579  0.122336  0  1.00054  0
H  H36  1  0.39159280  0.56006911  0.87328122  1  0.080635  0  0.110863  0.116548  0  0.9849  0
H  H37  1  0.56496660  0.91125746  0.44337754  1  0.099184  0  0.105958  0.108361  0  1.012034  0
H  H38  1  0.56163556  0.68873555  0.31148996  1  0.040185  0  0.105939  0.075111  0  0.957918  0
H  H39  1  0.47619303  0.62191979  0.28309128  1  0.048896  0  0.096135  0.056277  0  0.992015  0
H  H40  1  0.45015986  0.65904192  0.15732887  1  0.041522  0  0.092014  0.129868  0  0.997397  0
H  H41  1  0.45292220  0.73014952  0.22440274  1  0.035411  0  0.09021  0.121728  0  1.001706  0
H  H42  1  0.53453803  0.72732187  0.18663914  1  0.04806  0  0.091085  0.126969  0  0.998111  0
H  H43  1  0.07683634  0.65295047  0.63895713  1  0.095366  0  0.103161  0.104569  0  1.008132  0
H  H44  1  0.11504754  0.60147239  0.44032922  1  0.042967  0  0.094159  0.051068  0  1.000717  0
H  H45  1  0.18453145  0.58116841  0.39210283  1  0.038194  0  0.097513  0.05639  0  0.965173  0
H  H46  1  0.29035854  0.66899328  0.48210468  1  0.074797  0  0.0901  0.129926  0  1.025127  0
H  H47  1  0.21306022  0.71111624  0.43903582  1  0.035305  0  0.093532  0.125515  0  0.992701  0
H  H48  1  0.62898152  0.12360735  0.56806949  1  0.091039  0  0.109658  0.117262  0  0.983125  0
H  H49  1  0.22049462  0.69062826  0.52884667  1  0.02177  0  0.091907  0.124555  0  0.994622  0
H  H50  1  0.56934321  0.78084054  0.44052765  1  0.090724  0  0.10885  0.113473  0  0.997361  0
H  H51  1  0.59915942  0.45553293  0.79452473  1  0.098303  0  0.10999  0.127978  0  1.010588  0
H  H52  1  0.80136622  0.46667671  0.49370604  1  0.081852  0  0.103501  0.107654  0  1.017142  0
H  H53  1  0.42699844  0.38265546  0.21075459  1  0.098764  0  0.106976  0.117747  0  0.992882  0
C  C54  1  0.50755755  0.31089077  0.49092765  1  1.570937  0  0.226205  0.604747  0  4.16626  0
C  C55  1  0.08300684  0.56717549  0.56313539  1  -0.046665  0  -0.097626  -0.143017  0  4.026869  0
C  C56  1  0.04448487  0.60759413  0.59941446  1  -0.092596  0  -0.094475  -0.116985  0  4.039979  0
C  C57  1  0.48276395  0.68323533  0.49523739  1  1.546129  0  0.226874  0.597646  0  4.175564  0
C  C58  1  0.96179246  0.59153044  0.58686501  1  0.084968  0  -0.014902  -0.023154  0  4.008819  0
C  C59  1  0.91872794  0.52942832  0.53899840  1  -0.029543  0  -0.001378  0.055251  0  3.959274  0
C  C60  1  0.92138113  0.63596433  0.62151666  1  0.497036  0  0.083069  0.21148  0  4.062886  0
C  C61  1  0.84069912  0.62175888  0.60709178  1  -0.018118  0  -0.099282  -0.231526  0  3.989718  0
C  C62  1  0.83663720  0.51402039  0.52853991  1  0.01364  0  -0.092162  -0.172237  0  3.961085  0
C  C63  1  0.47901601  0.76025051  0.49663270  1  -0.044105  0  -0.014963  -0.035977  0  3.963923  0
C  C64  1  0.52888446  0.80427251  0.46538638  1  -0.04613  0  -0.079993  -0.078304  0  3.973732  0
C  C65  1  0.16312632  0.36362927  0.41712910  1  -0.029878  0  -0.087426  -0.081331  0  4.036263  0
C  C66  1  0.52657463  0.87604605  0.46678505  1  0.011938  0  -0.08423  -0.147662  0  3.962456  0
C  C67  1  0.47326396  0.90446317  0.49887527  1  0.345235  0  0.090418  0.171083  0  4.042889  0
C  C68  1  0.42248286  0.86057008  0.52905967  1  -0.071575  0  -0.078526  -0.139204  0  3.949146  0
C  C69  1  0.51007909  0.51082571  0.68788764  1  1.550257  0  0.22614  0.605558  0  4.159977  0
C  C70  1  0.42634959  0.78900354  0.52907742  1  -0.004113  0  -0.078918  -0.085077  0  3.9704  0
C  C71  1  0.45219166  0.11055097  0.44628764  1  0.514206  0  0.088173  0.186006  0  4.037344  0
C  C72  1  0.45147043  0.18265541  0.44434881  1  -0.003104  0  -0.086561  -0.194144  0  3.954417  0
C  C73  1  0.51676191  0.08936588  0.49251440  1  0.347017  0  0.088047  0.077467  0  4.050068  0
C  C74  1  0.51179373  0.23396896  0.48969170  1  -0.044896  0  -0.017467  -0.019569  0  3.987618  0
C  C75  1  0.57604005  0.21295167  0.53479100  1  -0.004651  0  -0.08628  -0.096977  0  3.990933  0
C  C76  1  0.16359299  0.48190663  0.47406861  1  0.521488  0  0.101146  0.211362  0  3.965469  0
C  C77  1  0.57925537  0.14139782  0.53438712  1  -0.056153  0  -0.085539  -0.139201  0  3.987605  0
C  C78  1  0.49532667  0.48788837  0.23195957  1  0.02797  0  -0.03216  -0.150152  0  3.981702  0
C  C79  1  0.53274743  0.54377792  0.20183896  1  0.550814  0  0.085742  0.152849  0  4.02238  0
C  C80  1  0.53163217  0.53513248  0.12765089  1  0.482394  0  0.081702  0.075117  0  4.01414  0
C  C81  1  0.49878670  0.49026243  0.31056759  1  1.543144  0  0.222597  0.613228  0  4.168047  0
C  C82  1  0.49060838  0.47118344  0.08337552  1  0.410829  0  0.088105  0.095258  0  4.077339  0
C  C83  1  0.45414620  0.41594169  0.11397159  1  -0.040521  0  -0.095063  -0.162199  0  4.019584  0
C  C84  1  0.45560278  0.42480238  0.18653234  1  -0.037863  0  -0.091574  -0.081728  0  4.030307  0
C  C85  1  0.54601417  0.47416847  0.88303307  1  0.535678  0  0.094762  0.19751  0  4.014337  0
C  C86  1  0.55406069  0.47818473  0.81274375  1  -0.043591  0  -0.096451  -0.217733  0  3.975653  0
C  C87  1  0.08358125  0.46196623  0.47519647  1  -0.032706  0  -0.007844  -0.074677  0  3.910832  0
C  C88  1  0.48497448  0.50311824  0.90406554  1  0.326057  0  0.088242  0.077101  0  4.025286  0
C  C89  1  0.50281589  0.50934970  0.76348798  1  -0.024701  0  -0.0198  -0.019431  0  4.002991  0
C  C90  1  0.44341257  0.53887573  0.78455550  1  0.084948  0  -0.091656  -0.108181  0  4.00436  0
C  C91  1  0.43582768  0.53638586  0.85439704  1  -0.035832  0  -0.082122  -0.130087  0  3.992518  0
C  C92  1  0.71131373  0.54353408  0.54566305  1  1.533083  0  0.230542  0.619997  0  4.148564  0
C  C93  1  0.29056642  0.44925223  0.46016811  1  1.554042  0  0.224772  0.624523  0  4.157906  0
C  C94  1  0.20411536  0.43207188  0.44981458  1  0.02399  0  -0.027778  -0.144524  0  3.971981  0
C  C95  1  0.79859900  0.55988856  0.56071843  1  -0.024646  0  -0.016368  0.003073  0  4.015612  0
C  C96  1  0.08390799  0.34546768  0.40988134  1  -0.053764  0  -0.099295  -0.156695  0  4.027723  0
C  C97  1  0.96410607  0.76165598  0.64936185  1  0.41781  0  -0.065638  0.091201  0  3.936653  0
C  C98  1  0.04317853  0.39326840  0.43885260  1  0.003224  0  -0.005999  0.097307  0  4.035117  0
C  C99  1  0.01429693  0.81553824  0.71181593  1  -0.043802  0  -0.241902  -0.395027  0  3.99203  0
C  C100  1  0.40238536  0.03905513  0.33293989  1  0.409259  0  -0.066176  0.092004  0  3.925073  0
C  C101  1  0.33274755  0.98275268  0.29296502  1  -0.05371  0  -0.242896  -0.394268  0  3.981486  0
C  C102  1  0.67720541  0.45939184  0.93790916  1  0.416618  0  -0.061026  0.091604  0  3.913665  0
C  C103  1  0.71582031  0.41583562  0.99303892  1  -0.010557  0  -0.240819  -0.394706  0  3.981747  0
C  C104  1  0.65369416  0.60191410  0.12350769  1  0.432943  0  -0.067456  0.082666  0  3.902698  0
C  C105  1  0.68492541  0.66207300  0.08643205  1  -0.089011  0  -0.242407  -0.388074  0  3.988427  0
C  C106  1  0.52253602  0.65361823  0.26434345  1  0.434154  0  -0.064776  0.093719  0  3.896174  0
C  C107  1  0.48818570  0.69491017  0.20453251  1  -0.087288  0  -0.248234  -0.408721  0  3.985398  0
C  C108  1  0.17749560  0.60015790  0.44569805  1  0.401403  0  -0.065801  0.083966  0  3.914489  0
C  C109  1  0.04253067  0.50598315  0.51250216  1  0.014649  0  -0.003538  0.046133  0  3.948975  0
C  C110  1  0.22849130  0.67202493  0.47579191  1  -0.068905  0  -0.245713  -0.395855  0  3.973627  0
C  C111  1  0.96059822  0.48501562  0.50340489  1  -0.004783  0  -0.00486  0.029181  0  3.942943  0
C  C112  1  0.92145511  0.41877234  0.46122523  1  -0.075157  0  -0.091249  -0.123251  0  4.027452  0
C  C113  1  0.96139157  0.37393478  0.43217578  1  -0.069502  0  -0.093687  -0.13839  0  4.028877  0
N  N114  1  0.46514095  0.97649606  0.50103127  1  -0.422956  0  -0.138924  -0.118349  0  3.254602  0
N  N115  1  0.52528813  0.01827540  0.49611599  1  -0.482553  0  -0.143991  -0.120398  0  3.310043  0
N  N116  1  0.48912457  0.45811343  0.01001350  1  -0.442607  0  -0.141022  -0.10379  0  3.293404  0
N  N117  1  0.47503741  0.50892086  0.97422692  1  -0.444324  0  -0.141289  -0.104889  0  3.323667  0
O  O118  1  0.50058786  0.49729428  0.49744951  1  -1.237803  0  -0.573421  -1.028716  0  2.541671  0
O  O119  1  0.68156975  0.48738412  0.56720774  1  -1.171822  0  -0.31373  -0.54467  0  2.303576  0
O  O120  1  0.31931488  0.41861309  0.41343346  1  -1.167692  0  -0.318773  -0.55175  0  2.292445  0
O  O121  1  0.67423834  0.58726656  0.51229602  1  -1.167674  0  -0.31671  -0.545502  0  2.295031  0
O  O122  1  0.32954195  0.49097378  0.51685155  1  -1.173431  0  -0.317605  -0.549852  0  2.385366  0
O  O123  1  0.96537883  0.69211454  0.67188024  1  -1.081775  0  -0.208158  -0.248251  0  2.500608  0
O  O124  1  0.39099526  0.06111326  0.40310403  1  -1.064344  0  -0.20467  -0.240013  0  2.513064  0
O  O125  1  0.59426219  0.44397385  0.93278143  1  -1.065541  0  -0.183118  -0.207898  0  2.558843  0
O  O126  1  0.56886487  0.58825790  0.09819756  1  -1.068835  0  -0.192187  -0.20724  0  2.549616  0
O  O127  1  0.57122239  0.60777406  0.24088325  1  -1.070533  0  -0.197737  -0.223175  0  2.541036  0
O  O128  1  0.20291322  0.55081490  0.49525353  1  -1.065123  0  -0.195702  -0.223151  0  2.54164  0
O  O129  1  0.46911260  0.54914278  0.64978851  1  -1.178108  0  -0.317561  -0.547917  0  2.353941  0
O  O130  1  0.44927014  0.44365385  0.32771835  1  -1.169861  0  -0.318222  -0.550554  0  2.334696  0
O  O131  1  0.55673794  0.35285388  0.54259877  1  -1.177476  0  -0.315205  -0.544483  0  2.345401  0
O  O132  1  0.53167471  0.66106796  0.46417713  1  -1.174664  0  -0.313679  -0.548971  0  2.356515  0
O  O133  1  0.45530058  0.32829720  0.44098832  1  -1.16681  0  -0.316053  -0.549324  0  2.320926  0
O  O134  1  0.43683080  0.64571864  0.52512588  1  -1.172662  0  -0.311141  -0.544119  0  2.345843  0
O  O135  1  0.55618700  0.47392644  0.66699206  1  -1.170467  0  -0.317731  -0.548053  0  2.31469  0
O  O136  1  0.55154704  0.53689592  0.35488843  1  -1.179153  0  -0.316638  -0.547994  0  2.37709  0
