# generated using pymatgen
data_ZnFeH18C30S2N2(OF3)4
_symmetry_space_group_name_H-M   'P 1'
_cell_length_a   8.36465404
_cell_length_b   10.14874241
_cell_length_c   10.67476197
_cell_angle_alpha   94.50426412
_cell_angle_beta   112.18227729
_cell_angle_gamma   98.75644999
_symmetry_Int_Tables_number   1
_chemical_formula_structural   ZnFeH18C30S2N2(OF3)4
_chemical_formula_sum   'Zn1 Fe1 H18 C30 S2 N2 O4 F12'
_cell_volume   820.12894247
_cell_formula_units_Z   1
loop_
 _symmetry_equiv_pos_site_id
 _symmetry_equiv_pos_as_xyz
  1  'x, y, z'
loop_
 _atom_site_type_symbol
 _atom_site_label
 _atom_site_symmetry_multiplicity
 _atom_site_fract_x
 _atom_site_fract_y
 _atom_site_fract_z
 _atom_site_occupancy
 _atom_site_hle17_bader_spin_density
 _atom_site_hle17_ddec_charge
 _atom_site_hle17_ddec_spin_density
 _atom_site_hle17_ddec_sum_bond_order
 _atom_site_hle17_magmom
 _atom_site_hse06_10hf_bader_spin_density
 _atom_site_hse06_10hf_ddec_charge
 _atom_site_hse06_10hf_ddec_spin_density
 _atom_site_hse06_10hf_ddec_sum_bond_order
 _atom_site_hse06_10hf_magmom
 _atom_site_hse06_bader_spin_density
 _atom_site_hse06_ddec_charge
 _atom_site_hse06_ddec_spin_density
 _atom_site_hse06_ddec_sum_bond_order
 _atom_site_hse06_magmom
 _atom_site_pbe_bader_spin_density
 _atom_site_pbe_cm5_charge
 _atom_site_pbe_ddec_charge
 _atom_site_pbe_ddec_spin_density
 _atom_site_pbe_ddec_sum_bond_order
 _atom_site_pbe_magmom
Zn  Zn0  1  0.49999983  0.50000138  0.50000066  1  0  1.004611  0  1.863125  0  0  0.83368  0  2.299484  0  0  0.879477  0  2.249557  0  0  0.689525  0.80205  0  2.33346  0
Fe  Fe1  1  0.99999951  0.00000050  0.99999874  1  0  0.093758  0  3.601748  0  0  0.197186  0  4.006493  0  0  0.203415  0  3.992209  0  0  0.522252  0.199606  0  4.009816  0
H  H2  1  0.65650972  0.52545283  0.81188453  1  0  0.080492  0  0.950629  0  0  0.084955  0  1.021521  0  0  0.087877  0  1.018602  0  0  0.112045  0.082908  0  1.023453  0
H  H3  1  0.34348992  0.47454489  0.18811645  1  0  0.080482  0  0.950639  0  0  0.084947  0  1.021527  0  0  0.087868  0  1.018611  0  0  0.112025  0.082902  0  1.023459  0
H  H4  1  0.60409863  0.41188884  0.99431368  1  0  0.108063  0  0.977403  0  0  0.111886  0  1.048817  0  0  0.115842  0  1.046683  0  0  0.095355  0.108869  0  1.050909  0
H  H5  1  0.39589844  0.58810886  0.00568466  1  0  0.108045  0  0.977428  0  0  0.111883  0  1.048831  0  0  0.115829  0  1.046703  0  0  0.095338  0.108865  0  1.050924  0
H  H6  1  0.18230724  0.12537719  0.67631597  1  0  0.119269  0  0.956158  0  0  0.126136  0  1.020124  0  0  0.130129  0  1.018276  0  0  0.102322  0.123507  0  1.021178  0
H  H7  1  0.81769138  0.87462149  0.32368008  1  0  0.119287  0  0.956127  0  0  0.126146  0  1.02009  0  0  0.130183  0  1.018278  0  0  0.102319  0.123517  0  1.021144  0
H  H8  1  0.25567690  0.24840316  0.50665896  1  0  0.089339  0  0.936073  0  0  0.098331  0  0.998299  0  0  0.101233  0  0.995135  0  0  0.117529  0.096534  0  0.999959  0
H  H9  1  0.74433101  0.75159146  0.49333772  1  0  0.089241  0  0.936224  0  0  0.098295  0  0.998384  0  0  0.100999  0  0.995654  0  0  0.117495  0.096498  0  1.000046  0
H  H10  1  0.16813462  0.88547088  0.84852998  1  0  0.124757  0  0.956114  0  0  0.132466  0  1.022773  0  0  0.136451  0  1.019794  0  0  0.100308  0.129517  0  1.025152  0
H  H11  1  0.83186245  0.11452681  0.15146835  1  0  0.124699  0  0.95617  0  0  0.132426  0  1.022817  0  0  0.136508  0  1.019525  0  0  0.100282  0.129476  0  1.025198  0
H  H12  1  0.81110086  0.81801020  0.75452995  1  0  0.124216  0  0.945469  0  0  0.136786  0  1.004709  0  0  0.140258  0  1.002593  0  0  0.106705  0.134351  0  1.006288  0
H  H13  1  0.18889802  0.18198954  0.24547094  1  0  0.12426  0  0.945405  0  0  0.136792  0  1.00469  0  0  0.14027  0  1.002584  0  0  0.106718  0.134353  0  1.00627  0
H  H14  1  0.68967497  0.04360713  0.79321525  1  0  0.11987  0  0.939813  0  0  0.134062  0  0.992535  0  0  0.137272  0  0.991089  0  0  0.105735  0.131721  0  0.993771  0
H  H15  1  0.31032546  0.95639363  0.20678803  1  0  0.119922  0  0.939802  0  0  0.134057  0  0.992589  0  0  0.137268  0  0.991152  0  0  0.105724  0.131713  0  0.993822  0
H  H16  1  0.97040731  0.25087019  0.91185624  1  0  0.12383  0  0.95282  0  0  0.135341  0  1.012893  0  0  0.138487  0  1.011218  0  0  0.101061  0.13304  0  1.014353  0
H  H17  1  0.02959441  0.74913052  0.08814274  1  0  0.123835  0  0.952855  0  0  0.135356  0  1.012932  0  0  0.138503  0  1.011246  0  0  0.101057  0.133054  0  1.014393  0
H  H18  1  0.97275230  0.30880154  0.63172249  1  0  0.135026  0  0.993301  0  0  0.131985  0  1.073598  0  0  0.136669  0  1.074021  0  0  0.093221  0.128937  0  1.07291  0
H  H19  1  0.02724400  0.69120320  0.36827421  1  0  0.134981  0  0.993324  0  0  0.131925  0  1.073647  0  0  0.136261  0  1.074789  0  0  0.093199  0.128879  0  1.072957  0
C  C20  1  0.55511293  0.43472153  0.78590849  1  0  0.133871  0  3.719698  0  0  0.103247  0  3.971078  0  0  0.111522  0  3.988856  0  0  0.037989  0.0979  0  3.959016  0
C  C21  1  0.44488698  0.56527718  0.21409170  1  0  0.13378  0  3.719723  0  0  0.103161  0  3.971113  0  0  0.111434  0  3.988874  0  0  0.037952  0.097811  0  3.959053  0
C  C22  1  0.52577364  0.37091200  0.88746108  1  0  -0.177241  0  3.737746  0  0  -0.195786  0  3.990707  0  0  -0.204711  0  4.010775  0  0  -0.099649  -0.19017  0  3.977712  0
C  C23  1  0.47422368  0.62908670  0.11253740  1  0  -0.177199  0  3.737681  0  0  -0.195752  0  3.990638  0  0  -0.204669  0  4.010683  0  0  -0.099608  -0.190134  0  3.977643  0
C  C24  1  0.38783708  0.25841405  0.85078320  1  0  0.096413  0  3.7848  0  0  0.110094  0  4.040934  0  0  0.118169  0  4.060997  0  0  0.007178  0.10473  0  4.027471  0
C  C25  1  0.61216154  0.74158463  0.14921379  1  0  0.09643  0  3.78491  0  0  0.110089  0  4.041067  0  0  0.118177  0  4.0611  0  0  0.007169  0.104726  0  4.027602  0
C  C26  1  0.28970333  0.21264687  0.71086172  1  0  -0.174028  0  3.725051  0  0  -0.194559  0  3.980592  0  0  -0.202521  0  3.998802  0  0  -0.09734  -0.189612  0  3.968358  0
C  C27  1  0.71029864  0.78734978  0.28913426  1  0  -0.17405  0  3.725046  0  0  -0.194562  0  3.980606  0  0  -0.202614  0  3.998987  0  0  -0.097369  -0.189615  0  3.968372  0
C  C28  1  0.33008942  0.28146677  0.61594831  1  0  0.139808  0  3.702938  0  0  0.109588  0  3.953265  0  0  0.118827  0  3.968722  0  0  0.04281  0.103708  0  3.942353  0
C  C29  1  0.66991719  0.71852787  0.38404986  1  0  0.139888  0  3.70296  0  0  0.109622  0  3.953296  0  0  0.11878  0  3.969118  0  0  0.042876  0.103743  0  3.942383  0
C  C30  1  0.13074562  0.09522072  0.89768816  1  0  -0.020983  0  3.806593  0  0  -0.007352  0  4.08361  0  0  -0.010948  0  4.105868  0  0  -0.084169  -0.005912  0  4.068918  0
C  C31  1  0.86925326  0.90477897  0.10230897  1  0  -0.020928  0  3.806633  0  0  -0.007278  0  4.083624  0  0  -0.010861  0  4.105856  0  0  -0.08415  -0.005838  0  4.068933  0
C  C32  1  0.07870870  0.95294623  0.84653485  1  0  -0.144989  0  3.715892  0  0  -0.184626  0  3.998142  0  0  -0.187163  0  4.014014  0  0  -0.156325  -0.183289  0  3.987755  0
C  C33  1  0.92128991  0.04705248  0.15346495  1  0  -0.144974  0  3.715913  0  0  -0.184613  0  3.998103  0  0  -0.186843  0  4.013319  0  0  -0.156317  -0.183278  0  3.987717  0
C  C34  1  0.89099052  0.91844485  0.79683942  1  0  -0.090498  0  3.685959  0  0  -0.120343  0  3.960257  0  0  -0.123781  0  3.977629  0  0  -0.148021  -0.118542  0  3.948514  0
C  C35  1  0.10900706  0.08155486  0.20315920  1  0  -0.090564  0  3.685929  0  0  -0.120364  0  3.960215  0  0  -0.123727  0  3.977347  0  0  -0.148049  -0.118565  0  3.948481  0
C  C36  1  0.82658296  0.03816768  0.81737517  1  0  -0.088102  0  3.705701  0  0  -0.114988  0  3.974985  0  0  -0.118127  0  3.992696  0  0  -0.148661  -0.113542  0  3.963162  0
C  C37  1  0.17341901  0.96183405  0.18262583  1  0  -0.088053  0  3.70572  0  0  -0.114877  0  3.97498  0  0  -0.118023  0  3.992729  0  0  -0.148586  -0.113427  0  3.963146  0
C  C38  1  0.97367947  0.14761647  0.87970903  1  0  -0.149409  0  3.716802  0  0  -0.183898  0  3.990865  0  0  -0.187705  0  4.009377  0  0  -0.156584  -0.181789  0  3.978515  0
C  C39  1  0.02632225  0.85238424  0.12028995  1  0  -0.14953  0  3.716957  0  0  -0.18405  0  3.991016  0  0  -0.187867  0  4.009548  0  0  -0.156626  -0.181939  0  3.978663  0
C  C40  1  0.71932445  0.14641104  0.42369058  1  0  0.707514  0  3.626488  0  0  0.634595  0  3.966911  0  0  0.663218  0  3.93903  0  0  0.299192  0.614523  0  3.986107  0
C  C41  1  0.28067752  0.85359073  0.57631416  1  0  0.707511  0  3.626476  0  0  0.634616  0  3.966947  0  0  0.662161  0  3.941181  0  0  0.299113  0.614546  0  3.986148  0
C  C42  1  0.71148543  0.28998030  0.47957596  1  0  0.297782  0  3.822691  0  0  0.273909  0  4.098359  0  0  0.298468  0  4.100226  0  0  0.117334  0.257837  0  4.096594  0
C  C43  1  0.28850390  0.71002245  0.52042134  1  0  0.297827  0  3.822224  0  0  0.273796  0  4.098142  0  0  0.297941  0  4.100959  0  0  0.117283  0.257722  0  4.09638  0
C  C44  1  0.86198007  0.35911528  0.59280743  1  0  -0.359466  0  3.765004  0  0  -0.406548  0  4.050541  0  0  -0.429921  0  4.071621  0  0  -0.158904  -0.390789  0  4.035557  0
C  C45  1  0.13801984  0.64088850  0.40719496  1  0  -0.359306  0  3.764892  0  0  -0.406327  0  4.050474  0  0  -0.430103  0  4.072676  0  0  -0.158848  -0.390567  0  4.03549  0
C  C46  1  0.87757387  0.48797973  0.65863360  1  0  0.276094  0  3.861204  0  0  0.253459  0  4.135655  0  0  0.275225  0  4.143186  0  0  0.109574  0.238812  0  4.130991  0
C  C47  1  0.12241804  0.51202809  0.34136761  1  0  0.275995  0  3.86114  0  0  0.253331  0  4.135622  0  0  0.275103  0  4.143147  0  0  0.109518  0.238678  0  4.130965  0
C  C48  1  0.05118104  0.54698290  0.78294771  1  0  0.712912  0  3.618267  0  0  0.636087  0  3.962107  0  0  0.665174  0  3.934193  0  0  0.300521  0.614846  0  3.983126  0
C  C49  1  0.94881706  0.45301884  0.21705214  1  0  0.712759  0  3.618831  0  0  0.635961  0  3.96263  0  0  0.665035  0  3.934738  0  0  0.300508  0.614715  0  3.983659  0
S  S50  1  0.34682469  0.18750019  0.98267831  1  0  0.047579  0  2.442323  0  0  0.037976  0  2.757947  0  0  0.034581  0  2.758596  0  0  0.044573  0.040576  0  2.757139  0
S  S51  1  0.65317289  0.81249950  0.01731844  1  0  0.047591  0  2.442318  0  0  0.037983  0  2.757949  0  0  0.034583  0  2.758602  0  0  0.044608  0.040583  0  2.75714  0
N  N52  1  0.45902580  0.39191131  0.65129978  1  0  -0.347615  0  3.284481  0  0  -0.265894  0  3.541133  0  0  -0.285631  0  3.558845  0  0  -0.33526  -0.252648  0  3.528944  0
N  N53  1  0.54097746  0.60808537  0.34869940  1  0  -0.34755  0  3.284469  0  0  -0.265851  0  3.541153  0  0  -0.285588  0  3.558825  0  0  -0.335264  -0.252605  0  3.528964  0
O  O54  1  0.56704257  0.32545359  0.41962942  1  0  -0.460169  0  2.070025  0  0  -0.417714  0  2.315578  0  0  -0.43931  0  2.307389  0  0  -0.273052  -0.403253  0  2.321146  0
O  O55  1  0.43295836  0.67454412  0.58037101  1  0  -0.460218  0  2.069719  0  0  -0.417714  0  2.315362  0  0  -0.439323  0  2.307247  0  0  -0.273027  -0.403248  0  2.320931  0
O  O56  1  0.76975967  0.56718731  0.63182586  1  0  -0.489238  0  2.110908  0  0  -0.441696  0  2.364033  0  0  -0.465621  0  2.356895  0  0  -0.280741  -0.42553  0  2.368878  0
O  O57  1  0.23023947  0.43281347  0.36817985  1  0  -0.489175  0  2.110612  0  0  -0.44163  0  2.363752  0  0  -0.465538  0  2.356532  0  0  -0.280698  -0.425455  0  2.368584  0
F  F58  1  0.62454213  0.11594262  0.28669833  1  0  -0.245505  0  1.195806  0  0  -0.210462  0  1.367346  0  0  -0.219352  0  1.352323  0  0  -0.092976  -0.203624  0  1.377639  0
F  F59  1  0.37546449  0.88405710  0.71330392  1  0  -0.24546  0  1.195919  0  0  -0.210375  0  1.367412  0  0  -0.219918  0  1.352863  0  0  -0.09287  -0.203536  0  1.377704  0
F  F60  1  0.65035521  0.05302624  0.48428292  1  0  -0.237584  0  1.1531  0  0  -0.204199  0  1.318313  0  0  -0.21318  0  1.303295  0  0  -0.099487  -0.197108  0  1.328365  0
F  F61  1  0.34964185  0.94697145  0.51571542  1  0  -0.23759  0  1.153113  0  0  -0.204211  0  1.318321  0  0  -0.213868  0  1.303724  0  0  -0.099474  -0.197119  0  1.328373  0
F  F62  1  0.88703080  0.12910096  0.44808966  1  0  -0.25416  0  1.162758  0  0  -0.203833  0  1.317572  0  0  -0.218972  0  1.309604  0  0  -0.094785  -0.19695  0  1.32772  0
F  F63  1  0.11297480  0.87090491  0.55192206  1  0  -0.254202  0  1.162663  0  0  -0.203876  0  1.317466  0  0  -0.213259  0  1.302718  0  0  -0.09479  -0.196993  0  1.327614  0
F  F64  1  0.15447799  0.64479293  0.75059347  1  0  -0.250763  0  1.160315  0  0  -0.209892  0  1.32309  0  0  -0.221099  0  1.309062  0  0  -0.097858  -0.199279  0  1.329912  0
F  F65  1  0.84552707  0.35520071  0.24940511  1  0  -0.250675  0  1.160409  0  0  -0.20989  0  1.323231  0  0  -0.220954  0  1.30897  0  0  -0.097884  -0.199255  0  1.330039  0
F  F66  1  0.15033483  0.45338766  0.83270426  1  0  -0.25017  0  1.221973  0  0  -0.200587  0  1.387462  0  0  -0.211183  0  1.374079  0  0  -0.083304  -0.193272  0  1.397081  0
F  F67  1  0.84965268  0.54660805  0.16729391  1  0  -0.25011  0  1.2221  0  0  -0.200469  0  1.387505  0  0  -0.211061  0  1.374134  0  0  -0.083199  -0.193157  0  1.397127  0
F  F68  1  0.01858394  0.60503701  0.88811716  1  0  -0.246095  0  1.164299  0  0  -0.203969  0  1.324989  0  0  -0.21288  0  1.308857  0  0  -0.092241  -0.197856  0  1.336571  0
F  F69  1  0.98142812  0.39497378  0.11188555  1  0  -0.24614  0  1.164518  0  0  -0.203966  0  1.325161  0  0  -0.212871  0  1.309033  0  0  -0.092293  -0.197859  0  1.336748  0
