# generated using pymatgen
data_UH19C23NO7
_symmetry_space_group_name_H-M   'P 1'
_cell_length_a   9.65830081
_cell_length_b   10.52759817
_cell_length_c   12.81573069
_cell_angle_alpha   74.85561622
_cell_angle_beta   86.64447168
_cell_angle_gamma   72.10786171
_symmetry_Int_Tables_number   1
_chemical_formula_structural   UH19C23NO7
_chemical_formula_sum   'U2 H38 C46 N2 O14'
_cell_volume   1196.66338681
_cell_formula_units_Z   2
loop_
 _symmetry_equiv_pos_site_id
 _symmetry_equiv_pos_as_xyz
  1  'x, y, z'
loop_
 _atom_site_type_symbol
 _atom_site_label
 _atom_site_symmetry_multiplicity
 _atom_site_fract_x
 _atom_site_fract_y
 _atom_site_fract_z
 _atom_site_occupancy
 _atom_site_hle17_bader_spin_density
 _atom_site_hle17_ddec_charge
 _atom_site_hle17_ddec_spin_density
 _atom_site_hle17_ddec_sum_bond_order
 _atom_site_hle17_magmom
 _atom_site_hse06_10hf_bader_spin_density
 _atom_site_hse06_10hf_ddec_charge
 _atom_site_hse06_10hf_ddec_spin_density
 _atom_site_hse06_10hf_ddec_sum_bond_order
 _atom_site_hse06_10hf_magmom
 _atom_site_hse06_bader_spin_density
 _atom_site_hse06_ddec_charge
 _atom_site_hse06_ddec_spin_density
 _atom_site_hse06_ddec_sum_bond_order
 _atom_site_hse06_magmom
 _atom_site_pbe_bader_spin_density
 _atom_site_pbe_cm5_charge
 _atom_site_pbe_ddec_charge
 _atom_site_pbe_ddec_spin_density
 _atom_site_pbe_ddec_sum_bond_order
 _atom_site_pbe_magmom
U  U0  1  0.22952039  0.29393955  0.95714892  1  0  2.468828  0  4.169848  0  0  2.534807  0  4.82785  0  0  2.647961  0  4.787509  0  0  2.180672  2.453528  0  4.859497  0
U  U1  1  0.77047639  0.70607359  0.04284468  1  0  2.469427  0  4.16916  0  0  2.534817  0  4.827551  0  0  2.648165  0  4.786937  0  0  2.180674  2.453552  0  4.859154  0
H  H2  1  0.16604521  0.07733220  0.66040372  1  0  0.09669  0  0.936  0  0  0.1102  0  0.989861  0  0  0.113495  0  0.987605  0  0  0.10583  0.107828  0  0.991496  0
H  H3  1  0.83394914  0.92267576  0.33959014  1  0  0.096733  0  0.935888  0  0  0.110205  0  0.989788  0  0  0.113502  0  0.987537  0  0  0.105843  0.107831  0  0.991427  0
H  H4  1  0.26060165  0.92731942  0.53678038  1  0  0.087276  0  0.957001  0  0  0.10112  0  1.011925  0  0  0.104035  0  1.010927  0  0  0.099156  0.099125  0  1.012622  0
H  H5  1  0.73939303  0.07268748  0.46321445  1  0  0.08737  0  0.956981  0  0  0.101173  0  1.01195  0  0  0.104111  0  1.010881  0  0  0.099171  0.099176  0  1.012649  0
H  H6  1  0.68853960  0.80553710  0.68395542  1  0  0.095289  0  0.954158  0  0  0.108567  0  1.008332  0  0  0.111647  0  1.006956  0  0  0.106891  0.10647  0  1.009224  0
H  H7  1  0.31145265  0.19446768  0.31604067  1  0  0.095263  0  0.954244  0  0  0.108606  0  1.008337  0  0  0.1117  0  1.006904  0  0  0.106902  0.106506  0  1.009236  0
H  H8  1  0.59472357  0.96197473  0.80052200  1  0  0.111917  0  0.958536  0  0  0.121856  0  1.019729  0  0  0.125532  0  1.016077  0  0  0.111695  0.119257  0  1.022309  0
H  H9  1  0.40527076  0.03803007  0.19947402  1  0  0.112049  0  0.958512  0  0  0.121977  0  1.019685  0  0  0.125651  0  1.016053  0  0  0.111808  0.119419  0  1.022216  0
H  H10  1  0.33446350  0.76879604  0.46930494  1  0  0.08182  0  0.975518  0  0  0.093497  0  1.038584  0  0  0.09636  0  1.036676  0  0  0.097521  0.091288  0  1.040287  0
H  H11  1  0.66553457  0.23120352  0.53069427  1  0  0.081796  0  0.975472  0  0  0.09348  0  1.03853  0  0  0.096342  0  1.036623  0  0  0.097518  0.091272  0  1.040233  0
H  H12  1  0.70498118  0.54120736  0.32101342  1  0  0.106327  0  0.977218  0  0  0.118667  0  1.035914  0  0  0.122175  0  1.032741  0  0  0.107194  0.116252  0  1.038302  0
H  H13  1  0.29502708  0.45878228  0.67900371  1  0  0.106351  0  0.977266  0  0  0.118656  0  1.036005  0  0  0.122161  0  1.032828  0  0  0.107192  0.116243  0  1.038389  0
H  H14  1  0.86863225  0.59002984  0.43542584  1  0  0.088514  0  0.935801  0  0  0.102324  0  0.988158  0  0  0.105132  0  0.987173  0  0  0.103113  0.100297  0  0.988831  0
H  H15  1  0.13137092  0.40997535  0.56458699  1  0  0.088517  0  0.935696  0  0  0.102335  0  0.988054  0  0  0.105169  0  0.987041  0  0  0.103154  0.100299  0  0.988738  0
H  H16  1  0.76940171  0.73479518  0.56107377  1  0  0.08416  0  0.956931  0  0  0.097177  0  1.013206  0  0  0.099755  0  1.012125  0  0  0.100774  0.09524  0  1.014322  0
H  H17  1  0.23058753  0.26523424  0.43892172  1  0  0.084083  0  0.957144  0  0  0.097088  0  1.013406  0  0  0.09967  0  1.012321  0  0  0.100765  0.095155  0  1.014521  0
H  H18  1  0.22799157  0.80690096  0.31704306  1  0  0.090268  0  0.949292  0  0  0.10331  0  1.004109  0  0  0.10619  0  1.003215  0  0  0.100342  0.101476  0  1.004406  0
H  H19  1  0.77201437  0.19309025  0.68296058  1  0  0.090341  0  0.949176  0  0  0.103329  0  1.004051  0  0  0.10621  0  1.003157  0  0  0.100338  0.101494  0  1.004354  0
H  H20  1  0.06642641  0.75512464  0.20188206  1  0  0.110761  0  0.967517  0  0  0.120152  0  1.030078  0  0  0.124137  0  1.026716  0  0  0.108899  0.117082  0  1.03282  0
H  H21  1  0.93357300  0.24487673  0.79812302  1  0  0.11068  0  0.967515  0  0  0.120107  0  1.030047  0  0  0.12409  0  1.026691  0  0  0.108905  0.117023  0  1.032802  0
H  H22  1  0.40598917  0.38810081  0.17829457  1  0  0.100298  0  0.979379  0  0  0.105043  0  1.052522  0  0  0.108814  0  1.049626  0  0  0.107587  0.10256  0  1.054155  0
H  H23  1  0.59400446  0.61190598  0.82170266  1  0  0.100346  0  0.979178  0  0  0.105028  0  1.052399  0  0  0.108797  0  1.0495  0  0  0.107594  0.102543  0  1.054038  0
H  H24  1  0.56612573  0.43524242  0.29760376  1  0  0.093389  0  0.957225  0  0  0.105563  0  1.016017  0  0  0.108048  0  1.015413  0  0  0.10458  0.103802  0  1.016561  0
H  H25  1  0.43387621  0.56475861  0.70238569  1  0  0.093429  0  0.95713  0  0  0.105605  0  1.015916  0  0  0.108091  0  1.015313  0  0  0.104614  0.103845  0  1.016462  0
H  H26  1  0.61152002  0.11857176  0.95719990  1  0  0.073573  0  0.933616  0  0  0.080979  0  0.999971  0  0  0.083005  0  0.994317  0  0  0.142085  0.079425  0  1.00404  0
H  H27  1  0.38849612  0.88139755  0.04281374  1  0  0.07353  0  0.933667  0  0  0.080889  0  1.000023  0  0  0.082915  0  0.99437  0  0  0.142076  0.079339  0  1.004093  0
H  H28  1  0.84375699  0.03710014  0.98807010  1  0  0.11332  0  0.96327  0  0  0.133781  0  1.02588  0  0  0.134495  0  1.025829  0  0  0.114585  0.133143  0  1.026211  0
H  H29  1  0.15625858  0.96288703  0.01193398  1  0  0.113281  0  0.963254  0  0  0.133689  0  1.025922  0  0  0.134397  0  1.025882  0  0  0.114605  0.133049  0  1.026255  0
H  H30  1  0.89807073  0.03553250  0.11902968  1  0  0.107747  0  0.926582  0  0  0.130019  0  0.983944  0  0  0.130552  0  0.984221  0  0  0.107589  0.129512  0  0.983949  0
H  H31  1  0.10194312  0.96445666  0.88097565  1  0  0.107555  0  0.926556  0  0  0.129843  0  0.983929  0  0  0.130383  0  0.984194  0  0  0.107505  0.12933  0  0.983928  0
H  H32  1  0.93059608  0.16017126  0.00333013  1  0  0.110637  0  0.973254  0  0  0.124939  0  1.044406  0  0  0.126043  0  1.044282  0  0  0.110703  0.123603  0  1.045459  0
H  H33  1  0.06941400  0.83981999  0.99667336  1  0  0.110555  0  0.973305  0  0  0.124859  0  1.044446  0  0  0.125964  0  1.044324  0  0  0.110679  0.123516  0  1.045512  0
H  H34  1  0.61992764  0.39184970  0.08185124  1  0  0.117377  0  0.934023  0  0  0.136451  0  0.995459  0  0  0.13771  0  0.994436  0  0  0.11683  0.135356  0  0.996332  0
H  H35  1  0.38008082  0.60814724  0.91813875  1  0  0.117495  0  0.934127  0  0  0.136493  0  0.995599  0  0  0.137759  0  0.994566  0  0  0.116865  0.1354  0  0.996472  0
H  H36  1  0.80979172  0.31534643  0.11315233  1  0  0.120125  0  0.930165  0  0  0.142882  0  0.983211  0  0  0.143796  0  0.982192  0  0  0.119754  0.142266  0  0.983834  0
H  H37  1  0.19021669  0.68464722  0.88684297  1  0  0.120076  0  0.930201  0  0  0.142818  0  0.983232  0  0  0.143733  0  0.982217  0  0  0.119719  0.142202  0  0.983852  0
H  H38  1  0.68049393  0.25162589  0.19908545  1  0  0.094691  0  0.953064  0  0  0.115954  0  1.018323  0  0  0.114779  0  1.020924  0  0  0.102287  0.116695  0  1.01641  0
H  H39  1  0.31951142  0.74837697  0.80090978  1  0  0.094788  0  0.953164  0  0  0.116023  0  1.018413  0  0  0.114848  0  1.021018  0  0  0.102307  0.116763  0  1.0165  0
C  C40  1  0.32112865  0.12405060  0.80967950  1  0  0.625397  0  3.907541  0  0  0.58561  0  4.212818  0  0  0.62234  0  4.207062  0  0  0.201318  0.560781  0  4.215118  0
C  C41  1  0.67886534  0.87595529  0.19031476  1  0  0.625157  0  3.907658  0  0  0.585456  0  4.212831  0  0  0.622181  0  4.207106  0  0  0.201245  0.560638  0  4.215119  0
C  C42  1  0.37425189  0.03085009  0.73767424  1  0  -0.07521  0  3.775215  0  0  -0.049582  0  4.002786  0  0  -0.05901  0  4.025705  0  0  -0.020155  -0.043525  0  3.987599  0
C  C43  1  0.62573591  0.96915881  0.26232044  1  0  -0.074941  0  3.775369  0  0  -0.049382  0  4.002938  0  0  -0.05879  0  4.025838  0  0  -0.020146  -0.04335  0  3.987761  0
C  C44  1  0.28076966  0.01737245  0.66437421  1  0  -0.060229  0  3.756044  0  0  -0.084708  0  4.006931  0  0  -0.082182  0  4.026045  0  0  -0.081169  -0.086277  0  3.994048  0
C  C45  1  0.71922060  0.98263878  0.33561449  1  0  -0.060263  0  3.755878  0  0  -0.084685  0  4.006732  0  0  -0.082117  0  4.02565  0  0  -0.081201  -0.08624  0  3.993837  0
C  C46  1  0.33486005  0.93164547  0.59560533  1  0  -0.126113  0  3.743852  0  0  -0.145269  0  3.997092  0  0  -0.151778  0  4.017697  0  0  -0.091833  -0.141512  0  3.982503  0
C  C47  1  0.66512812  0.06836561  0.40438659  1  0  -0.126437  0  3.743807  0  0  -0.145521  0  3.997038  0  0  -0.151117  0  4.018419  0  0  -0.091939  -0.141762  0  3.982449  0
C  C48  1  0.48327207  0.85443240  0.59872501  1  0  0.069778  0  3.752361  0  0  0.080139  0  3.988395  0  0  0.086378  0  4.007736  0  0  0.00273  0.078098  0  3.972873  0
C  C49  1  0.51671539  0.14558362  0.40127148  1  0  0.069909  0  3.752462  0  0  0.080211  0  3.988667  0  0  0.083536  0  4.01213  0  0  0.002802  0.078164  0  3.973135  0
C  C50  1  0.57429768  0.86659957  0.67520764  1  0  -0.112295  0  3.720557  0  0  -0.131924  0  3.97614  0  0  -0.138188  0  3.996179  0  0  -0.084014  -0.128374  0  3.961663  0
C  C51  1  0.42569632  0.13340936  0.32478761  1  0  -0.112156  0  3.720471  0  0  -0.131801  0  3.976051  0  0  -0.137159  0  3.996876  0  0  -0.083958  -0.128252  0  3.961579  0
C  C52  1  0.52180704  0.95418305  0.74239776  1  0  -0.046971  0  3.709393  0  0  -0.074151  0  3.959695  0  0  -0.07132  0  3.978175  0  0  -0.07393  -0.075823  0  3.94706  0
C  C53  1  0.47818142  0.04582369  0.25759964  1  0  -0.047171  0  3.709538  0  0  -0.074323  0  3.959869  0  0  -0.071456  0  3.978158  0  0  -0.074003  -0.07602  0  3.947209  0
C  C54  1  0.54301321  0.76520682  0.52433867  1  0  0.041604  0  3.785074  0  0  0.058851  0  4.018907  0  0  0.056393  0  4.044405  0  0  -0.008561  0.060215  0  4.00109  0
C  C55  1  0.45697560  0.23480200  0.47565833  1  0  0.041575  0  3.785134  0  0  0.058674  0  4.019195  0  0  0.057067  0  4.045181  0  0  -0.00859  0.060048  0  4.00137  0
C  C56  1  0.45187210  0.73285107  0.46055560  1  0  -0.137324  0  3.690449  0  0  -0.167928  0  3.939953  0  0  -0.17128  0  3.962082  0  0  -0.083537  -0.165409  0  3.925211  0
C  C57  1  0.54812049  0.26714960  0.53944045  1  0  -0.137323  0  3.69037  0  0  -0.167879  0  3.939892  0  0  -0.171162  0  3.961815  0  0  -0.083613  -0.165369  0  3.925153  0
C  C58  1  0.50696186  0.65217582  0.38723576  1  0  0.051146  0  3.772034  0  0  0.067361  0  4.0095  0  0  0.066432  0  4.034279  0  0  -0.005633  0.067632  0  3.993447  0
C  C59  1  0.49303788  0.34781835  0.61276988  1  0  0.051075  0  3.7721  0  0  0.06734  0  4.009534  0  0  0.066371  0  4.034322  0  0  -0.005609  0.067618  0  3.993483  0
C  C60  1  0.65882996  0.59937944  0.38019341  1  0  -0.09699  0  3.703008  0  0  -0.123829  0  3.954687  0  0  -0.125831  0  3.974952  0  0  -0.082429  -0.122942  0  3.941861  0
C  C61  1  0.34117112  0.40061658  0.61981730  1  0  -0.097186  0  3.703218  0  0  -0.124003  0  3.954882  0  0  -0.125984  0  3.975165  0  0  -0.08251  -0.123117  0  3.942057  0
C  C62  1  0.75105326  0.62833928  0.44394646  1  0  -0.06359  0  3.793062  0  0  -0.076613  0  4.049794  0  0  -0.078854  0  4.071993  0  0  -0.090695  -0.074636  0  4.034599  0
C  C63  1  0.24894169  0.37166920  0.55605978  1  0  -0.063387  0  3.792611  0  0  -0.076427  0  4.049319  0  0  -0.078702  0  4.071534  0  0  -0.090628  -0.07444  0  4.034135  0
C  C64  1  0.69440765  0.71075358  0.51466943  1  0  -0.093815  0  3.739264  0  0  -0.11827  0  3.991983  0  0  -0.12093  0  4.015242  0  0  -0.084861  -0.116941  0  3.9765  0
C  C65  1  0.30558048  0.28926334  0.48532999  1  0  -0.093743  0  3.739012  0  0  -0.118102  0  3.991711  0  0  -0.120715  0  4.014778  0  0  -0.084835  -0.116776  0  3.97623  0
C  C66  1  0.40931540  0.62389777  0.31765819  1  0  0.084488  0  3.735837  0  0  0.093384  0  3.971094  0  0  0.096296  0  3.994671  0  0  0.009163  0.091815  0  3.954872  0
C  C67  1  0.59069053  0.37609638  0.68234880  1  0  0.084488  0  3.735752  0  0  0.093314  0  3.971079  0  0  0.096248  0  3.994646  0  0  0.009152  0.09174  0  3.954857  0
C  C68  1  0.26704049  0.71296439  0.28904084  1  0  -0.121375  0  3.732152  0  0  -0.137543  0  3.978693  0  0  -0.143472  0  4.001055  0  0  -0.089447  -0.133102  0  3.962629  0
C  C69  1  0.73296681  0.28702878  0.71096551  1  0  -0.121383  0  3.732069  0  0  -0.137465  0  3.978632  0  0  -0.143399  0  4.000995  0  0  -0.089345  -0.133025  0  3.962564  0
C  C70  1  0.17644450  0.68583739  0.22285834  1  0  -0.059574  0  3.731102  0  0  -0.083771  0  3.978428  0  0  -0.081788  0  3.998675  0  0  -0.080286  -0.084808  0  3.964576  0
C  C71  1  0.82355214  0.31415975  0.77714917  1  0  -0.059474  0  3.731162  0  0  -0.083703  0  3.97847  0  0  -0.081722  0  3.998726  0  0  -0.080321  -0.084735  0  3.964616  0
C  C72  1  0.22671173  0.56801240  0.18256312  1  0  -0.0936  0  3.768622  0  0  -0.075308  0  3.997424  0  0  -0.087125  0  4.021677  0  0  -0.022151  -0.067273  0  3.981126  0
C  C73  1  0.77328908  0.43198501  0.81743875  1  0  -0.09358  0  3.768736  0  0  -0.075275  0  3.99754  0  0  -0.087096  0  4.02179  0  0  -0.022141  -0.067238  0  3.981232  0
C  C74  1  0.36803579  0.47885175  0.21013183  1  0  -0.058344  0  3.732545  0  0  -0.084719  0  3.986292  0  0  -0.082534  0  4.006181  0  0  -0.08  -0.086192  0  3.972811  0
C  C75  1  0.63196844  0.52114459  0.78987169  1  0  -0.058318  0  3.732609  0  0  -0.084634  0  3.986338  0  0  -0.082449  0  4.006223  0  0  -0.079942  -0.086107  0  3.972849  0
C  C76  1  0.45740441  0.50664602  0.27635454  1  0  -0.099765  0  3.716663  0  0  -0.119699  0  3.969011  0  0  -0.124936  0  3.991143  0  0  -0.080214  -0.116549  0  3.954294  0
C  C77  1  0.54260366  0.49335768  0.72364592  1  0  -0.099906  0  3.716776  0  0  -0.11981  0  3.969125  0  0  -0.125059  0  3.991258  0  0  -0.080337  -0.11666  0  3.954413  0
C  C78  1  0.13570396  0.53816333  0.10857005  1  0  0.716023  0  3.81368  0  0  0.691343  0  4.090075  0  0  0.734125  0  4.074085  0  0  0.258242  0.661638  0  4.100096  0
C  C79  1  0.86429342  0.46183518  0.89142938  1  0  0.716033  0  3.813584  0  0  0.691311  0  4.090046  0  0  0.7341  0  4.074045  0  0  0.258198  0.661604  0  4.100064  0
C  C80  1  0.59509006  0.19394574  0.00558167  1  0  0.41248  0  3.742575  0  0  0.344291  0  4.032572  0  0  0.375206  0  4.031426  0  0  0.196449  0.32314  0  4.032619  0
C  C81  1  0.40492339  0.80602898  0.99442480  1  0  0.412407  0  3.742786  0  0  0.344412  0  4.032556  0  0  0.375331  0  4.031411  0  0  0.196607  0.323245  0  4.032622  0
C  C82  1  0.85528960  0.10210122  0.03916422  1  0  -0.191892  0  3.64353  0  0  -0.294709  0  3.894766  0  0  -0.292169  0  3.907085  0  0  -0.131507  -0.296194  0  3.886718  0
C  C83  1  0.14472289  0.89788906  0.96083860  1  0  -0.191755  0  3.643145  0  0  -0.294507  0  3.894354  0  0  -0.291979  0  3.906687  0  0  -0.131477  -0.295986  0  3.886301  0
C  C84  1  0.70517793  0.29500746  0.11488818  1  0  -0.168879  0  3.615633  0  0  -0.267906  0  3.856622  0  0  -0.262862  0  3.86564  0  0  -0.129047  -0.27096  0  3.850129  0
C  C85  1  0.29483183  0.70498500  0.88511119  1  0  -0.169173  0  3.6159  0  0  -0.268033  0  3.856806  0  0  -0.263002  0  3.865824  0  0  -0.129024  -0.271088  0  3.850312  0
N  N86  1  0.71339763  0.19805098  0.05016744  1  0  -0.070257  0  3.513135  0  0  0.032849  0  3.744096  0  0  0.011207  0  3.771235  0  0  -0.26848  0.047655  0  3.725237  0
N  N87  1  0.28661520  0.80193526  0.94983378  1  0  -0.0698  0  3.512653  0  0  0.033163  0  3.743577  0  0  0.011524  0  3.770711  0  0  -0.268523  0.047974  0  3.724716  0
O  O88  1  0.18540702  0.18736644  0.81567555  1  0  -0.644918  0  1.974823  0  0  -0.629327  0  2.234421  0  0  -0.661837  0  2.230988  0  0  -0.347447  -0.605882  0  2.23562  0
O  O89  1  0.81458906  0.81264261  0.18431727  1  0  -0.644915  0  1.974918  0  0  -0.629254  0  2.234402  0  0  -0.661795  0  2.231001  0  0  -0.347411  -0.60581  0  2.235594  0
O  O90  1  0.41240616  0.14130366  0.86962832  1  0  -0.643144  0  2.010906  0  0  -0.625706  0  2.273888  0  0  -0.659907  0  2.271975  0  0  -0.351689  -0.60084  0  2.273838  0
O  O91  1  0.58758326  0.85869054  0.13037451  1  0  -0.643186  0  2.011045  0  0  -0.625708  0  2.273966  0  0  -0.659928  0  2.272059  0  0  -0.351663  -0.600847  0  2.273919  0
O  O92  1  0.01922615  0.63215002  0.06714101  1  0  -0.677326  0  2.121897  0  0  -0.666598  0  2.404413  0  0  -0.702834  0  2.394747  0  0  -0.379221  -0.639885  0  2.409926  0
O  O93  1  0.98077366  0.36784761  0.93285539  1  0  -0.677252  0  2.121785  0  0  -0.666552  0  2.404287  0  0  -0.702758  0  2.394621  0  0  -0.379193  -0.639843  0  2.409807  0
O  O94  1  0.17807575  0.42106264  0.08636546  1  0  -0.669274  0  2.065708  0  0  -0.65607  0  2.333018  0  0  -0.691038  0  2.322348  0  0  -0.370247  -0.630434  0  2.339285  0
O  O95  1  0.82193059  0.57893696  0.91363426  1  0  -0.669344  0  2.065643  0  0  -0.656086  0  2.332999  0  0  -0.691087  0  2.322315  0  0  -0.370235  -0.630451  0  2.339261  0
O  O96  1  0.23548343  0.44634890  0.85318046  1  0  -0.721345  0  1.569796  0  0  -0.724981  0  1.850946  0  0  -0.746379  0  1.838008  0  0  -0.760377  -0.711633  0  1.860834  0
O  O97  1  0.76450772  0.55365851  0.14682610  1  0  -0.721588  0  1.569122  0  0  -0.725092  0  1.850311  0  0  -0.746544  0  1.837346  0  0  -0.760324  -0.711747  0  1.860192  0
O  O98  1  0.21726785  0.14247708  0.06080693  1  0  -0.734783  0  1.526752  0  0  -0.735324  0  1.799322  0  0  -0.755824  0  1.783615  0  0  -0.764865  -0.722497  0  1.811829  0
O  O99  1  0.78272205  0.85752904  0.93918117  1  0  -0.734862  0  1.526775  0  0  -0.735253  0  1.799431  0  0  -0.755795  0  1.783682  0  0  -0.764879  -0.722422  0  1.811907  0
O  O100  1  0.46875056  0.27153171  0.01704365  1  0  -0.586958  0  2.111429  0  0  -0.567248  0  2.396107  0  0  -0.600019  0  2.393081  0  0  -0.354238  -0.543557  0  2.397537  0
O  O101  1  0.53125913  0.72844515  0.98296020  1  0  -0.587118  0  2.111926  0  0  -0.56734  0  2.396404  0  0  -0.600142  0  2.393381  0  0  -0.354343  -0.54364  0  2.397833  0
