# generated using pymatgen
data_ZnH12C24(NO3)2
_symmetry_space_group_name_H-M   'P 1'
_cell_length_a   13.07482056
_cell_length_b   13.12989694
_cell_length_c   22.34590193
_cell_angle_alpha   90.00014573
_cell_angle_beta   90.00001771
_cell_angle_gamma   111.33155082
_symmetry_Int_Tables_number   1
_chemical_formula_structural   ZnH12C24(NO3)2
_chemical_formula_sum   'Zn4 H48 C96 N8 O24'
_cell_volume   3573.33416880
_cell_formula_units_Z   4
loop_
 _symmetry_equiv_pos_site_id
 _symmetry_equiv_pos_as_xyz
  1  'x, y, z'
loop_
 _atom_site_type_symbol
 _atom_site_label
 _atom_site_symmetry_multiplicity
 _atom_site_fract_x
 _atom_site_fract_y
 _atom_site_fract_z
 _atom_site_occupancy
 _atom_site_pbe_bader_charge
 _atom_site_pbe_bader_spin_density
 _atom_site_pbe_cm5_charge
 _atom_site_pbe_ddec_charge
 _atom_site_pbe_ddec_spin_density
 _atom_site_pbe_ddec_sum_bond_order
 _atom_site_pbe_magmom
Zn  Zn0  1  0.14711295  0.24679167  0.78873632  1  1.290747  0  0.670643  0.825264  0  2.430509  0
Zn  Zn1  1  0.13180214  0.26248531  0.91564014  1  1.285479  0  0.6707  0.824389  0  2.426274  0
Zn  Zn2  1  0.85289015  0.75320663  0.28873770  1  1.290768  0  0.670674  0.825263  0  2.430503  0
Zn  Zn3  1  0.86819741  0.73751359  0.41564150  1  1.285704  0  0.670763  0.824493  0  2.426189  0
H  H4  1  0.30539154  0.35414327  0.69359727  1  0.097185  0  0.129772  0.104176  0  0.968051  0
H  H5  1  0.30992865  0.35851448  0.58075242  1  0.116012  0  0.121987  0.137883  0  0.967156  0
H  H6  1  0.98931339  0.10153236  0.58295986  1  0.127665  0  0.123341  0.141962  0  0.96981  0
H  H7  1  0.99734755  0.10853846  0.69474322  1  0.175489  0  0.12501  0.105874  0  1.009063  0
H  H8  1  0.14039338  0.98268118  0.40182834  1  0.149523  0  0.117232  0.126584  0  0.999363  0
H  H9  1  0.13366328  0.98866994  0.28972725  1  0.148277  0  0.116402  0.124533  0  1.002926  0
H  H10  1  0.13988441  0.50489027  0.30268363  1  0.14082  0  0.116872  0.121251  0  0.995852  0
H  H11  1  0.14442339  0.49776248  0.41511811  1  0.135844  0  0.116263  0.120333  0  0.99611  0
H  H12  1  0.46760759  0.31839314  0.96310081  1  0.062158  0  0.10091  0.104367  0  1.009693  0
H  H13  1  0.65154969  0.30317351  0.97555858  1  0.06319  0  0.103139  0.106181  0  0.991184  0
H  H14  1  0.80941773  0.26499814  0.93045186  1  0.095361  0  0.106496  0.114979  0  0.999982  0
H  H15  1  0.82541929  0.22853526  0.74018116  1  0.084397  0  0.106156  0.114635  0  0.996565  0
H  H16  1  0.64742831  0.25626729  0.72739090  1  0.040883  0  0.103614  0.10517  0  0.990147  0
H  H17  1  0.48311992  0.27964621  0.77313888  1  0.074377  0  0.10368  0.109326  0  1.008297  0
H  H18  1  0.12462713  0.94292740  0.96655289  1  0.084143  0  0.10198  0.109072  0  1.004815  0
H  H19  1  0.13274852  0.75579526  0.97682085  1  0.075297  0  0.103282  0.107805  0  0.988084  0
H  H20  1  0.14266677  0.58805969  0.92870362  1  0.123077  0  0.107623  0.117965  0  0.998181  0
H  H21  1  0.15555256  0.56720139  0.73750390  1  0.107812  0  0.108276  0.117367  0  0.99177  0
H  H22  1  0.14753054  0.75378067  0.72730485  1  0.059494  0  0.100271  0.101772  0  0.995652  0
H  H23  1  0.13788237  0.92210850  0.77555275  1  0.098671  0  0.103471  0.111434  0  1.00481  0
H  H24  1  0.28141081  0.38272765  0.01165256  1  0.133722  0  0.129594  0.104404  0  0.972065  0
H  H25  1  0.28862005  0.38008834  0.12438867  1  0.085015  0  0.121877  0.13746  0  0.966505  0
H  H26  1  0.96378480  0.13030847  0.12128730  1  0.119129  0  0.123145  0.140396  0  0.96875  0
H  H27  1  0.96970598  0.14360134  0.00933524  1  0.15444  0  0.127734  0.109537  0  0.991158  0
H  H28  1  0.69460996  0.64585939  0.19359801  1  0.097283  0  0.129768  0.104151  0  0.96801  0
H  H29  1  0.69007006  0.64148917  0.08075316  1  0.116108  0  0.121954  0.137822  0  0.967187  0
H  H30  1  0.01068864  0.89846324  0.08296175  1  0.127603  0  0.123361  0.141984  0  0.969717  0
H  H31  1  0.00265734  0.89145858  0.19474555  1  0.175388  0  0.125021  0.105971  0  1.009001  0
H  H32  1  0.85960460  0.01731761  0.90182988  1  0.149518  0  0.117226  0.126544  0  0.999383  0
H  H33  1  0.86633653  0.01132994  0.78972923  1  0.14827  0  0.116426  0.124558  0  1.002937  0
H  H34  1  0.86012225  0.49511386  0.80268454  1  0.140865  0  0.116852  0.121242  0  0.995831  0
H  H35  1  0.85558067  0.50224056  0.91511859  1  0.135891  0  0.116279  0.120384  0  0.996103  0
H  H36  1  0.53239473  0.68161580  0.46309934  1  0.061756  0  0.100911  0.104338  0  1.009708  0
H  H37  1  0.34844989  0.69682976  0.47555531  1  0.063252  0  0.103123  0.106176  0  0.991089  0
H  H38  1  0.19058485  0.73499846  0.43045041  1  0.09509  0  0.10647  0.114973  0  0.999983  0
H  H39  1  0.17457448  0.77145613  0.24018110  1  0.084304  0  0.10616  0.11462  0  0.996618  0
H  H40  1  0.35256588  0.74372972  0.22738814  1  0.041115  0  0.103593  0.10514  0  0.990177  0
H  H41  1  0.51687960  0.72034627  0.27313657  1  0.074312  0  0.1037  0.109332  0  1.008312  0
H  H42  1  0.87537794  0.05707186  0.46655323  1  0.084207  0  0.101932  0.10903  0  1.00484  0
H  H43  1  0.86725292  0.24420236  0.47682237  1  0.075828  0  0.103267  0.10781  0  0.98816  0
H  H44  1  0.85733618  0.41194015  0.42870674  1  0.123011  0  0.107612  0.11796  0  0.998131  0
H  H45  1  0.84445078  0.43279990  0.23750704  1  0.107868  0  0.108254  0.11735  0  0.991756  0
H  H46  1  0.85246751  0.24621641  0.22730682  1  0.059549  0  0.10028  0.10178  0  0.995692  0
H  H47  1  0.86211645  0.07789291  0.27555447  1  0.098677  0  0.103502  0.111457  0  1.004825  0
H  H48  1  0.71859024  0.61727406  0.51165497  1  0.133793  0  0.129583  0.104417  0  0.972008  0
H  H49  1  0.71138530  0.61991891  0.62439063  1  0.085107  0  0.121872  0.137391  0  0.966527  0
H  H50  1  0.03621786  0.86969546  0.62128683  1  0.119061  0  0.123106  0.140355  0  0.968747  0
H  H51  1  0.03029555  0.85639956  0.50933475  1  0.154421  0  0.127743  0.109537  0  0.991139  0
C  C52  1  0.35102363  0.29879100  0.86066411  1  1.563069  0  0.212554  0.591573  0  4.171844  0
C  C53  1  0.12374113  0.05239557  0.86390745  1  1.575661  0  0.209736  0.581919  0  4.195194  0
C  C54  1  0.93148197  0.22505839  0.84367665  1  1.570133  0  0.210306  0.576675  0  4.190328  0
C  C55  1  0.15591900  0.45706996  0.83999644  1  1.571587  0  0.213329  0.590242  0  4.176797  0
C  C56  1  0.23753436  0.30018768  0.66685048  1  0.51955  0  0.062628  0.112707  0  3.918728  0
C  C57  1  0.23978067  0.30198057  0.60472232  1  0.027864  0  -0.072505  -0.194459  0  3.943588  0
C  C58  1  0.14916574  0.23093601  0.57390900  1  0.267136  0  0.115111  0.238409  0  4.009972  0
C  C59  1  0.06062708  0.15897530  0.60567583  1  0.095955  0  -0.068288  -0.189297  0  3.917499  0
C  C60  1  0.06484963  0.16251916  0.66787337  1  0.428823  0  0.062027  0.117167  0  3.889181  0
C  C61  1  0.14457653  0.13937362  0.47858407  1  1.33706  0  0.250444  0.446933  0  4.078804  0
C  C62  1  0.14424157  0.14627069  0.41256347  1  -0.087873  0  -0.001076  -0.064162  0  3.97805  0
C  C63  1  0.14208871  0.05650425  0.37889503  1  -0.002893  0  -0.056203  -0.050463  0  3.881647  0
C  C64  1  0.13814881  0.05984076  0.31617347  1  0.026097  0  -0.056026  -0.050188  0  3.884797  0
C  C65  1  0.13636077  0.15288601  0.28720536  1  -0.068844  0  -0.00201  -0.063829  0  3.978838  0
C  C66  1  0.12891107  0.15318025  0.22126665  1  1.360503  0  0.249783  0.450349  0  4.080558  0
C  C67  1  0.13441897  0.34749270  0.22611153  1  1.318993  0  0.245701  0.441676  0  4.092348  0
C  C68  1  0.13895505  0.34227985  0.29203100  1  0.00609  0  -0.002678  -0.065924  0  3.982814  0
C  C69  1  0.14116077  0.43217154  0.32571733  1  0.076691  0  -0.054486  -0.052148  0  3.90013  0
C  C70  1  0.14395690  0.42826218  0.38836685  1  -0.089701  0  -0.055685  -0.057711  0  3.910929  0
C  C71  1  0.14537901  0.33497049  0.41733943  1  0.068032  0  -0.003334  -0.067371  0  3.989491  0
C  C72  1  0.14710703  0.33252096  0.48337525  1  1.258406  0  0.246354  0.440151  0  4.090259  0
C  C73  1  0.14413217  0.24271381  0.38407778  1  0.055075  0  0.008455  0.037925  0  3.989969  0
C  C74  1  0.14026120  0.24622378  0.32043882  1  -0.026055  0  0.006554  0.032206  0  3.992923  0
C  C75  1  0.46567459  0.29994631  0.86697982  1  -0.048509  0  -0.019501  -0.027359  0  3.976209  0
C  C76  1  0.51381465  0.30755028  0.92461053  1  -0.008976  0  -0.090833  -0.100006  0  4.005745  0
C  C77  1  0.61475709  0.29833767  0.93128155  1  -0.036491  0  -0.090645  -0.136564  0  4.000869  0
C  C78  1  0.67209103  0.27978654  0.88086425  1  -0.003534  0  -0.007896  0.073645  0  4.004897  0
C  C79  1  0.77258439  0.26299278  0.88643887  1  -0.049845  0  -0.080061  -0.14128  0  3.934196  0
C  C80  1  0.82535611  0.24286032  0.83658632  1  -0.045798  0  -0.022414  -0.036116  0  3.990078  0
C  C81  1  0.78044949  0.24184834  0.77858060  1  -0.031202  0  -0.089457  -0.101322  0  3.999583  0
C  C82  1  0.68268018  0.25766643  0.77179725  1  -0.021834  0  -0.088696  -0.132022  0  3.999956  0
C  C83  1  0.62510387  0.27540654  0.82230719  1  -0.025807  0  -0.00555  0.075562  0  4.004236  0
C  C84  1  0.52164095  0.28597222  0.81696796  1  -0.023263  0  -0.080316  -0.138307  0  3.935164  0
C  C85  1  0.12939257  0.94117261  0.86999379  1  -0.058669  0  -0.02152  -0.031447  0  3.989921  0
C  C86  1  0.12870545  0.89489667  0.92747052  1  -0.027015  0  -0.093761  -0.108297  0  4.014676  0
C  C87  1  0.13344338  0.79230414  0.93283921  1  -0.062669  0  -0.093058  -0.140281  0  4.003187  0
C  C88  1  0.13981132  0.73155039  0.88120196  1  -0.022589  0  -0.006584  0.080295  0  4.002974  0
C  C89  1  0.14444249  0.62603121  0.88514578  1  -0.066888  0  -0.078656  -0.139648  0  3.933638  0
C  C90  1  0.15122706  0.56892136  0.83414220  1  -0.103241  0  -0.016735  -0.02558  0  3.973867  0
C  C91  1  0.15182276  0.61508432  0.77667935  1  0.005101  0  -0.084051  -0.090814  0  3.984783  0
C  C92  1  0.14698934  0.71767507  0.77139747  1  -0.055323  0  -0.092029  -0.137093  0  4.006128  0
C  C93  1  0.14138692  0.77866730  0.82301593  1  0.042929  0  -0.009088  0.0687  0  4.014258  0
C  C94  1  0.13622531  0.88403199  0.81909717  1  -0.072812  0  -0.081502  -0.139464  0  3.945871  0
C  C95  1  0.21279333  0.32950681  0.03820280  1  0.484147  0  0.062189  0.112313  0  3.917367  0
C  C96  1  0.21661736  0.32715168  0.10025399  1  0.075152  0  -0.07066  -0.191569  0  3.939661  0
C  C97  1  0.12614527  0.25524904  0.13079465  1  0.347211  0  0.114367  0.242098  0  4.010194  0
C  C98  1  0.03522328  0.18799078  0.09875561  1  0.069917  0  -0.069932  -0.19284  0  3.922489  0
C  C99  1  0.03800002  0.19526036  0.03661313  1  0.435911  0  0.06547  0.120135  0  3.885387  0
C  C100  1  0.64897530  0.70120841  0.36066358  1  1.563074  0  0.212587  0.591653  0  4.171721  0
C  C101  1  0.87625704  0.94760385  0.36390734  1  1.575763  0  0.209798  0.582049  0  4.195243  0
C  C102  1  0.06851684  0.77493850  0.34367613  1  1.570118  0  0.210355  0.576804  0  4.190302  0
C  C103  1  0.84407903  0.54292689  0.34000287  1  1.571923  0  0.213181  0.590009  0  4.177625  0
C  C104  1  0.76246678  0.69981403  0.16685177  1  0.519446  0  0.062649  0.112739  0  3.918506  0
C  C105  1  0.76021956  0.69802080  0.10472315  1  0.027841  0  -0.072509  -0.194444  0  3.943505  0
C  C106  1  0.85083567  0.76906441  0.07390996  1  0.266859  0  0.115098  0.238433  0  4.00984  0
C  C107  1  0.93937287  0.84102525  0.10567781  1  0.096345  0  -0.068254  -0.18928  0  3.917307  0
C  C108  1  0.93515374  0.83748015  0.16787534  1  0.428805  0  0.061972  0.117045  0  3.889165  0
C  C109  1  0.85542066  0.86062719  0.97858463  1  1.337145  0  0.250438  0.446972  0  4.078895  0
C  C110  1  0.85575575  0.85373059  0.91256447  1  -0.088128  0  -0.001058  -0.064222  0  3.978032  0
C  C111  1  0.85791084  0.94349689  0.87889572  1  -0.002951  0  -0.05617  -0.050307  0  3.881483  0
C  C112  1  0.86184742  0.94015756  0.81617370  1  0.026069  0  -0.056072  -0.050287  0  3.884858  0
C  C113  1  0.86363596  0.84711379  0.78720635  1  -0.068831  0  -0.002065  -0.063919  0  3.978966  0
C  C114  1  0.87108867  0.84682171  0.72126764  1  1.36005  0  0.249792  0.450348  0  4.080793  0
C  C115  1  0.86558520  0.65251099  0.72611223  1  1.318864  0  0.24576  0.441651  0  4.092323  0
C  C116  1  0.86104583  0.65772087  0.79203170  1  0.006133  0  -0.002669  -0.065924  0  3.982625  0
C  C117  1  0.85884201  0.56783020  0.82571790  1  0.076677  0  -0.054502  -0.052143  0  3.900109  0
C  C118  1  0.85604555  0.57174069  0.88836698  1  -0.089709  0  -0.055701  -0.057824  0  3.911021  0
C  C119  1  0.85461881  0.66503001  0.91734059  1  0.068033  0  -0.003365  -0.067321  0  3.989322  0
C  C120  1  0.85289305  0.66748155  0.98337642  1  1.258348  0  0.246474  0.440329  0  4.090006  0
C  C121  1  0.85586767  0.75728818  0.88407908  1  0.055351  0  0.008384  0.037757  0  3.989983  0
C  C122  1  0.85973561  0.75377620  0.82044012  1  -0.026073  0  0.006612  0.032371  0  3.992704  0
C  C123  1  0.53432407  0.70005232  0.36697882  1  -0.048586  0  -0.01949  -0.027409  0  3.976319  0
C  C124  1  0.48618501  0.69245110  0.42460817  1  -0.008469  0  -0.090836  -0.099893  0  4.0058  0
C  C125  1  0.38524153  0.70166292  0.43127874  1  -0.036567  0  -0.090691  -0.136695  0  4.000885  0
C  C126  1  0.32790863  0.72021056  0.38086145  1  -0.003311  0  -0.007857  0.073714  0  4.004872  0
C  C127  1  0.22741395  0.73700269  0.38643742  1  -0.04967  0  -0.080049  -0.141267  0  3.934092  0
C  C128  1  0.17464191  0.75713651  0.33658624  1  -0.04579  0  -0.022382  -0.036142  0  3.9902  0
C  C129  1  0.21954705  0.75814655  0.27857963  1  -0.030963  0  -0.089481  -0.101338  0  3.999639  0
C  C130  1  0.31731749  0.74233169  0.27179494  1  -0.022273  0  -0.088647  -0.13193  0  4.000015  0
C  C131  1  0.37489269  0.72458614  0.32230442  1  -0.025987  0  -0.005591  0.075472  0  4.004228  0
C  C132  1  0.47835666  0.71402126  0.31696608  1  -0.023116  0  -0.080302  -0.138249  0  3.934993  0
C  C133  1  0.87060476  0.05882438  0.36999548  1  -0.059096  0  -0.021475  -0.031399  0  3.989908  0
C  C134  1  0.87129433  0.10510067  0.42747138  1  -0.027034  0  -0.093721  -0.108301  0  4.0148  0
C  C135  1  0.86655487  0.20769320  0.43284112  1  -0.063247  0  -0.093021  -0.140232  0  4.003357  0
C  C136  1  0.86018478  0.26844745  0.38120351  1  -0.022527  0  -0.006573  0.08021  0  4.003235  0
C  C137  1  0.85555613  0.37396508  0.38514838  1  -0.066865  0  -0.078629  -0.139663  0  3.93383  0
C  C138  1  0.84877229  0.43107711  0.33414668  1  -0.102937  0  -0.016774  -0.025394  0  3.973922  0
C  C139  1  0.84817703  0.38491548  0.27668152  1  0.005281  0  -0.084062  -0.090959  0  3.984895  0
C  C140  1  0.85301254  0.28232637  0.27139994  1  -0.055973  0  -0.092067  -0.137133  0  4.006335  0
C  C141  1  0.85860932  0.22133106  0.32301786  1  0.043116  0  -0.009088  0.068808  0  4.014262  0
C  C142  1  0.86377198  0.11596717  0.31909850  1  -0.072511  0  -0.081473  -0.139437  0  3.945691  0
C  C143  1  0.78720961  0.67049589  0.53820306  1  0.484047  0  0.062143  0.112201  0  3.917304  0
C  C144  1  0.78338728  0.67285137  0.60025516  1  0.075012  0  -0.070535  -0.191357  0  3.939613  0
C  C145  1  0.87385896  0.74475498  0.63079505  1  0.347097  0  0.114335  0.242055  0  4.010203  0
C  C146  1  0.96477856  0.81201302  0.59875657  1  0.069893  0  -0.069954  -0.19288  0  3.922544  0
C  C147  1  0.96200264  0.80474151  0.53661407  1  0.435913  0  0.065475  0.120157  0  3.885427  0
N  N148  1  0.15130223  0.23240733  0.69769814  1  -1.262328  0  -0.320085  -0.203175  0  3.522487  0
N  N149  1  0.14720997  0.23406595  0.50976032  1  -1.17115  0  -0.231896  -0.2232  0  3.546316  0
N  N150  1  0.12821928  0.25092740  0.19495630  1  -1.239357  0  -0.23128  -0.237467  0  3.559864  0
N  N151  1  0.12506924  0.26497554  0.00712769  1  -1.252035  0  -0.319626  -0.20192  0  3.518862  0
N  N152  1  0.84870045  0.76759213  0.19769954  1  -1.262341  0  -0.320076  -0.203142  0  3.522451  0
N  N153  1  0.85278849  0.76593489  0.00976083  1  -1.17112  0  -0.231924  -0.223276  0  3.546318  0
N  N154  1  0.87178607  0.74907534  0.69495760  1  -1.239091  0  -0.231393  -0.237505  0  3.559914  0
N  N155  1  0.87493343  0.73502862  0.50712941  1  -1.251924  0  -0.319596  -0.201856  0  3.518822  0
O  O156  1  0.31160934  0.28955772  0.80789111  1  -1.16976  0  -0.321688  -0.555147  0  2.32966  0
O  O157  1  0.30050079  0.30327668  0.90878165  1  -1.171662  0  -0.319165  -0.555152  0  2.326752  0
O  O158  1  0.12589613  0.08923954  0.81099531  1  -1.168284  0  -0.318368  -0.551059  0  2.353187  0
O  O159  1  0.11734024  0.10144766  0.91207336  1  -1.164029  0  -0.314751  -0.544152  0  2.341737  0
O  O160  1  0.97955891  0.21394022  0.79582313  1  -1.174041  0  -0.315904  -0.554307  0  2.343585  0
O  O161  1  0.96636221  0.22269266  0.89679243  1  -1.169981  0  -0.319883  -0.556186  0  2.333108  0
O  O162  1  0.16422926  0.40896321  0.79182247  1  -1.161911  0  -0.31693  -0.543388  0  2.318808  0
O  O163  1  0.14950423  0.41859509  0.89281012  1  -1.161048  0  -0.321245  -0.550573  0  2.33662  0
O  O164  1  0.14359483  0.05797761  0.50622039  1  -1.10546  0  -0.269136  -0.438227  0  2.10063  0
O  O165  1  0.12445715  0.07494838  0.18960351  1  -1.113345  0  -0.268736  -0.439446  0  2.113415  0
O  O166  1  0.13522057  0.42834606  0.19829262  1  -1.096729  0  -0.267995  -0.424966  0  2.07963  0
O  O167  1  0.14784774  0.40922391  0.51504375  1  -1.094353  0  -0.272559  -0.430881  0  2.07443  0
O  O168  1  0.68839052  0.71044225  0.30789061  1  -1.169758  0  -0.321711  -0.555187  0  2.329598  0
O  O169  1  0.69949874  0.69672218  0.40878203  1  -1.17164  0  -0.319165  -0.555165  0  2.326666  0
O  O170  1  0.87410277  0.91076206  0.31099470  1  -1.168312  0  -0.318386  -0.551115  0  2.353141  0
O  O171  1  0.88265950  0.89854960  0.41207139  1  -1.164114  0  -0.314826  -0.544263  0  2.341827  0
O  O172  1  0.02044007  0.78605723  0.29582351  1  -1.174091  0  -0.315919  -0.554315  0  2.343638  0
O  O173  1  0.03363632  0.77730775  0.39679191  1  -1.170146  0  -0.319941  -0.556313  0  2.333022  0
O  O174  1  0.83576971  0.59103422  0.29182942  1  -1.162033  0  -0.316864  -0.543359  0  2.319106  0
O  O175  1  0.85049279  0.58139877  0.39281661  1  -1.161299  0  -0.321188  -0.550462  0  2.336954  0
O  O176  1  0.85639929  0.94202395  0.00622251  1  -1.105598  0  -0.269147  -0.438244  0  2.100752  0
O  O177  1  0.87554020  0.92505337  0.68960552  1  -1.112906  0  -0.268692  -0.439388  0  2.113478  0
O  O178  1  0.86478276  0.57165748  0.69829186  1  -1.096655  0  -0.268013  -0.424963  0  2.079662  0
O  O179  1  0.85215726  0.59078033  0.01504355  1  -1.094299  0  -0.272576  -0.430943  0  2.074387  0
