# generated using pymatgen
data_CoH16C23N4O5
_symmetry_space_group_name_H-M   'P 1'
_cell_length_a   9.43418618
_cell_length_b   10.56311679
_cell_length_c   12.20116728
_cell_angle_alpha   107.83540225
_cell_angle_beta   103.75803583
_cell_angle_gamma   106.98759982
_symmetry_Int_Tables_number   1
_chemical_formula_structural   CoH16C23N4O5
_chemical_formula_sum   'Co2 H32 C46 N8 O10'
_cell_volume   1032.94823789
_cell_formula_units_Z   2
loop_
 _symmetry_equiv_pos_site_id
 _symmetry_equiv_pos_as_xyz
  1  'x, y, z'
loop_
 _atom_site_type_symbol
 _atom_site_label
 _atom_site_symmetry_multiplicity
 _atom_site_fract_x
 _atom_site_fract_y
 _atom_site_fract_z
 _atom_site_occupancy
 _atom_site_hle17_ddec_charge
 _atom_site_hle17_ddec_spin_density
 _atom_site_hle17_ddec_sum_bond_order
 _atom_site_hle17_magmom
 _atom_site_hse06_10hf_ddec_charge
 _atom_site_hse06_10hf_ddec_spin_density
 _atom_site_hse06_10hf_ddec_sum_bond_order
 _atom_site_hse06_10hf_magmom
 _atom_site_hse06_ddec_charge
 _atom_site_hse06_ddec_spin_density
 _atom_site_hse06_ddec_sum_bond_order
 _atom_site_hse06_magmom
 _atom_site_pbe_cm5_charge
 _atom_site_pbe_ddec_charge
 _atom_site_pbe_ddec_spin_density
 _atom_site_pbe_ddec_sum_bond_order
 _atom_site_pbe_magmom
Co  Co0  1  0.58378916  0.33201227  0.13627788  1  0.955285  2.810976  2.050813  2.515  0.899468  2.817947  2.509923  2.569  0.991879  2.866565  2.423287  2.664  0.686059  0.828065  2.76905  2.574272  2.48
Co  Co1  1  0.41620162  0.66798151  0.86371911  1  0.955207  2.810974  2.05096  2.515  0.899417  2.81796  2.510036  2.569  0.991768  2.866559  2.423413  2.664  0.686009  0.827972  2.768985  2.574419  2.48
H  H2  1  0.09966844  0.50572040  0.13453201  1  0.101992  -4.2e-05  0.957275  0.0  0.112846  -2.4e-05  1.016515  0.0  0.115701  -1.8e-05  1.016221  0.0  0.105037  0.110958  -1.8e-05  1.016195  0.0
H  H3  1  0.90034124  0.49429743  0.86548021  1  0.102006  -3.6e-05  0.957373  0.0  0.112862  -2.4e-05  1.016609  0.0  0.115725  -1.9e-05  1.01629  0.0  0.105056  0.110967  -1.8e-05  1.016286  0.0
H  H4  1  0.27616533  0.47020279  0.01631024  1  0.113266  -0.000203  0.934853  0.0  0.123841  -0.00017  0.993657  0.0  0.127567  -0.000204  0.991429  0.0  0.111634  0.12054  -6.1e-05  0.996542  0.0
H  H5  1  0.72383908  0.52981054  0.98369334  1  0.113262  -0.000208  0.934896  0.0  0.123803  -0.00017  0.993733  0.0  0.127551  -0.000203  0.991478  0.0  0.111622  0.120501  -6.2e-05  0.996621  0.0
H  H6  1  0.32593364  0.28357697  0.25541455  1  0.106446  0.000211  0.947147  0.001  0.116763  0.000402  1.004493  0.001  0.118274  0.000281  1.005382  0.001  0.121627  0.115707  0.000545  1.004061  0.001
H  H7  1  0.67406288  0.71642010  0.74458347  1  0.106462  0.000211  0.947115  0.001  0.116777  0.000402  1.004466  0.001  0.118291  0.000281  1.005353  0.001  0.121632  0.115723  0.000545  1.004035  0.001
H  H8  1  0.18704919  0.02031943  0.26999881  1  0.119401  0.000238  0.952375  0.0  0.132692  0.000268  1.007469  0.0  0.135516  0.000194  1.006174  0.0  0.12646  0.130493  0.000344  1.008782  0.0
H  H9  1  0.81294735  0.97967767  0.73000004  1  0.119437  0.000237  0.952341  0.0  0.132728  0.000268  1.007435  0.0  0.135553  0.000194  1.006139  0.0  0.126488  0.130524  0.000344  1.008752  0.0
H  H10  1  0.56495520  0.01543970  0.14022487  1  0.125685  -0.000173  0.947965  0.0  0.131687  3e-06  1.012468  0.0  0.134891  -3.6e-05  1.008138  0.0  0.147023  0.1294  5.1e-05  1.015355  0.0
H  H11  1  0.43504314  0.98455639  0.85977649  1  0.125703  -0.000174  0.947986  0.0  0.131743  3e-06  1.012448  0.0  0.134948  -3.6e-05  1.008117  0.0  0.147029  0.129456  5.1e-05  1.015336  0.0
H  H12  1  0.43354252  0.80269079  0.17871806  1  0.099761  -0.000136  0.955652  0.0  0.110835  -0.000156  1.02286  0.0  0.113532  -0.000195  1.020394  0.0  0.11645  0.108307  -0.000109  1.025453  0.0
H  H13  1  0.56645722  0.19730858  0.82128603  1  0.099762  -0.000134  0.95563  0.0  0.110839  -0.000156  1.022853  0.0  0.113537  -0.000195  1.020385  0.0  0.116462  0.108311  -0.000109  1.025445  0.0
H  H14  1  0.23123016  0.75681052  0.10422209  1  0.093093  -3e-06  0.941977  0.0  0.10688  -3.4e-05  1.005824  0.0  0.10799  -9.7e-05  1.00584  0.0  0.110083  0.105801  7.8e-05  1.006072  0.0
H  H15  1  0.76877287  0.24318890  0.89578258  1  0.093121  -7e-06  0.94193  0.0  0.106893  -3.4e-05  1.005805  0.0  0.108005  -9.6e-05  1.005818  0.0  0.110076  0.105812  7.8e-05  1.00605  0.0
H  H16  1  0.04504104  0.75995994  0.21081918  1  0.088235  -6e-06  0.972272  0.0  0.097478  -8e-06  1.039118  0.0  0.099392  -7e-06  1.039579  0.0  0.095688  0.09617  -5e-06  1.038844  0.0
H  H17  1  0.95496286  0.24004160  0.78918456  1  0.088244  -5e-06  0.972272  0.0  0.09747  -8e-06  1.039156  0.0  0.099382  -6e-06  1.039621  0.0  0.0957  0.096161  -4e-06  1.038882  0.0
H  H18  1  0.96437212  0.71925720  0.37921480  1  0.093272  -0.000108  0.966977  0.0  0.103423  -0.000108  1.026344  0.0  0.105663  -0.000101  1.026416  0.0  0.10075  0.102344  -0.000104  1.025256  0.0
H  H19  1  0.03563388  0.28073898  0.62078710  1  0.093276  -0.000108  0.967058  0.0  0.103428  -0.000108  1.026413  0.0  0.105666  -0.0001  1.026489  0.0  0.100734  0.102349  -0.000103  1.025325  0.0
H  H20  1  0.16432564  0.73149735  0.56312513  1  0.111877  -1.3e-05  0.954386  0.0  0.122174  -8e-06  1.013137  0.0  0.125526  -1.6e-05  1.011052  0.0  0.105332  0.119583  1e-05  1.01485  0.0
H  H21  1  0.83567657  0.26849234  0.43687525  1  0.111943  -1.3e-05  0.95437  0.0  0.122263  -8e-06  1.013088  0.0  0.125614  -1.6e-05  1.011003  0.0  0.105366  0.119671  1e-05  1.014801  0.0
H  H22  1  0.44264226  0.78528172  0.57300684  1  0.079695  -0.000177  1.00579  0.0  0.087754  -0.000167  1.076022  0.0  0.089462  -0.000151  1.077024  0.0  0.092354  0.086482  -0.000188  1.07568  0.0
H  H23  1  0.55736100  0.21470795  0.42699209  1  0.079633  -0.000178  1.005907  0.0  0.087739  -0.000167  1.076018  0.0  0.089447  -0.00015  1.077018  0.0  0.092333  0.086442  -0.000188  1.075719  0.0
H  H24  1  0.61362733  0.89672613  0.35573184  1  0.100784  -0.000127  0.936379  0.0  0.112062  -4.9e-05  1.00107  0.0  0.113968  -3.9e-05  0.999563  0.0  0.115916  0.110269  -6.1e-05  1.002641  0.0
H  H25  1  0.38637584  0.10327108  0.64426983  1  0.100753  -0.000125  0.936358  0.0  0.112045  -4.8e-05  1.001046  0.0  0.113952  -4e-05  0.999538  0.0  0.115914  0.110252  -6.1e-05  1.002618  0.0
H  H26  1  0.65441026  0.91697930  0.51036107  1  0.084794  0.000133  0.940343  0.0  0.095949  0.000115  1.01002  0.0  0.096543  7.8e-05  1.010533  0.0  0.112432  0.095619  0.000139  1.009554  0.0
H  H27  1  0.34559260  0.08301465  0.48963807  1  0.084843  0.000134  0.940318  0.0  0.096002  0.000115  1.009978  0.0  0.096595  7.9e-05  1.010492  0.0  0.112435  0.095669  0.000139  1.009514  0.0
H  H28  1  0.76189485  0.74389565  0.56448712  1  0.117031  0.000207  0.958724  0.0  0.129927  0.000214  1.013909  0.0  0.132567  0.000149  1.012255  0.0  0.125791  0.127917  0.00029  1.015422  0.0
H  H29  1  0.23810697  0.25609071  0.43550742  1  0.117136  0.000206  0.958575  0.0  0.130007  0.000213  1.013793  0.0  0.132649  0.000149  1.012136  0.0  0.12581  0.127996  0.00029  1.015305  0.0
H  H30  1  0.49480414  0.61471667  0.18876419  1  0.096232  -0.000154  0.967828  0.001  0.10411  -1.7e-05  1.035378  0.0  0.106831  -7e-05  1.03167  0.0  0.135088  0.101804  7.7e-05  1.0385  0.001
H  H31  1  0.50519644  0.38528250  0.81122934  1  0.096244  -0.000154  0.967929  0.001  0.104155  -1.7e-05  1.035438  0.0  0.106872  -7e-05  1.031742  0.0  0.135103  0.10185  7.8e-05  1.038562  0.001
H  H32  1  0.76935450  0.48476177  0.42487198  1  0.119449  0.000264  0.944574  0.001  0.128018  0.000424  1.004503  0.001  0.13048  0.000308  1.003429  0.001  0.12633  0.126364  0.000568  1.005223  0.001
H  H33  1  0.23064113  0.51523085  0.57511735  1  0.119474  0.000264  0.944529  0.001  0.128034  0.000424  1.004468  0.001  0.130496  0.000308  1.003392  0.001  0.126324  0.12638  0.000568  1.00519  0.001
C  C34  1  0.31288304  0.22930816  0.90457633  1  0.647965  -0.005246  3.936594  -0.004  0.600122  0.001346  4.247402  0.001  0.636408  0.000755  4.240016  0.001  0.206881  0.574285  0.002267  4.250978  0.002
C  C35  1  0.68711349  0.77069425  0.09542060  1  0.647977  -0.005232  3.936708  -0.004  0.600174  0.001345  4.247455  0.001  0.636465  0.000753  4.240066  0.001  0.206891  0.574333  0.002267  4.251037  0.002
C  C36  1  0.88604294  0.31110929  0.17134022  1  0.651359  -0.004994  3.946725  -0.005  0.602482  0.002299  4.260272  0.001  0.63953  0.001328  4.252136  0.001  0.204217  0.576061  0.003532  4.265016  0.002
C  C37  1  0.11396255  0.68890403  0.82866274  1  0.651443  -0.005005  3.946573  -0.005  0.602515  0.002299  4.260231  0.001  0.639562  0.001328  4.2521  0.001  0.204253  0.576092  0.003533  4.264984  0.002
C  C38  1  0.99640337  0.28156117  0.10433112  1  -0.024525  0.001989  3.666841  0.004  -0.012027  0.000666  3.903795  0.002  -0.012462  -0.000171  3.917958  0.001  0.00562  -0.012317  0.002408  3.895099  0.004
C  C39  1  0.00360672  0.71845771  0.89567981  1  -0.024359  0.00209  3.666551  0.004  -0.011888  0.000664  3.903537  0.002  -0.012324  -0.000171  3.917704  0.001  0.005663  -0.01218  0.002408  3.894845  0.004
C  C40  1  0.10027059  0.39863293  0.09327381  1  -0.066443  0.000215  3.704028  0.001  -0.090149  -0.000693  3.955909  0.0  -0.090434  -0.000512  3.972464  0.0  -0.077276  -0.089697  0.000991  3.94451  0.001
C  C41  1  0.89974342  0.60138491  0.90673672  1  -0.066491  0.00012  3.704406  0.0  -0.090194  -0.000692  3.956248  0.0  -0.090477  -0.000512  3.972815  0.0  -0.07731  -0.089729  0.000991  3.944841  0.001
C  C42  1  0.20104015  0.37913308  0.02874244  1  -0.074954  -0.002603  3.717684  -0.001  -0.100055  -0.001107  3.979093  0.0  -0.100831  -0.0012  3.996905  -0.001  -0.076609  -0.100808  0.000463  3.969164  0.0
C  C43  1  0.79896378  0.62087913  0.97125913  1  -0.074977  -0.002436  3.71777  -0.001  -0.100033  -0.001106  3.979158  0.0  -0.100825  -0.001199  3.996964  -0.001  -0.076559  -0.100785  0.000463  3.969226  0.0
C  C44  1  0.20553070  0.24274393  0.97744600  1  -0.056306  0.001982  3.720713  0.003  -0.049614  0.001598  3.970451  0.002  -0.053685  0.001182  3.989407  0.002  -0.003379  -0.04825  0.00218  3.959945  0.002
C  C45  1  0.79446698  0.75726386  0.02255170  1  -0.056219  0.001905  3.720652  0.003  -0.049526  0.001597  3.970461  0.002  -0.053603  0.001183  3.989425  0.002  -0.003417  -0.048161  0.00218  3.959958  0.002
C  C46  1  0.10527460  0.12509190  0.99067749  1  -0.064454  0.000358  3.753461  0.0  -0.064239  0.001165  3.99623  0.001  -0.068183  0.000554  4.018842  0.001  -0.010123  -0.062408  0.001164  3.982051  0.001
C  C47  1  0.89471875  0.87491588  0.00932191  1  -0.064374  0.000436  3.753504  0.001  -0.064413  0.001165  3.996379  0.001  -0.068356  0.000553  4.018978  0.001  -0.010203  -0.062579  0.001164  3.9822  0.001
C  C48  1  0.99681790  0.14335597  0.05034871  1  -0.07272  0.003055  3.737395  0.004  -0.074485  0.002796  3.980741  0.003  -0.079307  0.001997  4.002305  0.003  -0.012585  -0.071255  0.002353  3.966273  0.003
C  C49  1  0.00318481  0.85665844  0.94965650  1  -0.072966  0.003  3.736991  0.004  -0.074534  0.002797  3.980407  0.003  -0.079355  0.001997  4.001979  0.003  -0.012612  -0.071303  0.002353  3.965942  0.003
C  C50  1  0.12126391  0.98423464  0.94891953  1  0.383052  -0.000893  3.744359  -0.001  0.36148  -0.000127  4.00701  0.0  0.384354  -0.000551  4.008262  0.0  0.156388  0.346718  0.000477  4.005168  0.0
C  C51  1  0.87873454  0.01577751  0.05108189  1  0.382667  -0.000923  3.744994  -0.001  0.361488  -0.000127  4.007168  0.0  0.384388  -0.000553  4.008374  0.0  0.156425  0.346724  0.000477  4.005327  0.0
C  C52  1  0.35509734  0.18904714  0.23382772  1  -0.011363  -0.005336  3.784424  -0.003  -0.040743  0.000792  4.058874  0.001  -0.038111  0.000562  4.081141  0.001  -0.003089  -0.042986  0.000799  4.044363  0.001
C  C53  1  0.64489918  0.81094994  0.76617030  1  -0.011369  -0.005351  3.784525  -0.003  -0.040756  0.000791  4.05896  0.001  -0.038126  0.00056  4.081225  0.001  -0.003111  -0.043005  0.000799  4.044458  0.001
C  C54  1  0.28602532  0.06025442  0.24223757  1  -0.082308  0.004222  3.695956  0.006  -0.12519  0.002237  3.959515  0.003  -0.124603  0.00154  3.978061  0.002  -0.002268  -0.126018  0.002965  3.94778  0.004
C  C55  1  0.71396964  0.93974156  0.75775989  1  -0.082317  0.004234  3.696005  0.006  -0.125202  0.002237  3.959575  0.003  -0.124617  0.00154  3.978125  0.002  -0.002269  -0.126022  0.002965  3.947843  0.004
C  C56  1  0.48211940  0.05427033  0.17331031  1  0.193636  -0.006759  3.575891  -0.003  0.132801  0.002286  3.848932  0.003  0.149712  0.001795  3.859568  0.003  0.158957  0.120986  0.002759  3.841649  0.004
C  C57  1  0.51787826  0.94572679  0.82668955  1  0.193699  -0.006711  3.575852  -0.003  0.132821  0.002284  3.848871  0.003  0.149727  0.001792  3.859512  0.003  0.158967  0.121011  0.00276  3.841592  0.004
C  C58  1  0.33176718  0.82675656  0.19148883  1  -0.050392  0.00062  3.633683  0.001  -0.116922  0.000461  3.880429  0.001  -0.112953  0.000245  3.890133  0.001  -0.053419  -0.119516  0.00078  3.874994  0.001
C  C59  1  0.66823362  0.17324279  0.80851380  1  -0.050294  0.000618  3.633697  0.001  -0.116829  0.000461  3.880397  0.001  -0.112859  0.000245  3.890096  0.001  -0.053391  -0.119416  0.00078  3.874956  0.001
C  C60  1  0.29174309  0.80166034  0.29752493  1  0.005017  0.000223  3.753047  0.0  0.020752  0.000118  3.99281  0.0  0.018508  7.4e-05  4.018405  0.0  -0.020147  0.022166  0.000155  3.975802  0.0
C  C61  1  0.70825740  0.19833575  0.70247517  1  0.004732  0.000225  3.753429  0.0  0.020515  0.000119  3.993106  0.0  0.018268  7.6e-05  4.018706  0.0  -0.020138  0.02193  0.000155  3.976097  0.0
C  C62  1  0.13381759  0.76822637  0.29163015  1  -0.130744  -0.000109  3.772953  0.0  -0.148513  -4.3e-05  4.021923  0.0  -0.151202  -3.8e-05  4.043387  0.0  -0.096658  -0.147064  0.000157  4.007729  0.0
C  C63  1  0.86618557  0.23177085  0.70837152  1  -0.130618  -0.000107  3.772831  0.0  -0.14841  -4.4e-05  4.021834  0.0  -0.151099  -4e-05  4.043301  0.0  -0.096668  -0.14696  0.000157  4.00764  0.0
C  C64  1  0.08742260  0.74420938  0.38614052  1  -0.046378  5.3e-05  3.755077  0.0  -0.059841  -1.1e-05  3.998185  0.0  -0.060936  -2.9e-05  4.019057  0.0  -0.085364  -0.059036  4.4e-05  3.98326  0.0
C  C65  1  0.91258229  0.25578677  0.61386035  1  -0.04638  5.3e-05  3.755071  0.0  -0.059827  -1.1e-05  3.998171  0.0  -0.060923  -2.9e-05  4.019045  0.0  -0.085327  -0.059023  4.4e-05  3.983248  0.0
C  C66  1  0.19898825  0.75063375  0.48846982  1  -0.056904  7e-06  3.735594  0.0  -0.068585  2.9e-05  3.978517  0.0  -0.070259  4e-06  3.998726  0.0  -0.082639  -0.067369  0.000195  3.964814  0.0
C  C67  1  0.80101305  0.24935377  0.51152985  1  -0.057028  6e-06  3.73569  0.0  -0.068747  2.9e-05  3.978658  0.0  -0.070421  4e-06  3.998864  0.0  -0.082728  -0.06753  0.000195  3.96495  0.0
C  C68  1  0.35545992  0.78204009  0.49426541  1  -0.115304  -9e-06  3.750588  0.0  -0.137268  -2.2e-05  4.002779  0.0  -0.140071  -3.4e-05  4.025978  0.0  -0.096474  -0.13524  3.5e-05  3.986979  0.0
C  C69  1  0.64453909  0.21794201  0.50573164  1  -0.115391  -1.1e-05  3.750814  0.0  -0.137362  -2.2e-05  4.002983  0.0  -0.140166  -3.5e-05  4.02618  0.0  -0.096489  -0.135322  3.5e-05  3.987185  0.0
C  C70  1  0.40472684  0.80943507  0.40100297  1  0.02025  -5e-05  3.723518  0.0  0.033378  6.4e-05  3.967312  0.0  0.031496  3.1e-05  3.993022  0.0  -0.015862  0.034652  0.000159  3.949734  0.0
C  C71  1  0.59527359  0.19055564  0.59899572  1  0.020484  -4.6e-05  3.723757  0.0  0.033629  6.3e-05  3.967495  0.0  0.031749  2.9e-05  3.993208  0.0  -0.015851  0.034903  0.000159  3.949915  0.0
C  C72  1  0.57721476  0.84386524  0.41488214  1  -0.04547  0.000554  3.638723  0.001  -0.112165  0.000483  3.88901  0.001  -0.107651  0.00036  3.898554  0.001  -0.047887  -0.114823  0.000653  3.882227  0.001
C  C73  1  0.42278750  0.15612981  0.58511882  1  -0.045578  0.00055  3.638686  0.001  -0.112319  0.000483  3.888997  0.001  -0.107809  0.00036  3.898547  0.001  -0.047889  -0.114976  0.000653  3.882215  0.001
C  C74  1  0.70523570  0.67654412  0.46673600  1  -0.060196  0.004872  3.670589  0.007  -0.098063  0.002444  3.917711  0.004  -0.095894  0.0018  3.934708  0.003  0.006708  -0.099789  0.002903  3.907261  0.004
C  C75  1  0.29476027  0.32344648  0.53325943  1  -0.060407  0.004868  3.670615  0.007  -0.098268  0.002444  3.917744  0.004  -0.0961  0.0018  3.934742  0.003  0.006684  -0.099991  0.002904  3.907289  0.004
C  C76  1  0.56319355  0.61011861  0.27122200  1  0.178289  -0.007972  3.653941  -0.004  0.118744  0.002446  3.923395  0.004  0.135311  0.002115  3.936276  0.003  0.144297  0.107253  0.002829  3.914847  0.004
C  C77  1  0.43679976  0.38987620  0.72877077  1  0.178276  -0.007972  3.653982  -0.004  0.118694  0.002446  3.923428  0.004  0.135258  0.002117  3.936307  0.003  0.144369  0.107202  0.002831  3.914886  0.004
C  C78  1  0.70775798  0.54822138  0.39703674  1  0.004333  -0.006002  3.729457  -0.004  -0.026921  -7e-06  3.999347  0.001  -0.023503  -0.00036  4.01895  0.001  0.001572  -0.029732  0.000428  3.986453  0.002
C  C79  1  0.29223397  0.45177018  0.60295496  1  0.004325  -0.00599  3.729307  -0.004  -0.02692  -7e-06  3.999169  0.001  -0.023499  -0.000358  4.018766  0.001  0.001578  -0.029731  0.000428  3.986278  0.002
N  N80  1  0.47629721  0.18364067  0.18968148  1  -0.391554  0.041235  3.360489  0.064  -0.347606  0.031054  3.688675  0.038  -0.379036  0.024665  3.702173  0.029  -0.37041  -0.3246  0.036789  3.679971  0.045
N  N81  1  0.52369889  0.81635536  0.81031783  1  -0.391686  0.041227  3.360524  0.064  -0.347705  0.031053  3.688686  0.038  -0.379117  0.024667  3.702164  0.029  -0.370425  -0.324691  0.036791  3.679991  0.045
N  N82  1  0.36863808  0.97725993  0.20481059  1  -0.046626  0.001022  3.542803  0.002  0.049363  0.001564  3.759362  0.003  0.035104  0.001146  3.784729  0.002  -0.236194  0.058692  0.001994  3.742708  0.003
N  N83  1  0.63136003  0.02273828  0.79518963  1  -0.046606  0.001008  3.542794  0.002  0.049377  0.001564  3.759379  0.003  0.03512  0.001146  3.784748  0.002  -0.236179  0.058702  0.001994  3.742726  0.003
N  N84  1  0.61831421  0.50799229  0.27457524  1  -0.400902  0.041812  3.380804  0.063  -0.354038  0.031753  3.708179  0.037  -0.385611  0.025251  3.7207  0.028  -0.373951  -0.330766  0.037091  3.699305  0.044
N  N85  1  0.38168158  0.49200579  0.72541962  1  -0.400933  0.041808  3.380638  0.063  -0.354064  0.03175  3.708025  0.037  -0.385618  0.025249  3.720524  0.028  -0.374017  -0.330783  0.037091  3.699162  0.044
N  N86  1  0.61303000  0.71376862  0.38592586  1  -0.043526  0.000277  3.5474  0.001  0.053246  0.001141  3.757409  0.002  0.039207  0.000786  3.781259  0.001  -0.235559  0.061995  0.001457  3.741563  0.002
N  N87  1  0.38696376  0.28622193  0.61406835  1  -0.043345  0.000278  3.547157  0.001  0.053447  0.001141  3.757135  0.002  0.03941  0.000787  3.78099  0.001  -0.235566  0.0622  0.001457  3.741287  0.002
O  O88  1  0.46546999  0.29508634  0.96762891  1  -0.650503  0.051387  2.077577  0.086  -0.613135  0.038662  2.377695  0.058  -0.657486  0.028498  2.362226  0.042  -0.335714  -0.577066  0.048861  2.386049  0.073
O  O89  1  0.53452537  0.70491068  0.03236642  1  -0.650541  0.051392  2.077715  0.086  -0.613188  0.038666  2.377817  0.058  -0.657525  0.0285  2.362334  0.042  -0.33575  -0.577105  0.04887  2.386174  0.073
O  O90  1  0.25423996  0.17008704  0.79028756  1  -0.562681  0.009664  1.874821  0.017  -0.528534  0.007021  2.085425  0.012  -0.55328  0.004451  2.079008  0.008  -0.310849  -0.508267  0.010678  2.088007  0.018
O  O91  1  0.74575246  0.82991856  0.20971030  1  -0.56269  0.009659  1.874925  0.017  -0.528551  0.007022  2.085515  0.012  -0.553299  0.004453  2.079095  0.008  -0.310799  -0.508282  0.01068  2.088101  0.018
O  O92  1  0.76988546  0.32694722  0.10189568  1  -0.629462  0.06096  2.092599  0.102  -0.594478  0.044691  2.390678  0.068  -0.641641  0.032977  2.37739  0.05  -0.33304  -0.557569  0.054204  2.398583  0.081
O  O93  1  0.23010941  0.67305630  0.89810453  1  -0.629393  0.060957  2.092676  0.102  -0.594407  0.044686  2.390786  0.068  -0.641554  0.032974  2.377492  0.05  -0.332978  -0.557482  0.054204  2.398694  0.081
O  O94  1  0.91438778  0.32619975  0.27998994  1  -0.581985  0.003451  1.873277  0.006  -0.548853  0.004745  2.081521  0.008  -0.573957  0.003347  2.074195  0.006  -0.315322  -0.529545  0.00634  2.085288  0.01
O  O95  1  0.08561079  0.67380487  0.72000956  1  -0.582094  0.003454  1.873321  0.006  -0.548933  0.004746  2.081604  0.008  -0.574031  0.003347  2.074271  0.006  -0.315364  -0.529622  0.006342  2.085376  0.01
O  O96  1  0.23675481  0.97532022  0.92073228  1  -0.424322  0.001051  1.993603  0.003  -0.376815  0.001515  2.204273  0.003  -0.394295  0.000796  2.202309  0.002  -0.223872  -0.364479  0.001305  2.204728  0.003
O  O97  1  0.76324236  0.02468875  0.07927138  1  -0.424229  0.001083  1.993941  0.003  -0.376825  0.001514  2.204417  0.003  -0.394319  0.000796  2.202441  0.002  -0.223896  -0.364487  0.001305  2.204869  0.003
