# generated using pymatgen
data_CdH12C14SO8
_symmetry_space_group_name_H-M   'P 1'
_cell_length_a   5.26029379
_cell_length_b   12.10274912
_cell_length_c   13.16565388
_cell_angle_alpha   115.98410850
_cell_angle_beta   89.99830907
_cell_angle_gamma   90.00148319
_symmetry_Int_Tables_number   1
_chemical_formula_structural   CdH12C14SO8
_chemical_formula_sum   'Cd2 H24 C28 S2 O16'
_cell_volume   753.45163601
_cell_formula_units_Z   2
loop_
 _symmetry_equiv_pos_site_id
 _symmetry_equiv_pos_as_xyz
  1  'x, y, z'
loop_
 _atom_site_type_symbol
 _atom_site_label
 _atom_site_symmetry_multiplicity
 _atom_site_fract_x
 _atom_site_fract_y
 _atom_site_fract_z
 _atom_site_occupancy
 _atom_site_hle17_bader_spin_density
 _atom_site_hle17_ddec_charge
 _atom_site_hle17_ddec_spin_density
 _atom_site_hle17_ddec_sum_bond_order
 _atom_site_hle17_magmom
 _atom_site_hse06_10hf_bader_spin_density
 _atom_site_hse06_10hf_ddec_charge
 _atom_site_hse06_10hf_ddec_spin_density
 _atom_site_hse06_10hf_ddec_sum_bond_order
 _atom_site_hse06_10hf_magmom
 _atom_site_hse06_bader_spin_density
 _atom_site_hse06_ddec_charge
 _atom_site_hse06_ddec_spin_density
 _atom_site_hse06_ddec_sum_bond_order
 _atom_site_hse06_magmom
 _atom_site_pbe_bader_spin_density
 _atom_site_pbe_cm5_charge
 _atom_site_pbe_ddec_charge
 _atom_site_pbe_ddec_spin_density
 _atom_site_pbe_ddec_sum_bond_order
 _atom_site_pbe_magmom
Cd  Cd0  1  0.03979393  0.75000128  0.00000360  1  0  1.284941  0  1.524698  0  0  1.105614  0  1.966656  0  0  1.163872  0  1.90626  0  0  0.790076  1.063862  0  2.008431  0
Cd  Cd1  1  0.96020576  0.24999591  0.99999859  1  0  1.284955  0  1.524683  0  0  1.105624  0  1.966653  0  0  1.163881  0  1.906259  0  0  0.790077  1.063873  0  2.008426  0
H  H2  1  0.75203925  0.60319098  0.08884702  1  0  0.446182  0  0.851426  0  0  0.412744  0  0.918041  0  0  0.424637  0  0.900986  0  0  0.291529  0.404305  0  0.930113  0
H  H3  1  0.75203467  0.89680688  0.91115570  1  0  0.446211  0  0.851374  0  0  0.412786  0  0.917963  0  0  0.424677  0  0.900912  0  0  0.291556  0.404348  0  0.930034  0
H  H4  1  0.24796044  0.39680621  0.91115593  1  0  0.446217  0  0.851389  0  0  0.412783  0  0.917992  0  0  0.424679  0  0.900933  0  0  0.291571  0.404345  0  0.930064  0
H  H5  1  0.24796503  0.10319123  0.08884686  1  0  0.446176  0  0.851418  0  0  0.412758  0  0.918001  0  0  0.424648  0  0.900951  0  0  0.291535  0.40432  0  0.930072  0
H  H6  1  0.60286222  0.73197480  0.11586549  1  0  0.427902  0  0.879897  0  0  0.393275  0  0.950061  0  0  0.404289  0  0.934238  0  0  0.289146  0.385474  0  0.961248  0
H  H7  1  0.60286715  0.76802110  0.88413820  1  0  0.427894  0  0.879907  0  0  0.393271  0  0.950071  0  0  0.404284  0  0.934249  0  0  0.289153  0.385471  0  0.961257  0
H  H8  1  0.39713558  0.26802330  0.88413707  1  0  0.427892  0  0.879917  0  0  0.393262  0  0.950088  0  0  0.404277  0  0.934263  0  0  0.289158  0.385461  0  0.961274  0
H  H9  1  0.39713254  0.23197701  0.11586360  1  0  0.427895  0  0.879908  0  0  0.393277  0  0.950061  0  0  0.40429  0  0.934241  0  0  0.289165  0.385477  0  0.961247  0
H  H10  1  0.52411283  0.90973260  0.33557647  1  0  0.117196  0  0.938369  0  0  0.127155  0  0.996962  0  0  0.130637  0  0.994972  0  0  0.110846  0.124621  0  0.998542  0
H  H11  1  0.52407590  0.59026000  0.66442377  1  0  0.117209  0  0.938328  0  0  0.127218  0  0.996866  0  0  0.130697  0  0.994874  0  0  0.11088  0.124677  0  0.998443  0
H  H12  1  0.47589257  0.09026642  0.66442266  1  0  0.11717  0  0.93838  0  0  0.127122  0  0.996989  0  0  0.130602  0  0.995002  0  0  0.110818  0.124588  0  0.99857  0
H  H13  1  0.47591428  0.40973995  0.33557877  1  0  0.117211  0  0.938384  0  0  0.127222  0  0.996922  0  0  0.130702  0  0.994931  0  0  0.110882  0.124681  0  0.9985  0
H  H14  1  0.82619392  0.04228335  0.48176861  1  0  0.10756  0  0.95022  0  0  0.117111  0  1.012692  0  0  0.120259  0  1.010899  0  0  0.110067  0.114822  0  1.014083  0
H  H15  1  0.82615555  0.45772178  0.51822289  1  0  0.107539  0  0.950202  0  0  0.11708  0  1.012713  0  0  0.120235  0  1.010901  0  0  0.110028  0.114792  0  1.0141  0
H  H16  1  0.17381527  0.95771751  0.51823126  1  0  0.107612  0  0.950168  0  0  0.117173  0  1.01262  0  0  0.120325  0  1.01082  0  0  0.110087  0.114881  0  1.01401  0
H  H17  1  0.17383464  0.54228184  0.48177886  1  0  0.107534  0  0.95017  0  0  0.117078  0  1.012698  0  0  0.120248  0  1.010849  0  0  0.110044  0.114776  0  1.014108  0
H  H18  1  0.97721205  0.24555547  0.28772538  1  0  0.113322  0  0.948249  0  0  0.121054  0  1.012129  0  0  0.124809  0  1.009775  0  0  0.108446  0.118344  0  1.013883  0
H  H19  1  0.97724222  0.25445990  0.71226847  1  0  0.113468  0  0.948072  0  0  0.12117  0  1.011994  0  0  0.12494  0  1.009605  0  0  0.108446  0.118468  0  1.013743  0
H  H20  1  0.02277623  0.75444723  0.71227296  1  0  0.113313  0  0.948193  0  0  0.12104  0  1.012069  0  0  0.124795  0  1.009717  0  0  0.108424  0.118334  0  1.013822  0
H  H21  1  0.02276888  0.74554188  0.28773026  1  0  0.113465  0  0.948069  0  0  0.121172  0  1.011976  0  0  0.124932  0  1.009612  0  0  0.108447  0.118468  0  1.013728  0
H  H22  1  0.67209744  0.11147825  0.14117543  1  0  0.100706  0  0.96758  0  0  0.111076  0  1.029621  0  0  0.114374  0  1.027502  0  0  0.106851  0.108707  0  1.031223  0
H  H23  1  0.67211145  0.38852121  0.85882015  1  0  0.10079  0  0.96747  0  0  0.111147  0  1.029516  0  0  0.114403  0  1.027453  0  0  0.106891  0.108779  0  1.031117  0
H  H24  1  0.32790035  0.88852078  0.85882142  1  0  0.100701  0  0.96759  0  0  0.11107  0  1.029629  0  0  0.114329  0  1.02756  0  0  0.106853  0.108702  0  1.03123  0
H  H25  1  0.32789395  0.61147689  0.14117937  1  0  0.100773  0  0.967529  0  0  0.111138  0  1.02957  0  0  0.114408  0  1.027487  0  0  0.10688  0.10877  0  1.031172  0
C  C26  1  0.38030900  0.92749923  0.14662587  1  0  0.644557  0  3.90084  0  0  0.590008  0  4.191733  0  0  0.624742  0  4.185624  0  0  0.209786  0.566481  0  4.194935  0
C  C27  1  0.38030834  0.57249697  0.85337751  1  0  0.644494  0  3.900992  0  0  0.58999  0  4.191805  0  0  0.62472  0  4.185699  0  0  0.209803  0.566463  0  4.195005  0
C  C28  1  0.61969259  0.07249980  0.85337250  1  0  0.644558  0  3.900981  0  0  0.590072  0  4.191812  0  0  0.624808  0  4.185704  0  0  0.209792  0.566543  0  4.195015  0
C  C29  1  0.61969135  0.42750298  0.14662427  1  0  0.644593  0  3.901055  0  0  0.590026  0  4.191946  0  0  0.624757  0  4.18584  0  0  0.209808  0.566499  0  4.195146  0
C  C30  1  0.57244062  0.00508343  0.23084894  1  0  -0.070893  0  3.75875  0  0  -0.047042  0  3.993131  0  0  -0.054676  0  4.015857  0  0  -0.015465  -0.042047  0  3.977813  0
C  C31  1  0.57243150  0.49491350  0.76915211  1  0  -0.071046  0  3.758841  0  0  -0.047128  0  3.993092  0  0  -0.05476  0  4.015808  0  0  -0.015524  -0.042133  0  3.977774  0
C  C32  1  0.42755718  0.99491559  0.76914791  1  0  -0.070942  0  3.758786  0  0  -0.047146  0  3.993213  0  0  -0.054781  0  4.015932  0  0  -0.01545  -0.04215  0  3.977896  0
C  C33  1  0.42757390  0.50508645  0.23085043  1  0  -0.071017  0  3.758791  0  0  -0.047081  0  3.993068  0  0  -0.054714  0  4.015785  0  0  -0.01548  -0.042087  0  3.977749  0
C  C34  1  0.62139135  0.98364673  0.32552369  1  0  -0.04564  0  3.67588  0  0  -0.070285  0  3.924566  0  0  -0.070021  0  3.942499  0  0  -0.074527  -0.070425  0  3.912467  0
C  C35  1  0.62136637  0.51635207  0.67447107  1  0  -0.04552  0  3.675552  0  0  -0.070227  0  3.924245  0  0  -0.069957  0  3.942176  0  0  -0.074465  -0.070357  0  3.912136  0
C  C36  1  0.37860835  0.01635322  0.67447505  1  0  -0.04562  0  3.675761  0  0  -0.070257  0  3.924455  0  0  -0.069994  0  3.942394  0  0  -0.074504  -0.070399  0  3.912357  0
C  C37  1  0.37862762  0.48364788  0.32552920  1  0  -0.045611  0  3.675721  0  0  -0.07033  0  3.924418  0  0  -0.070063  0  3.942351  0  0  -0.074517  -0.070458  0  3.912305  0
C  C38  1  0.79245948  0.05781351  0.40748681  1  0  -0.048012  0  3.713976  0  0  -0.073077  0  3.965415  0  0  -0.073188  0  3.984327  0  0  -0.075265  -0.07289  0  3.952521  0
C  C39  1  0.79243749  0.44218588  0.59250353  1  0  -0.047868  0  3.714118  0  0  -0.073052  0  3.965531  0  0  -0.07317  0  3.984449  0  0  -0.075248  -0.072861  0  3.952629  0
C  C40  1  0.20754021  0.94218460  0.59250816  1  0  -0.04792  0  3.714112  0  0  -0.073011  0  3.965497  0  0  -0.073124  0  3.984406  0  0  -0.075237  -0.072817  0  3.952597  0
C  C41  1  0.20755841  0.55781499  0.40749559  1  0  -0.047786  0  3.714102  0  0  -0.072967  0  3.965495  0  0  -0.073078  0  3.984419  0  0  -0.075246  -0.072772  0  3.952584  0
C  C42  1  0.91678858  0.15206350  0.39311183  1  0  -0.099819  0  3.731511  0  0  -0.077307  0  3.980497  0  0  -0.083147  0  4.004046  0  0  -0.015268  -0.073346  0  3.964584  0
C  C43  1  0.91679031  0.34795421  0.60688063  1  0  -0.100025  0  3.731525  0  0  -0.077211  0  3.980115  0  0  -0.083032  0  4.003631  0  0  -0.015253  -0.073252  0  3.964207  0
C  C44  1  0.08320921  0.84794196  0.60688534  1  0  -0.099958  0  3.73177  0  0  -0.077347  0  3.980613  0  0  -0.083177  0  4.004143  0  0  -0.015291  -0.073386  0  3.964698  0
C  C45  1  0.08320558  0.65205125  0.39311805  1  0  -0.100126  0  3.731807  0  0  -0.07733  0  3.980435  0  0  -0.083168  0  4.003979  0  0  -0.015294  -0.073369  0  3.964523  0
C  C46  1  0.87443577  0.17323794  0.29838796  1  0  -0.053138  0  3.710098  0  0  -0.077604  0  3.960941  0  0  -0.078113  0  3.980156  0  0  -0.07798  -0.077156  0  3.947875  0
C  C47  1  0.87445394  0.32677304  0.70160760  1  0  -0.053477  0  3.709783  0  0  -0.078026  0  3.96061  0  0  -0.078536  0  3.979816  0  0  -0.078044  -0.07758  0  3.947547  0
C  C48  1  0.12556012  0.82676568  0.70161150  1  0  -0.053209  0  3.709953  0  0  -0.077691  0  3.960779  0  0  -0.078202  0  3.979982  0  0  -0.077985  -0.077246  0  3.947717  0
C  C49  1  0.12554956  0.67322690  0.29839190  1  0  -0.053415  0  3.709935  0  0  -0.077959  0  3.960771  0  0  -0.078469  0  3.97998  0  0  -0.078027  -0.077515  0  3.947711  0
C  C50  1  0.70182073  0.09875884  0.21705670  1  0  -0.048627  0  3.690636  0  0  -0.072608  0  3.937967  0  0  -0.072764  0  3.957219  0  0  -0.077486  -0.072435  0  3.925007  0
C  C51  1  0.70182400  0.40124542  0.78293819  1  0  -0.048492  0  3.690534  0  0  -0.072492  0  3.937856  0  0  -0.072623  0  3.957132  0  0  -0.077497  -0.07232  0  3.924903  0
C  C52  1  0.29817897  0.90124110  0.78294129  1  0  -0.048516  0  3.690598  0  0  -0.07249  0  3.937947  0  0  -0.072616  0  3.957217  0  0  -0.077494  -0.072317  0  3.924988  0
C  C53  1  0.29817759  0.59875452  0.21706055  1  0  -0.048455  0  3.690484  0  0  -0.072458  0  3.937794  0  0  -0.072596  0  3.95706  0  0  -0.07747  -0.072287  0  3.92484  0
S  S54  1  0.12953114  0.25000796  0.49999518  1  0  1.058858  0  5.247154  0  0  0.987304  0  5.737099  0  0  1.026993  0  5.725183  0  0  0.476197  0.959356  0  5.745626  0
S  S55  1  0.87047616  0.74998739  0.50000551  1  0  1.058813  0  5.247283  0  0  0.987237  0  5.737198  0  0  1.026928  0  5.72528  0  0  0.4762  0.959289  0  5.745723  0
O  O56  1  0.33824373  0.81943661  0.14010058  1  0  -0.671777  0  2.059622  0  0  -0.591762  0  2.300636  0  0  -0.623438  0  2.290343  0  0  -0.318767  -0.569471  0  2.306802  0
O  O57  1  0.33823763  0.68055561  0.85990777  1  0  -0.671699  0  2.059564  0  0  -0.591713  0  2.300524  0  0  -0.623414  0  2.2903  0  0  -0.318805  -0.569421  0  2.306687  0
O  O58  1  0.66175977  0.18056333  0.85990044  1  0  -0.671735  0  2.059685  0  0  -0.591742  0  2.300678  0  0  -0.623417  0  2.29038  0  0  -0.318732  -0.56945  0  2.306846  0
O  O59  1  0.66176016  0.31944525  0.14009590  1  0  -0.6717  0  2.059541  0  0  -0.591718  0  2.300572  0  0  -0.62341  0  2.290323  0  0  -0.318818  -0.569427  0  2.306734  0
O  O60  1  0.26034195  0.96505020  0.08404883  1  0  -0.631481  0  1.984474  0  0  -0.5654  0  2.212736  0  0  -0.593654  0  2.203207  0  0  -0.303746  -0.54563  0  2.21869  0
O  O61  1  0.26033632  0.53493689  0.91595229  1  0  -0.631488  0  1.98453  0  0  -0.565387  0  2.212716  0  0  -0.59364  0  2.203189  0  0  -0.303731  -0.545617  0  2.21867  0
O  O62  1  0.73965584  0.03494699  0.91595032  1  0  -0.631526  0  1.984527  0  0  -0.565449  0  2.212762  0  0  -0.593705  0  2.203234  0  0  -0.303771  -0.545678  0  2.218717  0
O  O63  1  0.73966528  0.46506122  0.08404951  1  0  -0.631551  0  1.984639  0  0  -0.565429  0  2.212874  0  0  -0.593684  0  2.203345  0  0  -0.303715  -0.54566  0  2.218828  0
O  O64  1  0.26730864  0.32298511  0.45536966  1  0  -0.578967  0  1.967521  0  0  -0.534132  0  2.214876  0  0  -0.55534  0  2.207629  0  0  -0.307222  -0.519096  0  2.219428  0
O  O65  1  0.26730858  0.17702625  0.54462028  1  0  -0.578999  0  1.96721  0  0  -0.534156  0  2.21455  0  0  -0.555365  0  2.207304  0  0  -0.307207  -0.519124  0  2.219107  0
O  O66  1  0.73269866  0.67701943  0.54462789  1  0  -0.578819  0  1.96786  0  0  -0.533988  0  2.215218  0  0  -0.555195  0  2.207973  0  0  -0.30716  -0.518954  0  2.219769  0
O  O67  1  0.73268731  0.82297370  0.45537771  1  0  -0.579118  0  1.966867  0  0  -0.534285  0  2.214189  0  0  -0.555493  0  2.206943  0  0  -0.307316  -0.519251  0  2.218746  0
O  O68  1  0.76777840  0.68761232  0.09251589  1  0  -0.880944  0  1.876667  0  0  -0.809709  0  2.094081  0  0  -0.834882  0  2.056975  0  0  -0.594098  -0.791914  0  2.119918  0
O  O69  1  0.76777855  0.81238841  0.90748856  1  0  -0.880904  0  1.876563  0  0  -0.809677  0  2.093931  0  0  -0.834842  0  2.056831  0  0  -0.5941  -0.791883  0  2.119767  0
O  O70  1  0.23222129  0.31238487  0.90748478  1  0  -0.880966  0  1.876614  0  0  -0.809729  0  2.094023  0  0  -0.834905  0  2.056907  0  0  -0.594149  -0.791934  0  2.11986  0
O  O71  1  0.23222304  0.18760970  0.09251248  1  0  -0.880901  0  1.876647  0  0  -0.809658  0  2.093975  0  0  -0.834828  0  2.056876  0  0  -0.594091  -0.791864  0  2.119809  0
