# generated using pymatgen
data_ZnH8C12S2(NO2)2
_symmetry_space_group_name_H-M   'P 1'
_cell_length_a   7.40408930
_cell_length_b   12.86080049
_cell_length_c   13.37600000
_cell_angle_alpha   90.00000000
_cell_angle_beta   96.25841480
_cell_angle_gamma   90.00000000
_symmetry_Int_Tables_number   1
_chemical_formula_structural   ZnH8C12S2(NO2)2
_chemical_formula_sum   'Zn4 H32 C48 S8 N8 O16'
_cell_volume   1266.10556491
_cell_formula_units_Z   4
loop_
 _symmetry_equiv_pos_site_id
 _symmetry_equiv_pos_as_xyz
  1  'x, y, z'
loop_
 _atom_site_type_symbol
 _atom_site_label
 _atom_site_symmetry_multiplicity
 _atom_site_fract_x
 _atom_site_fract_y
 _atom_site_fract_z
 _atom_site_occupancy
 _atom_site_hle17_bader_spin_density
 _atom_site_hle17_ddec_charge
 _atom_site_hle17_ddec_spin_density
 _atom_site_hle17_ddec_sum_bond_order
 _atom_site_hle17_magmom
 _atom_site_hse06_10hf_bader_spin_density
 _atom_site_hse06_10hf_ddec_charge
 _atom_site_hse06_10hf_ddec_spin_density
 _atom_site_hse06_10hf_ddec_sum_bond_order
 _atom_site_hse06_10hf_magmom
 _atom_site_hse06_bader_spin_density
 _atom_site_hse06_ddec_charge
 _atom_site_hse06_ddec_spin_density
 _atom_site_hse06_ddec_sum_bond_order
 _atom_site_hse06_magmom
 _atom_site_pbe_bader_charge
 _atom_site_pbe_bader_spin_density
 _atom_site_pbe_cm5_charge
 _atom_site_pbe_ddec_charge
 _atom_site_pbe_ddec_spin_density
 _atom_site_pbe_ddec_sum_bond_order
 _atom_site_pbe_magmom
Zn  Zn0  1  0.42579424  0.91924605  0.26556265  1  0  0.896818  0  2.048107  0  0  0.748535  0  2.51668  0  0  0.791912  0  2.467946  0  1.152387  0  0.550545  0.718184  0  2.549985  0
Zn  Zn1  1  0.07420553  0.41924684  0.73443737  1  0  0.8968  0  2.048162  0  0  0.748516  0  2.516731  0  0  0.791893  0  2.467995  0  1.152419  0  0.550535  0.718167  0  2.550036  0
Zn  Zn2  1  0.57420530  0.08075469  0.73443740  1  0  0.89679  0  2.048144  0  0  0.748513  0  2.51672  0  0  0.791889  0  2.467987  0  1.152407  0  0.550545  0.718162  0  2.550028  0
Zn  Zn3  1  0.92579536  0.58075234  0.26556275  1  0  0.896828  0  2.048114  0  0  0.748557  0  2.516681  0  0  0.791932  0  2.467948  0  1.152429  0  0.550558  0.718201  0  2.549987  0
H  H4  1  0.40821398  0.34492332  0.26249224  1  0  0.101409  0  0.96814  0  0  0.112603  0  1.030162  0  0  0.115358  0  1.027342  0  0.1303  0  0.112072  0.110551  0  1.032187  0
H  H5  1  0.09178714  0.84492097  0.73750936  1  0  0.101401  0  0.968098  0  0  0.112586  0  1.03014  0  0  0.115341  0  1.027319  0  0.130152  0  0.112077  0.110546  0  1.032135  0
H  H6  1  0.59178691  0.65507820  0.73750863  1  0  0.101422  0  0.968082  0  0  0.112612  0  1.03011  0  0  0.115365  0  1.027295  0  0.130109  0  0.112086  0.110551  0  1.032158  0
H  H7  1  0.90821239  0.15507744  0.26249144  1  0  0.10145  0  0.968168  0  0  0.11265  0  1.030183  0  0  0.115406  0  1.027362  0  0.130101  0  0.112105  0.110591  0  1.032227  0
H  H8  1  0.56377046  0.43246219  0.41906416  1  0  0.117187  0  0.951082  0  0  0.122754  0  1.018325  0  0  0.127071  0  1.016477  0  0.100918  0  0.1057  0.119678  0  1.019821  0
H  H9  1  0.93623155  0.93246140  0.58093682  1  0  0.11721  0  0.951115  0  0  0.122805  0  1.018322  0  0  0.127121  0  1.016474  0  0.100951  0  0.105708  0.119727  0  1.01982  0
H  H10  1  0.43623179  0.56753855  0.58093605  1  0  0.11717  0  0.951179  0  0  0.122797  0  1.018349  0  0  0.127114  0  1.0165  0  0.100947  0  0.10571  0.119721  0  1.019846  0
H  H11  1  0.06376798  0.06753856  0.41906398  1  0  0.117161  0  0.951178  0  0  0.122789  0  1.018338  0  0  0.127106  0  1.01649  0  0.10094  0  0.105709  0.119714  0  1.019834  0
H  H12  1  0.71568970  0.31114160  0.55522821  1  0  0.104036  0  0.965624  0  0  0.112902  0  1.027767  0  0  0.116731  0  1.023624  0  0.186227  0  0.121893  0.110023  0  1.030843  0
H  H13  1  0.78431232  0.81114158  0.44477203  1  0  0.104001  0  0.965586  0  0  0.112856  0  1.027763  0  0  0.116691  0  1.023603  0  0.186235  0  0.121871  0.10998  0  1.030837  0
H  H14  1  0.28431120  0.68885759  0.44477192  1  0  0.104028  0  0.965648  0  0  0.112889  0  1.027791  0  0  0.116717  0  1.02365  0  0.186219  0  0.121885  0.110011  0  1.030865  0
H  H15  1  0.21568857  0.18885838  0.55522810  1  0  0.10404  0  0.965624  0  0  0.112901  0  1.027776  0  0  0.116733  0  1.023625  0  0.186227  0  0.121893  0.110023  0  1.030851  0
H  H16  1  0.51195363  0.49501507  0.25704910  1  0  0.096532  0  0.9749  0  0  0.105851  0  1.040105  0  0  0.108446  0  1.037208  0  0.083391  0  0.107499  0.103953  0  1.042094  0
H  H17  1  0.98804703  0.99501660  0.74294956  1  0  0.096502  0  0.974985  0  0  0.105813  0  1.04019  0  0  0.108407  0  1.037293  0  0.083373  0  0.107482  0.103914  0  1.042179  0
H  H18  1  0.48805134  0.50498645  0.74295127  1  0  0.096507  0  0.974989  0  0  0.105835  0  1.040189  0  0  0.108429  0  1.037295  0  0.083385  0  0.107493  0.103944  0  1.042178  0
H  H19  1  0.01195115  0.00498492  0.25704817  1  0  0.09648  0  0.974946  0  0  0.10582  0  1.040136  0  0  0.108414  0  1.03724  0  0.083434  0  0.10747  0.103922  0  1.04212  0
H  H20  1  0.33803157  0.40902275  0.10548962  1  0  0.128994  0  0.953722  0  0  0.133299  0  1.019547  0  0  0.138012  0  1.017136  0  0.165633  0  0.108775  0.12989  0  1.021554  0
H  H21  1  0.16196412  0.90902429  0.89450941  1  0  0.129012  0  0.953717  0  0  0.133318  0  1.01954  0  0  0.138032  0  1.017127  0  0.165666  0  0.108786  0.129907  0  1.021551  0
H  H22  1  0.66197068  0.59097721  0.89451134  1  0  0.128993  0  0.953725  0  0  0.133306  0  1.019542  0  0  0.138015  0  1.017138  0  0.16563  0  0.108775  0.129897  0  1.02155  0
H  H23  1  0.83803134  0.09097567  0.10548815  1  0  0.12903  0  0.953687  0  0  0.133339  0  1.019508  0  0  0.13805  0  1.017101  0  0.16567  0  0.108788  0.12993  0  1.021514  0
H  H24  1  0.23562209  0.52911325  0.95757777  1  0  0.100946  0  0.979717  0  0  0.107516  0  1.044335  0  0  0.111519  0  1.039923  0  0.214467  0  0.11893  0.104521  0  1.047531  0
H  H25  1  0.26437495  0.02911327  0.04242284  1  0  0.10095  0  0.97974  0  0  0.107525  0  1.044342  0  0  0.111529  0  1.039929  0  0.214857  0  0.118943  0.104532  0  1.047535  0
H  H26  1  0.76437880  0.47088593  0.04242311  1  0  0.100971  0  0.979691  0  0  0.107533  0  1.044309  0  0  0.111536  0  1.039897  0  0.214547  0  0.118927  0.104537  0  1.047507  0
H  H27  1  0.73562050  0.97088436  0.95757547  1  0  0.100974  0  0.979691  0  0  0.107537  0  1.044314  0  0  0.11154  0  1.039901  0  0.214921  0  0.118927  0.104541  0  1.047507  0
H  H28  1  0.71020462  0.13994230  0.53144851  1  0  0.305451  0  0.904677  0  0  0.281255  0  0.973481  0  0  0.291419  0  0.965095  0  0.548904  0  0.306245  0.274084  0  0.97947  0
H  H29  1  0.78979604  0.63994073  0.46855089  1  0  0.305406  0  0.904721  0  0  0.281216  0  0.973522  0  0  0.291381  0  0.965136  0  0.548895  0  0.30623  0.274043  0  0.979515  0
H  H30  1  0.28979492  0.86005766  0.46855004  1  0  0.305392  0  0.904695  0  0  0.281223  0  0.973468  0  0  0.291387  0  0.965083  0  0.548896  0  0.306227  0.274052  0  0.97946  0
H  H31  1  0.21020485  0.36005846  0.53144998  1  0  0.305421  0  0.904727  0  0  0.281228  0  0.973512  0  0  0.291393  0  0.965126  0  0.548892  0  0.306231  0.274058  0  0.979501  0
H  H32  1  0.27369837  0.69929006  0.96925637  1  0  0.315219  0  0.90847  0  0  0.289859  0  0.977947  0  0  0.301021  0  0.968234  0  0.555874  0  0.303448  0.282018  0  0.984793  0
H  H33  1  0.22630004  0.19929008  0.03074507  1  0  0.315199  0  0.908517  0  0  0.289825  0  0.978011  0  0  0.300988  0  0.968299  0  0.555872  0  0.303434  0.28198  0  0.98486  0
H  H34  1  0.72630116  0.30070990  0.03074443  1  0  0.315236  0  0.908459  0  0  0.289803  0  0.978047  0  0  0.300965  0  0.968336  0  0.555926  0  0.303419  0.281963  0  0.984893  0
H  H35  1  0.77369950  0.80070910  0.96925647  1  0  0.315198  0  0.908499  0  0  0.289796  0  0.978035  0  0  0.300957  0  0.968324  0  0.555859  0  0.303425  0.281957  0  0.98488  0
C  C36  1  0.57772706  0.12961868  0.38466860  1  0  0.269728  0  3.712822  0  0  0.24938  0  3.982529  0  0  0.267692  0  3.998069  0  0.299334  0  0.129868  0.237298  0  3.971665  0
C  C37  1  0.92226953  0.62961711  0.61533205  1  0  0.269741  0  3.712795  0  0  0.249406  0  3.982485  0  0  0.267719  0  3.998024  0  0.299348  0  0.129897  0.237326  0  3.971621  0
C  C38  1  0.42226976  0.87038206  0.61533128  1  0  0.269693  0  3.71283  0  0  0.249347  0  3.982553  0  0  0.26766  0  3.998092  0  0.299324  0  0.129871  0.237266  0  3.971691  0
C  C39  1  0.07773136  0.37038208  0.38466808  1  0  0.269724  0  3.712774  0  0  0.249346  0  3.982522  0  0  0.267658  0  3.998062  0  0.299318  0  0.129866  0.237265  0  3.971658  0
C  C40  1  0.48363827  0.19265519  0.30819186  1  0  -0.168297  0  3.669199  0  0  -0.143947  0  3.906811  0  0  -0.160179  0  3.929791  0  0.016311  0  -0.014782  -0.133921  0  3.891791  0
C  C41  1  0.01635878  0.69265517  0.69180950  1  0  -0.16828  0  3.669264  0  0  -0.143945  0  3.90689  0  0  -0.160176  0  3.92987  0  0.01623  0  -0.014786  -0.133921  0  3.891871  0
C  C42  1  0.51635854  0.80734477  0.69180877  1  0  -0.168219  0  3.669175  0  0  -0.143865  0  3.906791  0  0  -0.160097  0  3.929773  0  0.01631  0  -0.014762  -0.13384  0  3.891772  0
C  C43  1  0.98364212  0.30734479  0.30819138  1  0  -0.168202  0  3.669187  0  0  -0.143834  0  3.906812  0  0  -0.160061  0  3.929787  0  0.016305  0  -0.014756  -0.133808  0  3.89179  0
C  C44  1  0.48047929  0.29997355  0.32296610  1  0  0.019443  0  3.691405  0  0  -0.015684  0  3.945248  0  0  -0.005985  0  3.960553  0  -0.029759  0  -0.058384  -0.02158  0  3.934732  0
C  C45  1  0.01951912  0.79997120  0.67703534  1  0  0.019464  0  3.691419  0  0  -0.015659  0  3.945269  0  0  -0.005958  0  3.960571  0  -0.029543  0  -0.058385  -0.021553  0  3.934759  0
C  C46  1  0.51951889  0.70002797  0.67703387  1  0  0.019424  0  3.691409  0  0  -0.015715  0  3.945291  0  0  -0.006018  0  3.960597  0  -0.029569  0  -0.058385  -0.021614  0  3.934773  0
C  C47  1  0.98048042  0.20002798  0.32296546  1  0  0.01937  0  3.691495  0  0  -0.015781  0  3.945372  0  0  -0.006084  0  3.960677  0  -0.02957  0  -0.058418  -0.021679  0  3.934853  0
C  C48  1  0.56398242  0.34847442  0.40930497  1  0  -0.146032  0  3.739075  0  0  -0.162198  0  4.010865  0  0  -0.171987  0  4.0296  0  0.044109  0  -0.095939  -0.156194  0  3.998441  0
C  C49  1  0.93601824  0.84847362  0.59069593  1  0  -0.146108  0  3.739099  0  0  -0.162297  0  4.010895  0  0  -0.172085  0  4.02963  0  0.044141  0  -0.095957  -0.156294  0  3.998471  0
C  C50  1  0.43601711  0.65152632  0.59069582  1  0  -0.146048  0  3.739149  0  0  -0.162265  0  4.010947  0  0  -0.172053  0  4.029681  0  0.04412  0  -0.095959  -0.156259  0  3.99852  0
C  C51  1  0.06398130  0.15152634  0.40930412  1  0  -0.146053  0  3.739121  0  0  -0.162255  0  4.010923  0  0  -0.172043  0  4.029659  0  0.044127  0  -0.095959  -0.156248  0  3.998496  0
C  C52  1  0.64644751  0.28511522  0.48363145  1  0  0.172575  0  3.62074  0  0  0.125989  0  3.880339  0  0  0.138214  0  3.892416  0  0.3636  0  0.060518  0.11818  0  3.872083  0
C  C53  1  0.85355315  0.78511443  0.51636870  1  0  0.172631  0  3.62064  0  0  0.126058  0  3.880229  0  0  0.138285  0  3.892309  0  0.363455  0  0.060555  0.118251  0  3.871971  0
C  C54  1  0.35355203  0.71488474  0.51636785  1  0  0.172557  0  3.620665  0  0  0.125999  0  3.88026  0  0  0.138223  0  3.892335  0  0.363594  0  0.060522  0.118192  0  3.872004  0
C  C55  1  0.14644774  0.21488476  0.48363143  1  0  0.172602  0  3.620714  0  0  0.126011  0  3.880324  0  0  0.138238  0  3.892401  0  0.363612  0  0.060521  0.118203  0  3.872067  0
C  C56  1  0.38351549  0.15459147  0.20992009  1  0  0.672963  0  3.884442  0  0  0.622119  0  4.17841  0  0  0.657335  0  4.171065  0  1.618944  0  0.213138  0.598362  0  4.182541  0
C  C57  1  0.11648427  0.65459067  0.79008068  1  0  0.672862  0  3.884541  0  0  0.622036  0  4.178496  0  0  0.657251  0  4.171152  0  1.618852  0  0.21311  0.598279  0  4.18263  0
C  C58  1  0.61648268  0.84540850  0.79007988  1  0  0.672887  0  3.884458  0  0  0.622047  0  4.178421  0  0  0.657263  0  4.171077  0  1.618911  0  0.213135  0.598291  0  4.182554  0
C  C59  1  0.88351798  0.34540852  0.20991953  1  0  0.672888  0  3.884424  0  0  0.622036  0  4.178406  0  0  0.657249  0  4.171064  0  1.618874  0  0.213122  0.598279  0  4.182535  0
C  C60  1  0.40501832  0.71184994  0.11809860  1  0  0.283875  0  3.705599  0  0  0.261285  0  3.979251  0  0  0.280552  0  3.993416  0  0.354488  0  0.130915  0.248549  0  3.969345  0
C  C61  1  0.09498281  0.21184995  0.88190150  1  0  0.283888  0  3.705769  0  0  0.261374  0  3.979323  0  0  0.28064  0  3.99349  0  0.35451  0  0.130967  0.248629  0  3.969426  0
C  C62  1  0.59497986  0.28815003  0.88190136  1  0  0.283915  0  3.705607  0  0  0.26135  0  3.979199  0  0  0.280618  0  3.993362  0  0.354485  0  0.130939  0.248613  0  3.969293  0
C  C63  1  0.90501944  0.78814923  0.11809796  1  0  0.283882  0  3.705713  0  0  0.261291  0  3.979383  0  0  0.280557  0  3.993549  0  0.354502  0  0.130956  0.248556  0  3.969477  0
C  C64  1  0.47690862  0.64823881  0.20006373  1  0  -0.195254  0  3.731792  0  0  -0.172812  0  3.97585  0  0  -0.190001  0  3.998824  0  0.036352  0  -0.024937  -0.162033  0  3.960758  0
C  C65  1  0.02309251  0.14824116  0.79993562  1  0  -0.195157  0  3.731855  0  0  -0.172811  0  3.975947  0  0  -0.189997  0  3.998918  0  0.036247  0  -0.024934  -0.162029  0  3.960854  0
C  C66  1  0.52309091  0.35176193  0.79993631  1  0  -0.195269  0  3.731706  0  0  -0.1728  0  3.975731  0  0  -0.189988  0  3.998704  0  0.036376  0  -0.024911  -0.162019  0  3.960636  0
C  C67  1  0.97690975  0.85175958  0.20006309  1  0  -0.195254  0  3.731759  0  0  -0.172876  0  3.975903  0  0  -0.190062  0  3.998872  0  0.03627  0  -0.024976  -0.162097  0  3.96081  0
C  C68  1  0.45194926  0.54072528  0.19382527  1  0  0.02555  0  3.711396  0  0  -0.009597  0  3.96894  0  0  0.001226  0  3.98295  0  -0.007261  0  -0.058258  -0.016277  0  3.959317  0
C  C69  1  0.04804915  0.04072608  0.80617318  1  0  0.025484  0  3.71141  0  0  -0.009602  0  3.968926  0  0  0.001222  0  3.982932  0  -0.007212  0  -0.058263  -0.01628  0  3.959301  0
C  C70  1  0.54805028  0.45927701  0.80617478  1  0  0.025607  0  3.711385  0  0  -0.00958  0  3.968962  0  0  0.001241  0  3.982976  0  -0.007221  0  -0.058241  -0.016264  0  3.959334  0
C  C71  1  0.95195038  0.95927388  0.19382462  1  0  0.025699  0  3.711224  0  0  -0.009444  0  3.968775  0  0  0.001379  0  3.982783  0  -0.00724  0  -0.05818  -0.016121  0  3.959148  0
C  C72  1  0.35941211  0.49276793  0.10996608  1  0  -0.147512  0  3.726943  0  0  -0.162114  0  3.99445  0  0  -0.17253  0  4.012799  0  -0.026506  0  -0.093438  -0.155718  0  3.982392  0
C  C73  1  0.14058630  0.99276791  0.89003386  1  0  -0.14751  0  3.726874  0  0  -0.162138  0  3.994365  0  0  -0.172552  0  4.012708  0  -0.02653  0  -0.09346  -0.155743  0  3.982314  0
C  C74  1  0.64058878  0.50723203  0.89003629  1  0  -0.147537  0  3.726923  0  0  -0.16216  0  3.994459  0  0  -0.172572  0  4.012796  0  -0.026514  0  -0.093466  -0.155762  0  3.982401  0
C  C75  1  0.85941052  0.00723050  0.10996378  1  0  -0.147575  0  3.726888  0  0  -0.162192  0  3.994403  0  0  -0.172612  0  4.012757  0  -0.026512  0  -0.093456  -0.155795  0  3.982343  0
C  C76  1  0.30184933  0.55602371  0.02966470  1  0  0.166503  0  3.64878  0  0  0.123378  0  3.905341  0  0  0.135486  0  3.918276  0  0.377367  0  0.062891  0.115713  0  3.896541  0
C  C77  1  0.19814636  0.05602451  0.97033433  1  0  0.166509  0  3.64884  0  0  0.123395  0  3.905386  0  0  0.135503  0  3.918322  0  0.377012  0  0.062901  0.115723  0  3.896589  0
C  C78  1  0.69814885  0.44397547  0.97033602  1  0  0.166452  0  3.648845  0  0  0.123366  0  3.905353  0  0  0.135476  0  3.918286  0  0.376779  0  0.062902  0.115701  0  3.896551  0
C  C79  1  0.80185045  0.94397390  0.02966405  1  0  0.16641  0  3.64885  0  0  0.123315  0  3.905381  0  0  0.135423  0  3.918314  0  0.376465  0  0.062888  0.11565  0  3.896582  0
C  C80  1  0.58403008  0.68723249  0.29394099  1  0  0.6779  0  3.852485  0  0  0.621338  0  4.148204  0  0  0.65723  0  4.140188  0  1.577023  0  0.215184  0.596986  0  4.153009  0
C  C81  1  0.91597466  0.18723407  0.70605866  1  0  0.677821  0  3.852393  0  0  0.621304  0  4.148083  0  0  0.657195  0  4.140067  0  1.577618  0  0.215165  0.596958  0  4.152884  0
C  C82  1  0.41597218  0.31276825  0.70605848  1  0  0.678025  0  3.852312  0  0  0.621455  0  4.148015  0  0  0.657348  0  4.139994  0  1.577561  0  0.215199  0.597111  0  4.152819  0
C  C83  1  0.08402759  0.81276667  0.29394229  1  0  0.677867  0  3.852377  0  0  0.621345  0  4.148072  0  0  0.657237  0  4.140055  0  1.577647  0  0.2152  0.596999  0  4.152875  0
S  S84  1  0.62858057  0.99968816  0.38542861  1  0  -0.390361  0  2.153528  0  0  -0.369932  0  2.528514  0  0  -0.391535  0  2.521029  0  -0.227349  0  -0.170246  -0.354603  0  2.53319  0
S  S85  1  0.87142009  0.49968740  0.61457154  1  0  -0.390347  0  2.1536  0  0  -0.36992  0  2.528574  0  0  -0.391522  0  2.521089  0  -0.227367  0  -0.170234  -0.354591  0  2.533247  0
S  S86  1  0.37141897  0.00031180  0.61457068  1  0  -0.390365  0  2.153567  0  0  -0.36994  0  2.528575  0  0  -0.391543  0  2.521088  0  -0.227603  0  -0.170248  -0.354613  0  2.533252  0
S  S87  1  0.12858216  0.50031178  0.38542942  1  0  -0.39038  0  2.153538  0  0  -0.36994  0  2.52853  0  0  -0.391541  0  2.521045  0  -0.227618  0  -0.170255  -0.354613  0  2.533208  0
S  S88  1  0.40719360  0.84456951  0.10626739  1  0  -0.380579  0  2.131875  0  0  -0.358925  0  2.495293  0  0  -0.380809  0  2.489085  0  -0.230146  0  -0.165114  -0.343404  0  2.499083  0
S  S89  1  0.09280617  0.34457031  0.89373263  1  0  -0.380576  0  2.131896  0  0  -0.358944  0  2.495279  0  0  -0.380829  0  2.489073  0  -0.230161  0  -0.165121  -0.343425  0  2.499079  0
S  S90  1  0.59280458  0.15543123  0.89373257  1  0  -0.380601  0  2.131932  0  0  -0.358942  0  2.495309  0  0  -0.380825  0  2.489102  0  -0.230133  0  -0.165129  -0.343415  0  2.499092  0
S  S91  1  0.90719472  0.65542965  0.10626750  1  0  -0.380598  0  2.131889  0  0  -0.358934  0  2.495308  0  0  -0.380817  0  2.489104  0  -0.230167  0  -0.165128  -0.343411  0  2.499098  0
N  N92  1  0.64851002  0.18151670  0.46992218  1  0  -0.275177  0  3.4445  0  0  -0.201301  0  3.669978  0  0  -0.21942  0  3.682638  0  -1.266517  0  -0.354844  -0.189413  0  3.661448  0
N  N93  1  0.85148793  0.68151590  0.53007856  1  0  -0.27515  0  3.444479  0  0  -0.201284  0  3.669948  0  0  -0.219403  0  3.68261  0  -1.266362  0  -0.35488  -0.189403  0  3.661428  0
N  N94  1  0.35148816  0.81848327  0.53007854  1  0  -0.275089  0  3.444416  0  0  -0.201246  0  3.669904  0  0  -0.219363  0  3.682564  0  -1.266504  0  -0.354847  -0.189363  0  3.66138  0
N  N95  1  0.14851297  0.31848329  0.46992157  1  0  -0.275175  0  3.444476  0  0  -0.201286  0  3.669969  0  0  -0.219405  0  3.68263  0  -1.266498  0  -0.354843  -0.189396  0  3.661436  0
N  N96  1  0.32821223  0.65938120  0.03491205  1  0  -0.277613  0  3.43057  0  0  -0.204436  0  3.654374  0  0  -0.22313  0  3.666494  0  -1.301564  0  -0.350087  -0.192278  0  3.646302  0
N  N97  1  0.17178618  0.15938121  0.96508939  1  0  -0.277615  0  3.430657  0  0  -0.204453  0  3.654428  0  0  -0.22315  0  3.666552  0  -1.30159  0  -0.350093  -0.192284  0  3.646357  0
N  N98  1  0.67178731  0.34061799  0.96508949  1  0  -0.277617  0  3.430615  0  0  -0.204425  0  3.654435  0  0  -0.223119  0  3.666552  0  -1.301161  0  -0.35008  -0.192265  0  3.646361  0
N  N99  1  0.82821471  0.84061719  0.03491074  1  0  -0.277527  0  3.430622  0  0  -0.204331  0  3.654425  0  0  -0.223026  0  3.666551  0  -1.301141  0  -0.350066  -0.192174  0  3.646351  0
O  O100  1  0.33843103  0.05874829  0.19942670  1  0  -0.64178  0  2.104468  0  0  -0.567468  0  2.364108  0  0  -0.596432  0  2.351615  0  -1.190825  0  -0.325247  -0.547089  0  2.371859  0
O  O101  1  0.16156874  0.55874827  0.80057407  1  0  -0.641757  0  2.104541  0  0  -0.567448  0  2.36418  0  0  -0.596412  0  2.351686  0  -1.190801  0  -0.325237  -0.54707  0  2.371932  0
O  O102  1  0.66156986  0.94125245  0.80057268  1  0  -0.641765  0  2.104413  0  0  -0.567472  0  2.364077  0  0  -0.596437  0  2.351585  0  -1.190814  0  -0.325276  -0.547094  0  2.37183  0
O  O103  1  0.83843080  0.44125169  0.19942672  1  0  -0.64177  0  2.104471  0  0  -0.56745  0  2.364125  0  0  -0.596415  0  2.351633  0  -1.190794  0  -0.325247  -0.547071  0  2.371879  0
O  O104  1  0.34331421  0.22301489  0.14359771  1  0  -0.590826  0  1.935916  0  0  -0.546404  0  2.158786  0  0  -0.570111  0  2.149775  0  -1.175041  0  -0.311009  -0.529755  0  2.164318  0
O  O105  1  0.15668556  0.72301487  0.85640306  1  0  -0.590753  0  1.935893  0  0  -0.54636  0  2.158778  0  0  -0.570068  0  2.149769  0  -1.175011  0  -0.311  -0.529709  0  2.1643  0
O  O106  1  0.65668533  0.77698663  0.85640234  1  0  -0.590783  0  1.935972  0  0  -0.546339  0  2.15884  0  0  -0.570045  0  2.14983  0  -1.175022  0  -0.310978  -0.529685  0  2.164362  0
O  O107  1  0.84331533  0.27698509  0.14359632  1  0  -0.590802  0  1.935822  0  0  -0.546376  0  2.158728  0  0  -0.570082  0  2.149719  0  -1.17501  0  -0.311008  -0.529727  0  2.164262  0
O  O108  1  0.55907479  0.77632570  0.32895949  1  0  -0.596287  0  2.074718  0  0  -0.531728  0  2.332659  0  0  -0.558339  0  2.322266  0  -1.176702  0  -0.300854  -0.513218  0  2.339239  0
O  O109  1  0.94093946  0.27632572  0.67103849  1  0  -0.596276  0  2.074778  0  0  -0.53175  0  2.332729  0  0  -0.55836  0  2.322337  0  -1.176775  0  -0.300885  -0.513235  0  2.339301  0
O  O110  1  0.44092475  0.22367504  0.67104055  1  0  -0.596298  0  2.074695  0  0  -0.531767  0  2.332667  0  0  -0.558377  0  2.322271  0  -1.176696  0  -0.300862  -0.513255  0  2.339244  0
O  O111  1  0.05906551  0.72367502  0.32896263  1  0  -0.596299  0  2.074747  0  0  -0.531773  0  2.332695  0  0  -0.558384  0  2.322302  0  -1.176764  0  -0.300883  -0.51326  0  2.339271  0
O  O112  1  0.69991244  0.62212768  0.33877826  1  0  -0.645409  0  2.066198  0  0  -0.571506  0  2.324382  0  0  -0.598757  0  2.310132  0  -1.19389  0  -0.324483  -0.552491  0  2.333717  0
O  O113  1  0.80008821  0.12213081  0.66122114  1  0  -0.645357  0  2.066048  0  0  -0.571457  0  2.32422  0  0  -0.598709  0  2.30997  0  -1.194302  0  -0.324453  -0.552462  0  2.333573  0
O  O114  1  0.30009252  0.37787383  0.66121987  1  0  -0.645477  0  2.066112  0  0  -0.571531  0  2.324263  0  0  -0.598783  0  2.310011  0  -1.194456  0  -0.324462  -0.552541  0  2.333622  0
O  O115  1  0.19991132  0.87786993  0.33877965  1  0  -0.64539  0  2.066107  0  0  -0.571495  0  2.32429  0  0  -0.598747  0  2.310041  0  -1.194357  0  -0.324484  -0.552495  0  2.33364  0
