# generated using pymatgen
data_Zn3H28C38(NO9)2
_symmetry_space_group_name_H-M   'P 1'
_cell_length_a   12.38532141
_cell_length_b   12.38533709
_cell_length_c   16.34898483
_cell_angle_alpha   102.15471195
_cell_angle_beta   102.15462204
_cell_angle_gamma   96.71031326
_symmetry_Int_Tables_number   1
_chemical_formula_structural   Zn3H28C38(NO9)2
_chemical_formula_sum   'Zn6 H56 C76 N4 O36'
_cell_volume   2362.36256745
_cell_formula_units_Z   2
loop_
 _symmetry_equiv_pos_site_id
 _symmetry_equiv_pos_as_xyz
  1  'x, y, z'
loop_
 _atom_site_type_symbol
 _atom_site_label
 _atom_site_symmetry_multiplicity
 _atom_site_fract_x
 _atom_site_fract_y
 _atom_site_fract_z
 _atom_site_occupancy
 _atom_site_pbe_bader_charge
 _atom_site_pbe_bader_spin_density
 _atom_site_pbe_cm5_charge
 _atom_site_pbe_ddec_charge
 _atom_site_pbe_ddec_spin_density
 _atom_site_pbe_ddec_sum_bond_order
 _atom_site_pbe_magmom
Zn  Zn0  1  0.92078823  0.20023862  0.36487908  1  1.336189  0  0.697216  0.962041  0  2.274723  0
Zn  Zn1  1  0.79976157  0.07921269  0.13512103  1  1.336159  0  0.697179  0.961979  0  2.274731  0
Zn  Zn2  1  0.07921139  0.79976000  0.63512007  1  1.336098  0  0.697216  0.962048  0  2.274691  0
Zn  Zn3  1  0.20023974  0.92078867  0.86488067  1  1.33609  0  0.697216  0.962078  0  2.274673  0
Zn  Zn4  1  0.00000032  0.49999954  0.50000028  1  1.436094  0  0.710137  1.030162  0  2.29773  0
Zn  Zn5  1  0.50000014  0.99999968  0.99999968  1  1.436005  0  0.710139  1.030172  0  2.297677  0
H  H6  1  0.77695985  0.60393219  0.02296477  1  0.618828  0  0.345771  0.378381  0  0.853005  0
H  H7  1  0.39606729  0.22303730  0.47703559  1  0.61881  0  0.34578  0.378409  0  0.852961  0
H  H8  1  0.22303727  0.39606768  0.97703539  1  0.6188  0  0.345748  0.378334  0  0.853034  0
H  H9  1  0.60393317  0.77696392  0.52296656  1  0.618783  0  0.345742  0.378324  0  0.853073  0
H  H10  1  0.20560371  0.44618058  0.65640878  1  0.105946  0  0.106221  0.112438  0  1.039182  0
H  H11  1  0.55381723  0.79439711  0.84359021  1  0.105918  0  0.106229  0.112435  0  1.039223  0
H  H12  1  0.79439508  0.55381709  0.34358885  1  0.105927  0  0.106235  0.112464  0  1.03918  0
H  H13  1  0.44618494  0.20560604  0.15641070  1  0.10588  0  0.106234  0.11248  0  1.039168  0
H  H14  1  0.30902092  0.24164791  0.83332372  1  0.105672  0  0.104967  0.116755  0  1.013992  0
H  H15  1  0.75835280  0.69097743  0.66667820  1  0.105688  0  0.10497  0.116793  0  1.013964  0
H  H16  1  0.69097872  0.75835401  0.16667780  1  0.105783  0  0.104973  0.116743  0  1.014016  0
H  H17  1  0.24164851  0.30902394  0.33332289  1  0.105783  0  0.104968  0.116752  0  1.013966  0
H  H18  1  0.07774840  0.09366890  0.58814243  1  0.128917  0  0.113565  0.130573  0  0.99608  0
H  H19  1  0.90632966  0.92225263  0.91185902  1  0.128877  0  0.113554  0.130535  0  0.996062  0
H  H20  1  0.92225120  0.90632888  0.41185902  1  0.128896  0  0.113562  0.130555  0  0.996086  0
H  H21  1  0.09367332  0.07774817  0.08814286  1  0.128947  0  0.113513  0.130451  0  0.996034  0
H  H22  1  0.22709464  0.57171608  0.79113069  1  0.094551  0  0.108379  0.112654  0  1.028358  0
H  H23  1  0.42828088  0.77290203  0.70886878  1  0.094589  0  0.108387  0.112617  0  1.028431  0
H  H24  1  0.77290332  0.42828311  0.20886766  1  0.094601  0  0.108382  0.112575  0  1.028479  0
H  H25  1  0.57171791  0.22709811  0.29113231  1  0.094621  0  0.108384  0.112612  0  1.02844  0
H  H26  1  0.54154165  0.72042789  0.97080232  1  0.160672  0  0.112077  0.129289  0  1.023519  0
H  H27  1  0.27957185  0.45845573  0.52919638  1  0.160631  0  0.112073  0.129261  0  1.023534  0
H  H28  1  0.45845719  0.27957393  0.02919415  1  0.160662  0  0.112076  0.129279  0  1.023469  0
H  H29  1  0.72042858  0.54154217  0.47080767  1  0.160594  0  0.11208  0.129237  0  1.02352  0
H  H30  1  0.48048831  0.36848093  0.84569090  1  0.10462  0  0.104751  0.102074  0  1.039881  0
H  H31  1  0.63151895  0.51951093  0.65430854  1  0.104633  0  0.104739  0.102031  0  1.039866  0
H  H32  1  0.51950963  0.63151906  0.15431064  1  0.104655  0  0.104765  0.102089  0  1.039864  0
H  H33  1  0.36848408  0.48049320  0.34569083  1  0.1047  0  0.104745  0.102122  0  1.039822  0
H  H34  1  0.83694414  0.43452850  0.60515545  1  0.133688  0  0.127435  0.06557  0  0.997996  0
H  H35  1  0.56547090  0.16305713  0.89484282  1  0.133679  0  0.127432  0.065578  0  0.998029  0
H  H36  1  0.16305885  0.56547231  0.39484460  1  0.133645  0  0.127435  0.065555  0  0.998028  0
H  H37  1  0.43452789  0.83694136  0.10515616  1  0.133654  0  0.12746  0.065636  0  0.998027  0
H  H38  1  0.04421235  0.50201910  0.83782709  1  0.048988  0  0.10084  0.109187  0  0.98332  0
H  H39  1  0.49797998  0.95578559  0.66217240  1  0.048973  0  0.100846  0.109182  0  0.983297  0
H  H40  1  0.95578727  0.49798117  0.16217476  1  0.049008  0  0.100841  0.109192  0  0.98332  0
H  H41  1  0.50201881  0.04421372  0.33782673  1  0.048983  0  0.10085  0.109199  0  0.983278  0
H  H42  1  0.96356848  0.61179993  0.85490082  1  0.051018  0  0.108722  0.122824  0  0.978221  0
H  H43  1  0.38819763  0.03642837  0.64509892  1  0.050829  0  0.108723  0.122827  0  0.978266  0
H  H44  1  0.03642862  0.38819911  0.14509921  1  0.050851  0  0.108715  0.122817  0  0.978237  0
H  H45  1  0.61180116  0.96357177  0.35490156  1  0.050834  0  0.108724  0.122834  0  0.978241  0
H  H46  1  0.05395133  0.61222161  0.78292318  1  0.118802  0  0.113781  0.137563  0  1.015903  0
H  H47  1  0.38777849  0.94604895  0.71707815  1  0.118779  0  0.113763  0.137528  0  1.015918  0
H  H48  1  0.94604997  0.38777892  0.21707899  1  0.118761  0  0.113767  0.137535  0  1.015936  0
H  H49  1  0.61222114  0.05395132  0.28292188  1  0.118747  0  0.11377  0.137539  0  1.015924  0
H  H50  1  0.76790958  0.51131090  0.79191330  1  0.066777  0  0.101203  0.116988  0  0.998807  0
H  H51  1  0.48868615  0.23208927  0.70808430  1  0.066713  0  0.101214  0.117017  0  0.99873  0
H  H52  1  0.23209086  0.48868620  0.20808573  1  0.0667  0  0.101221  0.117001  0  0.998756  0
H  H53  1  0.51131263  0.76791005  0.29191544  1  0.066707  0  0.101216  0.117005  0  0.998739  0
H  H54  1  0.82682077  0.38789046  0.79764011  1  0.04816  0  0.104904  0.122462  0  0.973063  0
H  H55  1  0.61210667  0.17317787  0.70235795  1  0.047651  0  0.104902  0.12248  0  0.973052  0
H  H56  1  0.17318050  0.61210595  0.20235894  1  0.047693  0  0.104928  0.122503  0  0.973092  0
H  H57  1  0.38789295  0.82682075  0.29764180  1  0.047668  0  0.104908  0.12248  0  0.973039  0
H  H58  1  0.74420116  0.39957702  0.69711196  1  0.109806  0  0.112031  0.130888  0  1.009913  0
H  H59  1  0.60042008  0.25579876  0.80288577  1  0.109867  0  0.112025  0.130903  0  1.009896  0
H  H60  1  0.25580097  0.60042036  0.30288678  1  0.109838  0  0.112014  0.13088  0  1.00988  0
H  H61  1  0.39957870  0.74419973  0.19711383  1  0.109865  0  0.112018  0.130888  0  1.009862  0
C  C62  1  0.07065178  0.28254766  0.52855986  1  1.614013  0  0.219529  0.602056  0  4.169855  0
C  C63  1  0.71744832  0.92935038  0.97143903  1  1.613588  0  0.219524  0.602123  0  4.16986  0
C  C64  1  0.92934866  0.71744861  0.47143904  1  1.613753  0  0.219549  0.602132  0  4.169841  0
C  C65  1  0.28255300  0.07065182  0.02856158  1  1.6136  0  0.219573  0.602238  0  4.169786  0
C  C66  1  0.13581255  0.27151916  0.61373598  1  -0.096015  0  -0.020506  -0.032908  0  3.988137  0
C  C67  1  0.72847643  0.86418752  0.88626369  1  -0.095244  0  -0.020524  -0.032952  0  3.987977  0
C  C68  1  0.86418705  0.72847863  0.38626425  1  -0.095265  0  -0.02053  -0.032888  0  3.988067  0
C  C69  1  0.27152406  0.13581454  0.11373616  1  -0.095283  0  -0.020513  -0.032997  0  3.988081  0
C  C70  1  0.20333308  0.36564085  0.67311887  1  -0.020603  0  -0.077852  -0.126357  0  3.916599  0
C  C71  1  0.63435594  0.79666728  0.82688105  1  -0.020596  0  -0.077822  -0.126271  0  3.916426  0
C  C72  1  0.79666570  0.63435681  0.32687998  1  -0.020614  0  -0.077855  -0.126392  0  3.91648  0
C  C73  1  0.36564456  0.20333644  0.17311967  1  -0.020623  0  -0.077861  -0.126392  0  3.916507  0
C  C74  1  0.26831674  0.35659137  0.75193319  1  0.013601  0  -0.01181  0.054701  0  4.022983  0
C  C75  1  0.64340736  0.73168253  0.74806682  1  0.013553  0  -0.011789  0.054684  0  4.022951  0
C  C76  1  0.73168206  0.64340795  0.24806593  1  0.013418  0  -0.01181  0.054712  0  4.022918  0
C  C77  1  0.35659398  0.26832132  0.25193406  1  0.013681  0  -0.011828  0.054665  0  4.022975  0
C  C78  1  0.26234938  0.25134821  0.77156489  1  -0.054021  0  -0.08124  -0.142073  0  3.928054  0
C  C79  1  0.74865126  0.73764852  0.72843617  1  -0.054011  0  -0.081302  -0.142169  0  3.928074  0
C  C80  1  0.73764859  0.74865262  0.22843495  1  -0.054521  0  -0.081274  -0.142074  0  3.928037  0
C  C81  1  0.25135007  0.26235450  0.27156519  1  -0.054235  0  -0.08124  -0.142  0  3.927905  0
C  C82  1  0.19321892  0.15736232  0.71283080  1  -0.108993  0  -0.023678  -0.042049  0  4.006187  0
C  C83  1  0.84263759  0.80678074  0.78716877  1  -0.108996  0  -0.023695  -0.04211  0  4.006136  0
C  C84  1  0.80678072  0.84263796  0.28716862  1  -0.108609  0  -0.023703  -0.042116  0  4.006163  0
C  C85  1  0.15736373  0.19322146  0.21283184  1  -0.109018  0  -0.023725  -0.042202  0  4.006222  0
C  C86  1  0.13067159  0.16725437  0.63375062  1  0.072722  0  -0.073675  -0.098758  0  3.915746  0
C  C87  1  0.83274386  0.86932788  0.86624931  1  0.072195  0  -0.073628  -0.09867  0  3.915491  0
C  C88  1  0.86932803  0.83274425  0.36624975  1  0.072144  0  -0.073613  -0.098693  0  3.915658  0
C  C89  1  0.16725830  0.13067445  0.13375207  1  0.072251  0  -0.073558  -0.098496  0  3.915415  0
C  C90  1  0.18294172  0.04491194  0.73325701  1  1.590137  0  0.222415  0.599281  0  4.191549  0
C  C91  1  0.95508745  0.81705745  0.76674416  1  1.590046  0  0.222404  0.599328  0  4.19153  0
C  C92  1  0.81705791  0.95508832  0.26674424  1  1.59012  0  0.22238  0.599272  0  4.191601  0
C  C93  1  0.04491219  0.18294283  0.23325586  1  1.590059  0  0.222404  0.599282  0  4.191603  0
C  C94  1  0.34300817  0.45643515  0.81206741  1  -0.033431  0  -0.008142  0.06184  0  4.021005  0
C  C95  1  0.54356400  0.65699030  0.68793195  1  -0.033466  0  -0.008138  0.061828  0  4.021069  0
C  C96  1  0.65699231  0.54356527  0.18793033  1  -0.033273  0  -0.00814  0.061791  0  4.021088  0
C  C97  1  0.45643646  0.34301011  0.31206885  1  -0.033577  0  -0.008087  0.061901  0  4.021079  0
C  C98  1  0.30927147  0.56173780  0.82560214  1  -0.077378  0  -0.070657  -0.11936  0  3.89453  0
C  C99  1  0.43826059  0.69072568  0.67439758  1  -0.077472  0  -0.070655  -0.11929  0  3.894608  0
C  C100  1  0.69072733  0.43826235  0.17439590  1  -0.077412  0  -0.070632  -0.119233  0  3.894606  0
C  C101  1  0.56173903  0.30927458  0.32560427  1  -0.077453  0  -0.070643  -0.119335  0  3.894616  0
C  C102  1  0.37902678  0.65516355  0.88438405  1  0.014514  0  -0.013887  -0.028262  0  3.95711  0
C  C103  1  0.34483627  0.62097081  0.61561599  1  0.014696  0  -0.013883  -0.028325  0  3.957199  0
C  C104  1  0.62097205  0.34483826  0.11561365  1  0.014693  0  -0.013919  -0.028281  0  3.957137  0
C  C105  1  0.65516418  0.37902958  0.38438663  1  0.014703  0  -0.013923  -0.028313  0  3.957226  0
C  C106  1  0.48674203  0.64608304  0.92741043  1  -0.075107  0  -0.070457  -0.095712  0  3.892417  0
C  C107  1  0.35391524  0.51325507  0.57258859  1  -0.075074  0  -0.070449  -0.095654  0  3.892448  0
C  C108  1  0.51325677  0.35391711  0.07258822  1  -0.075146  0  -0.070478  -0.0957  0  3.892253  0
C  C109  1  0.64608606  0.48674546  0.42741297  1  -0.075051  0  -0.070467  -0.095606  0  3.892306  0
C  C110  1  0.52334366  0.54262125  0.91091895  1  0.006587  0  -0.022075  -0.052709  0  4.015033  0
C  C111  1  0.45737800  0.47665586  0.58907992  1  0.006507  0  -0.02212  -0.052704  0  4.014933  0
C  C112  1  0.47665684  0.45738083  0.08907906  1  0.006407  0  -0.022071  -0.052729  0  4.014952  0
C  C113  1  0.54262080  0.52334511  0.41092070  1  0.006329  0  -0.022111  -0.052805  0  4.014899  0
C  C114  1  0.45066921  0.44832162  0.85551601  1  -0.026673  0  -0.074152  -0.12352  0  3.920515  0
C  C115  1  0.55167711  0.54933039  0.64448338  1  -0.026685  0  -0.074105  -0.123415  0  3.920365  0
C  C116  1  0.54933127  0.55167798  0.14448220  1  -0.02653  0  -0.074158  -0.123504  0  3.920519  0
C  C117  1  0.44832338  0.45067167  0.35551769  1  -0.026516  0  -0.074127  -0.123517  0  3.920429  0
C  C118  1  0.33981079  0.76628593  0.90083973  1  1.593004  0  0.223383  0.603874  0  4.159837  0
C  C119  1  0.23371384  0.66018703  0.59915983  1  1.592813  0  0.22336  0.603855  0  4.159849  0
C  C120  1  0.66018802  0.23371505  0.09915905  1  1.592859  0  0.223361  0.603791  0  4.159911  0
C  C121  1  0.76628662  0.33981255  0.40084083  1  1.592895  0  0.223337  0.603791  0  4.159966  0
C  C122  1  0.63929430  0.52809300  0.94801822  1  1.491157  0  0.228272  0.569194  0  4.130048  0
C  C123  1  0.47190682  0.36070400  0.55198107  1  1.49116  0  0.228214  0.569031  0  4.130144  0
C  C124  1  0.36070535  0.47190811  0.05198072  1  1.491158  0  0.228275  0.569183  0  4.129983  0
C  C125  1  0.52809447  0.63929570  0.44802097  1  1.491132  0  0.228248  0.569157  0  4.129965  0
C  C126  1  0.91320387  0.48082900  0.65377667  1  1.344646  0  0.181714  0.315407  0  4.045717  0
C  C127  1  0.51917337  0.08679724  0.84622327  1  1.344652  0  0.181666  0.31533  0  4.04572  0
C  C128  1  0.08679830  0.51917416  0.34622424  1  1.344652  0  0.181802  0.315547  0  4.045624  0
C  C129  1  0.48082542  0.91320207  0.15377646  1  1.344655  0  0.181702  0.315384  0  4.045709  0
C  C130  1  0.99731711  0.55896004  0.80686540  1  0.252097  0  -0.127858  -0.264906  0  3.893495  0
C  C131  1  0.44103808  0.00268158  0.69313406  1  0.2523  0  -0.127847  -0.264854  0  3.893475  0
C  C132  1  0.00268251  0.44103940  0.19313571  1  0.252278  0  -0.127845  -0.264881  0  3.893576  0
C  C133  1  0.55896071  0.99731773  0.30686567  1  0.252335  0  -0.127854  -0.264851  0  3.893518  0
C  C134  1  0.80549939  0.44597787  0.75661555  1  0.24331  0  -0.126512  -0.281364  0  3.921318  0
C  C135  1  0.55401792  0.19449959  0.74338180  1  0.243895  0  -0.126526  -0.281458  0  3.921236  0
C  C136  1  0.19450105  0.55401758  0.24338199  1  0.243875  0  -0.126533  -0.281433  0  3.92128  0
C  C137  1  0.44598254  0.80549916  0.25661812  1  0.243792  0  -0.126533  -0.281396  0  3.921241  0
N  N138  1  0.90520577  0.49605209  0.73568953  1  -1.18602  0  -0.28185  0.025417  0  3.726028  0
N  N139  1  0.50394694  0.09479417  0.76431031  1  -1.186047  0  -0.281866  0.025429  0  3.726084  0
N  N140  1  0.09479552  0.50394680  0.26431055  1  -1.186047  0  -0.281874  0.025397  0  3.726182  0
N  N141  1  0.49605267  0.90520362  0.23568993  1  -1.186051  0  -0.28185  0.025316  0  3.726192  0
O  O142  1  0.99788928  0.19779368  0.48291154  1  -1.167716  0  -0.31473  -0.536828  0  2.300396  0
O  O143  1  0.80220171  0.00211668  0.01708549  1  -1.167874  0  -0.314697  -0.536817  0  2.300344  0
O  O144  1  0.00211367  0.80220136  0.51708511  1  -1.167912  0  -0.314708  -0.536828  0  2.300381  0
O  O145  1  0.19779961  0.99788551  0.98291634  1  -1.167776  0  -0.314742  -0.536895  0  2.300271  0
O  O146  1  0.09223624  0.37314098  0.50623787  1  -1.198898  0  -0.321167  -0.58587  0  2.399099  0
O  O147  1  0.62685634  0.90776381  0.99376339  1  -1.19837  0  -0.321173  -0.58591  0  2.399141  0
O  O148  1  0.90776252  0.62685585  0.49376206  1  -1.198422  0  -0.321208  -0.585938  0  2.399067  0
O  O149  1  0.37314497  0.09223755  0.00623770  1  -1.198389  0  -0.321203  -0.58595  0  2.399102  0
O  O150  1  0.25118661  0.77562658  0.84729053  1  -1.156741  0  -0.31445  -0.547384  0  2.341584  0
O  O151  1  0.22437268  0.74881116  0.65270778  1  -1.156435  0  -0.314405  -0.547315  0  2.341616  0
O  O152  1  0.74881220  0.22437357  0.15270750  1  -1.156478  0  -0.314401  -0.547283  0  2.341614  0
O  O153  1  0.77562694  0.25118746  0.34729197  1  -1.156722  0  -0.3144  -0.547294  0  2.341602  0
O  O154  1  0.39410571  0.84234300  0.96549114  1  -1.196843  0  -0.312145  -0.579297  0  2.394555  0
O  O155  1  0.15765576  0.60589312  0.53450844  1  -1.196821  0  -0.312191  -0.579332  0  2.394516  0
O  O156  1  0.60589478  0.15765741  0.03450721  1  -1.196814  0  -0.312165  -0.579293  0  2.394545  0
O  O157  1  0.84234553  0.39410494  0.46549211  1  -1.1969  0  -0.312164  -0.579282  0  2.394575  0
O  O158  1  0.70325053  0.62328770  0.00258112  1  -1.121423  0  -0.32659  -0.466576  0  2.251965  0
O  O159  1  0.37671195  0.29674748  0.49741825  1  -1.121419  0  -0.32655  -0.466525  0  2.251969  0
O  O160  1  0.29674826  0.37671244  0.99741936  1  -1.121391  0  -0.326534  -0.466486  0  2.252005  0
O  O161  1  0.62328936  0.70325389  0.50258223  1  -1.121426  0  -0.326537  -0.466487  0  2.252044  0
O  O162  1  0.67702656  0.44078942  0.93131947  1  -1.151202  0  -0.300966  -0.511533  0  2.09824  0
O  O163  1  0.55921012  0.32297230  0.56868100  1  -1.15122  0  -0.300934  -0.511469  0  2.098288  0
O  O164  1  0.32297308  0.55921085  0.06867994  1  -1.15123  0  -0.300972  -0.511536  0  2.0982  0
O  O165  1  0.44079117  0.67702822  0.43132240  1  -1.151178  0  -0.30094  -0.511489  0  2.098196  0
O  O166  1  0.23816696  0.03891429  0.80711302  1  -1.169607  0  -0.312681  -0.549098  0  2.374724  0
O  O167  1  0.96108621  0.76183365  0.69288853  1  -1.169575  0  -0.31269  -0.549108  0  2.374733  0
O  O168  1  0.76183350  0.96108611  0.19288839  1  -1.169574  0  -0.312678  -0.549083  0  2.374726  0
O  O169  1  0.03891259  0.23816649  0.30711073  1  -1.169572  0  -0.312686  -0.549094  0  2.374769  0
O  O170  1  0.11991470  0.96526381  0.67497317  1  -1.192864  0  -0.314745  -0.556785  0  2.402183  0
O  O171  1  0.03473557  0.88008513  0.82502755  1  -1.19254  0  -0.314729  -0.556797  0  2.402148  0
O  O172  1  0.88008576  0.03473577  0.32502749  1  -1.192915  0  -0.314726  -0.55677  0  2.402191  0
O  O173  1  0.96526490  0.11991446  0.17497128  1  -1.192555  0  -0.314727  -0.556742  0  2.402167  0
O  O174  1  0.99966229  0.51521239  0.63200990  1  -1.153134  0  -0.290422  -0.455245  0  2.393769  0
O  O175  1  0.48479447  0.00033749  0.86799052  1  -1.153096  0  -0.29035  -0.455164  0  2.393663  0
O  O176  1  0.00033907  0.48479477  0.36799214  1  -1.15314  0  -0.290475  -0.455319  0  2.393612  0
O  O177  1  0.51520431  0.99966100  0.13200847  1  -1.153059  0  -0.290431  -0.455236  0  2.393638  0
