# generated using pymatgen
data_AgH7C8S(NO)3
_symmetry_space_group_name_H-M   'P 1'
_cell_length_a   5.55759756
_cell_length_b   10.45915689
_cell_length_c   12.48270362
_cell_angle_alpha   105.52213582
_cell_angle_beta   98.76947549
_cell_angle_gamma   96.18743180
_symmetry_Int_Tables_number   1
_chemical_formula_structural   AgH7C8S(NO)3
_chemical_formula_sum   'Ag2 H14 C16 S2 N6 O6'
_cell_volume   682.49199427
_cell_formula_units_Z   2
loop_
 _symmetry_equiv_pos_site_id
 _symmetry_equiv_pos_as_xyz
  1  'x, y, z'
loop_
 _atom_site_type_symbol
 _atom_site_label
 _atom_site_symmetry_multiplicity
 _atom_site_fract_x
 _atom_site_fract_y
 _atom_site_fract_z
 _atom_site_occupancy
 _atom_site_hle17_bader_spin_density
 _atom_site_hle17_ddec_charge
 _atom_site_hle17_ddec_spin_density
 _atom_site_hle17_ddec_sum_bond_order
 _atom_site_hle17_magmom
 _atom_site_hse06_10hf_bader_spin_density
 _atom_site_hse06_10hf_ddec_charge
 _atom_site_hse06_10hf_ddec_spin_density
 _atom_site_hse06_10hf_ddec_sum_bond_order
 _atom_site_hse06_10hf_magmom
 _atom_site_hse06_bader_spin_density
 _atom_site_hse06_ddec_charge
 _atom_site_hse06_ddec_spin_density
 _atom_site_hse06_ddec_sum_bond_order
 _atom_site_hse06_magmom
 _atom_site_pbe_bader_spin_density
 _atom_site_pbe_cm5_charge
 _atom_site_pbe_ddec_charge
 _atom_site_pbe_ddec_spin_density
 _atom_site_pbe_ddec_sum_bond_order
 _atom_site_pbe_magmom
Ag  Ag0  1  0.91621355  0.93524070  0.08034941  1  0  0.459459  0  1.636232  0  0  0.343957  0  2.108321  0  0  0.369202  0  2.056276  0  0  0.426358  0.32722  0  2.143963  0
Ag  Ag1  1  0.08379453  0.06475658  0.91965268  1  0  0.459513  0  1.636135  0  0  0.344022  0  2.108205  0  0  0.369267  0  2.056162  0  0  0.426374  0.327285  0  2.143846  0
H  H2  1  0.32118823  0.91935097  0.71526363  1  0  0.095842  0  0.942609  0  0  0.102764  0  1.006174  0  0  0.105459  0  1.00283  0  0  0.125119  0.100582  0  1.008797  0
H  H3  1  0.67881538  0.08065028  0.28474062  1  0  0.095927  0  0.94257  0  0  0.102827  0  1.006135  0  0  0.105523  0  1.002794  0  0  0.12514  0.100643  0  1.008758  0
H  H4  1  0.30718967  0.68664712  0.58348452  1  0  0.119929  0  0.928907  0  0  0.132925  0  0.979073  0  0  0.136343  0  0.978847  0  0  0.116569  0.130436  0  0.979559  0
H  H5  1  0.69280205  0.31335790  0.41651414  1  0  0.120016  0  0.928742  0  0  0.132988  0  0.978921  0  0  0.136405  0  0.978696  0  0  0.116599  0.130497  0  0.979407  0
H  H6  1  0.99042369  0.50061762  0.59910021  1  0  0.071081  0  0.922027  0  0  0.08177  0  0.980209  0  0  0.084106  0  0.977622  0  0  0.119216  0.07993  0  0.982331  0
H  H7  1  0.00956933  0.49938538  0.40089570  1  0  0.07113  0  0.922077  0  0  0.081932  0  0.98014  0  0  0.084272  0  0.977544  0  0  0.119256  0.080092  0  0.982265  0
H  H8  1  0.49809452  0.55691960  0.82521175  1  0  0.109313  0  0.928446  0  0  0.120212  0  0.991889  0  0  0.121821  0  0.990916  0  0  0.10369  0.11906  0  0.992576  0
H  H9  1  0.50190492  0.44307957  0.17479018  1  0  0.1093  0  0.928465  0  0  0.120199  0  0.991905  0  0  0.121806  0  0.990932  0  0  0.103683  0.119049  0  0.99259  0
H  H10  1  0.46153423  0.64077132  0.96548310  1  0  0.126108  0  0.93753  0  0  0.140641  0  0.996106  0  0  0.141789  0  0.99699  0  0  0.107596  0.139733  0  0.995741  0
H  H11  1  0.53846752  0.35922988  0.03451861  1  0  0.126113  0  0.937502  0  0  0.140643  0  0.996084  0  0  0.141792  0  0.996964  0  0  0.107586  0.139736  0  0.995724  0
H  H12  1  0.80003056  0.40949286  0.79751035  1  0  0.097615  0  0.945624  0  0  0.108327  0  1.003843  0  0  0.111471  0  1.00204  0  0  0.100407  0.106044  0  1.005196  0
H  H13  1  0.19997020  0.59050432  0.20249043  1  0  0.0976  0  0.945643  0  0  0.108308  0  1.003867  0  0  0.111455  0  1.00206  0  0  0.100389  0.106024  0  1.005219  0
H  H14  1  0.85067521  0.68902126  0.12652879  1  0  0.102872  0  0.979962  0  0  0.113108  0  1.043216  0  0  0.11636  0  1.040767  0  0  0.095234  0.11063  0  1.045202  0
H  H15  1  0.14932216  0.31097689  0.87347278  1  0  0.10291  0  0.979936  0  0  0.11317  0  1.04316  0  0  0.116422  0  1.040709  0  0  0.095259  0.110691  0  1.045151  0
C  C16  1  0.19594475  0.83303626  0.71796065  1  0  0.19348  0  3.658664  0  0  0.158447  0  3.910229  0  0  0.169731  0  3.926033  0  0  0.071939  0.150905  0  3.899915  0
C  C17  1  0.80405327  0.16697192  0.28204391  1  0  0.193324  0  3.658875  0  0  0.158335  0  3.910409  0  0  0.169616  0  3.926217  0  0  0.071872  0.150795  0  3.900091  0
C  C18  1  0.18426253  0.70521538  0.64413110  1  0  -0.185434  0  3.733931  0  0  -0.200879  0  3.99024  0  0  -0.211768  0  4.011047  0  0  -0.086157  -0.194193  0  3.976781  0
C  C19  1  0.81572973  0.29478457  0.35586251  1  0  -0.1855  0  3.73411  0  0  -0.200917  0  3.990432  0  0  -0.211806  0  4.011243  0  0  -0.086155  -0.194228  0  3.97697  0
C  C20  1  0.01081424  0.60404572  0.65291762  1  0  0.169767  0  3.737784  0  0  0.140446  0  3.999899  0  0  0.150903  0  4.014577  0  0  0.063721  0.133501  0  3.990009  0
C  C21  1  0.98917434  0.39596129  0.34708286  1  0  0.169801  0  3.737603  0  0  0.14037  0  3.99972  0  0  0.150828  0  4.014394  0  0  0.063698  0.133427  0  3.989833  0
C  C22  1  0.88924453  0.75114707  0.79731627  1  0  0.344788  0  3.750854  0  0  0.329516  0  4.022003  0  0  0.34616  0  4.03675  0  0  0.245833  0.31835  0  4.011902  0
C  C23  1  0.11075589  0.24885613  0.20268658  1  0  0.344765  0  3.75113  0  0  0.329529  0  4.022224  0  0  0.346174  0  4.036969  0  0  0.245838  0.318364  0  4.012121  0
C  C24  1  0.59504923  0.61899130  0.90925585  1  0  -0.168622  0  3.615094  0  0  -0.211456  0  3.865827  0  0  -0.209856  0  3.875599  0  0  -0.136619  -0.212359  0  3.85907  0
C  C25  1  0.40495201  0.38100788  0.09074459  1  0  -0.168653  0  3.615071  0  0  -0.211487  0  3.865807  0  0  -0.2099  0  3.875614  0  0  -0.136619  -0.212393  0  3.859058  0
C  C26  1  0.80244742  0.55710574  0.95625167  1  0  0.088306  0  3.76495  0  0  0.111031  0  4.00172  0  0  0.109659  0  4.028159  0  0  -0.01925  0.111598  0  3.983982  0
C  C27  1  0.19755385  0.44289345  0.04375038  1  0  0.088365  0  3.764967  0  0  0.111098  0  4.001719  0  0  0.109725  0  4.028155  0  0  -0.019184  0.111666  0  3.983977  0
C  C28  1  0.88785679  0.44954197  0.88635178  1  0  -0.102656  0  3.734376  0  0  -0.126937  0  3.986367  0  0  -0.129759  0  4.009207  0  0  -0.095924  -0.124624  0  3.97069  0
C  C29  1  0.11214055  0.55045615  0.11364817  1  0  -0.102628  0  3.734527  0  0  -0.126907  0  3.98649  0  0  -0.129727  0  4.009332  0  0  -0.095915  -0.124588  0  3.970808  0
C  C30  1  0.91643451  0.60641914  0.07061051  1  0  -0.119072  0  3.739277  0  0  -0.1394  0  3.990228  0  0  -0.14237  0  4.012483  0  0  -0.100029  -0.137391  0  3.975372  0
C  C31  1  0.08356469  0.39357903  0.92939119  1  0  -0.119108  0  3.739168  0  0  -0.139455  0  3.990114  0  0  -0.142423  0  4.012367  0  0  -0.100069  -0.137444  0  3.975262  0
S  S32  1  0.69179419  0.78696179  0.89580353  1  0  0.028276  0  2.703756  0  0  0.041323  0  3.118061  0  0  0.034437  0  3.10757  0  0  0.036484  0.045988  0  3.12547  0
S  S33  1  0.30820758  0.21303943  0.10419979  1  0  0.02829  0  2.703816  0  0  0.041331  0  3.118088  0  0  0.03445  0  3.107597  0  0  0.036488  0.045998  0  3.125496  0
N  N34  1  0.85845231  0.62680322  0.72715579  1  0  -0.367226  0  3.064188  0  0  -0.329013  0  3.325168  0  0  -0.344735  0  3.338747  0  0  -0.310538  -0.318487  0  3.315792  0
N  N35  1  0.14154888  0.37319590  0.27284144  1  0  -0.367273  0  3.064197  0  0  -0.32907  0  3.32521  0  0  -0.344792  0  3.33879  0  0  -0.310525  -0.318543  0  3.315833  0
N  N36  1  0.05281337  0.85612258  0.79649940  1  0  -0.341618  0  3.214705  0  0  -0.265446  0  3.481794  0  0  -0.286152  0  3.494603  0  0  -0.324292  -0.251906  0  3.473226  0
N  N37  1  0.94718813  0.14387761  0.20350208  1  0  -0.341563  0  3.214531  0  0  -0.265436  0  3.481623  0  0  -0.286138  0  3.494426  0  0  -0.324285  -0.251897  0  3.473053  0
N  N38  1  0.40513794  0.86755619  0.15835603  1  0  0.705747  0  4.11283  0  0  0.723389  0  4.421808  0  0  0.751918  0  4.429814  0  0  0.082773  0.703972  0  4.416419  0
N  N39  1  0.59486641  0.13244097  0.84164098  1  0  0.705876  0  4.112604  0  0  0.72354  0  4.421543  0  0  0.752065  0  4.429545  0  0  0.082864  0.704132  0  4.416149  0
O  O40  1  0.26142896  0.90364712  0.22656491  1  0  -0.454427  0  1.726519  0  0  -0.439343  0  1.944809  0  0  -0.455237  0  1.936828  0  0  -0.20888  -0.428017  0  1.950298  0
O  O41  1  0.73857477  0.09635501  0.77343152  1  0  -0.454524  0  1.726469  0  0  -0.439447  0  1.944746  0  0  -0.455336  0  1.936763  0  0  -0.208952  -0.428119  0  1.950237  0
O  O42  1  0.33334541  0.85062261  0.05280200  1  0  -0.500007  0  1.815982  0  0  -0.483624  0  2.07326  0  0  -0.501727  0  2.066311  0  0  -0.205555  -0.470898  0  2.078079  0
O  O43  1  0.66665980  0.14937056  0.94719501  1  0  -0.500059  0  1.815886  0  0  -0.483694  0  2.073171  0  0  -0.501817  0  2.066267  0  0  -0.205589  -0.470971  0  2.077994  0
O  O44  1  0.62185448  0.85048815  0.19528604  1  0  -0.473566  0  1.770533  0  0  -0.451806  0  1.998017  0  0  -0.467799  0  1.987856  0  0  -0.207727  -0.440133  0  2.004792  0
O  O45  1  0.37814991  0.14950904  0.80471338  1  0  -0.473573  0  1.770446  0  0  -0.451829  0  1.997925  0  0  -0.467818  0  1.987764  0  0  -0.207723  -0.440156  0  2.004701  0
