# generated using pymatgen
data_TbH13C20S(N2O3)2
_symmetry_space_group_name_H-M   'P 1'
_cell_length_a   6.84277051
_cell_length_b   9.96507076
_cell_length_c   15.01287944
_cell_angle_alpha   85.06445692
_cell_angle_beta   79.22455266
_cell_angle_gamma   79.50394231
_symmetry_Int_Tables_number   1
_chemical_formula_structural   TbH13C20S(N2O3)2
_chemical_formula_sum   'Tb2 H26 C40 S2 N8 O12'
_cell_volume   987.39816953
_cell_formula_units_Z   2
loop_
 _symmetry_equiv_pos_site_id
 _symmetry_equiv_pos_as_xyz
  1  'x, y, z'
loop_
 _atom_site_type_symbol
 _atom_site_label
 _atom_site_symmetry_multiplicity
 _atom_site_fract_x
 _atom_site_fract_y
 _atom_site_fract_z
 _atom_site_occupancy
 _atom_site_hle17_bader_spin_density
 _atom_site_hle17_ddec_charge
 _atom_site_hle17_ddec_spin_density
 _atom_site_hle17_ddec_sum_bond_order
 _atom_site_hle17_magmom
 _atom_site_hse06_10hf_bader_spin_density
 _atom_site_hse06_10hf_ddec_charge
 _atom_site_hse06_10hf_ddec_spin_density
 _atom_site_hse06_10hf_ddec_sum_bond_order
 _atom_site_hse06_10hf_magmom
 _atom_site_hse06_bader_spin_density
 _atom_site_hse06_ddec_charge
 _atom_site_hse06_ddec_spin_density
 _atom_site_hse06_ddec_sum_bond_order
 _atom_site_hse06_magmom
 _atom_site_pbe_bader_spin_density
 _atom_site_pbe_cm5_charge
 _atom_site_pbe_ddec_charge
 _atom_site_pbe_ddec_spin_density
 _atom_site_pbe_ddec_sum_bond_order
 _atom_site_pbe_magmom
Tb  Tb0  1  0.43637497  0.04772032  0.11426167  1  0  2.24367  0  1.725724  0  0  2.089147  0  2.202228  0  0  2.138501  0  2.156129  0  0  1.491513  2.050453  0  2.240651  0
Tb  Tb1  1  0.56362397  0.95227956  0.88573833  1  0  2.243696  0  1.725737  0  0  2.08919  0  2.20222  0  0  2.138545  0  2.156119  0  0  1.491523  2.050527  0  2.240597  0
H  H2  1  0.17973585  0.60226373  0.71311165  1  0  0.109727  0  0.943365  0  0  0.11996  0  1.000375  0  0  0.123521  0  0.998743  0  0  0.107846  0.117269  0  1.001752  0
H  H3  1  0.82026217  0.39773409  0.28688856  1  0  0.109787  0  0.94328  0  0  0.119988  0  1.000321  0  0  0.12355  0  0.99869  0  0  0.107875  0.117296  0  1.001699  0
H  H4  1  0.26564697  0.36099240  0.77357165  1  0  0.093915  0  0.972503  0  0  0.101857  0  1.038373  0  0  0.105178  0  1.036318  0  0  0.103098  0.099238  0  1.040316  0
H  H5  1  0.73435521  0.63900650  0.22642811  1  0  0.09392  0  0.97251  0  0  0.101874  0  1.038371  0  0  0.105179  0  1.036333  0  0  0.103087  0.099256  0  1.040313  0
H  H6  1  0.27101438  0.50410285  0.03438754  1  0  0.094961  0  0.967841  0  0  0.106757  0  1.026903  0  0  0.109661  0  1.025695  0  0  0.104962  0.104641  0  1.027929  0
H  H7  1  0.72898215  0.49589494  0.96561214  1  0  0.094946  0  0.967844  0  0  0.106755  0  1.026893  0  0  0.109654  0  1.025691  0  0  0.104975  0.104639  0  1.02792  0
H  H8  1  0.19537173  0.74507202  0.97474499  1  0  0.121774  0  0.943226  0  0  0.130508  0  1.002254  0  0  0.134925  0  0.998951  0  0  0.115533  0.127032  0  1.005013  0
H  H9  1  0.80462036  0.25492572  0.02525575  1  0  0.121783  0  0.943135  0  0  0.130515  0  1.002178  0  0  0.134934  0  0.998871  0  0  0.115506  0.127007  0  1.004975  0
H  H10  1  0.42076787  0.75855984  0.24874754  1  0  0.071402  0  0.981048  0  0  0.076728  0  1.052729  0  0  0.079665  0  1.049652  0  0  0.115375  0.074674  0  1.054847  0
H  H11  1  0.57922635  0.24144609  0.75124982  1  0  0.071392  0  0.981072  0  0  0.076773  0  1.052698  0  0  0.079708  0  1.049623  0  0  0.115364  0.074706  0  1.054829  0
H  H12  1  0.37138415  0.66148410  0.40948365  1  0  0.10424  0  0.944295  0  0  0.118867  0  0.995738  0  0  0.121506  0  0.995437  0  0  0.110754  0.117113  0  0.995779  0
H  H13  1  0.62861414  0.33851776  0.59051161  1  0  0.104217  0  0.944359  0  0  0.118864  0  0.995763  0  0  0.121501  0  0.995464  0  0  0.110777  0.117111  0  0.995803  0
H  H14  1  0.27477620  0.82294181  0.53608041  1  0  0.115103  0  0.930594  0  0  0.129136  0  0.985272  0  0  0.132415  0  0.982796  0  0  0.114752  0.126739  0  0.987046  0
H  H15  1  0.72522653  0.17705502  0.46391811  1  0  0.115056  0  0.93062  0  0  0.129092  0  0.985312  0  0  0.132372  0  0.982835  0  0  0.11474  0.126694  0  0.987085  0
H  H16  1  0.10071333  0.24392654  0.70142159  1  0  0.081443  0  0.92994  0  0  0.096388  0  0.983987  0  0  0.098293  0  0.981883  0  0  0.134796  0.094665  0  0.986094  0
H  H17  1  0.89928834  0.75607444  0.29858076  1  0  0.081432  0  0.930006  0  0  0.096384  0  0.984053  0  0  0.098291  0  0.981944  0  0  0.134771  0.094657  0  0.986159  0
H  H18  1  0.15538571  0.50923292  0.41354781  1  0  0.106742  0  0.967114  0  0  0.11039  0  1.039232  0  0  0.114633  0  1.034969  0  0  0.106057  0.107265  0  1.042327  0
H  H19  1  0.84463464  0.49077034  0.58645138  1  0  0.106706  0  0.967104  0  0  0.11043  0  1.039148  0  0  0.114625  0  1.034936  0  0  0.106072  0.107315  0  1.042233  0
H  H20  1  0.22980460  0.57548416  0.24603141  1  0  0.09643  0  0.948271  0  0  0.1091  0  1.003737  0  0  0.111654  0  1.003978  0  0  0.106711  0.107274  0  1.003672  0
H  H21  1  0.77019820  0.42451781  0.75396744  1  0  0.09649  0  0.9483  0  0  0.109121  0  1.003797  0  0  0.111672  0  1.004047  0  0  0.106716  0.107291  0  1.003735  0
H  H22  1  0.33680296  0.38880488  0.13637078  1  0  0.07129  0  0.99117  0  0  0.076875  0  1.061987  0  0  0.079896  0  1.059017  0  0  0.11391  0.074603  0  1.064284  0
H  H23  1  0.66318462  0.61119274  0.86362638  1  0  0.071271  0  0.991185  0  0  0.076849  0  1.06203  0  0  0.079871  0  1.059057  0  0  0.113914  0.074574  0  1.064335  0
H  H24  1  0.17389852  0.00487517  0.64153921  1  0  0.315285  0  0.932066  0  0  0.294838  0  0.994255  0  0  0.303294  0  0.9875  0  0  0.310648  0.288839  0  0.999104  0
H  H25  1  0.82610460  0.99512580  0.35846101  1  0  0.315316  0  0.932008  0  0  0.294871  0  0.994198  0  0  0.303329  0  0.987443  0  0  0.31065  0.288871  0  0.999048  0
H  H26  1  0.18329248  0.99119867  0.00516635  1  0  0.423315  0  0.861019  0  0  0.407808  0  0.898755  0  0  0.416554  0  0.885881  0  0  0.298894  0.401483  0  0.908113  0
H  H27  1  0.81670731  0.00879814  0.99483376  1  0  0.423315  0  0.861016  0  0  0.407809  0  0.898751  0  0  0.416554  0  0.885879  0  0  0.298887  0.401483  0  0.90811  0
C  C28  1  0.18067802  0.68648459  0.84068252  1  0  -0.113401  0  3.728703  0  0  -0.089373  0  3.977627  0  0  -0.095116  0  3.99871  0  0  -0.008059  -0.085253  0  3.963307  0
C  C29  1  0.81932118  0.31351425  0.15931618  1  0  -0.113419  0  3.728694  0  0  -0.089412  0  3.977651  0  0  -0.095155  0  3.998733  0  0  -0.008113  -0.085291  0  3.963324  0
C  C30  1  0.19974210  0.57985308  0.78341127  1  0  -0.066196  0  3.758837  0  0  -0.091277  0  4.009316  0  0  -0.091787  0  4.030088  0  0  -0.083325  -0.09097  0  3.995446  0
C  C31  1  0.80025507  0.42014780  0.21658882  1  0  -0.066304  0  3.758885  0  0  -0.091351  0  4.009377  0  0  -0.091862  0  4.030146  0  0  -0.083378  -0.091042  0  3.995506  0
C  C32  1  0.24748990  0.44558821  0.81731230  1  0  -0.075599  0  3.735585  0  0  -0.097114  0  3.984128  0  0  -0.098749  0  4.004893  0  0  -0.084418  -0.095784  0  3.97034  0
C  C33  1  0.75250991  0.55440862  0.18268914  1  0  -0.075568  0  3.735642  0  0  -0.097077  0  3.984164  0  0  -0.098699  0  4.004941  0  0  -0.084344  -0.095747  0  3.970379  0
C  C34  1  0.27516427  0.41705242  0.90760040  1  0  -0.061619  0  3.723618  0  0  -0.039042  0  3.952702  0  0  -0.044919  0  3.974736  0  0  -0.012505  -0.035103  0  3.937842  0
C  C35  1  0.72483439  0.58294849  0.09239955  1  0  -0.061577  0  3.723611  0  0  -0.039059  0  3.952727  0  0  -0.044939  0  3.97476  0  0  -0.01253  -0.035121  0  3.937871  0
C  C36  1  0.25135832  0.52598139  0.96414783  1  0  -0.05658  0  3.715856  0  0  -0.079673  0  3.966498  0  0  -0.081486  0  3.987914  0  0  -0.075985  -0.07851  0  3.952047  0
C  C37  1  0.74864092  0.47401748  0.03585287  1  0  -0.056531  0  3.715804  0  0  -0.079611  0  3.966453  0  0  -0.081419  0  3.987872  0  0  -0.075967  -0.078448  0  3.951994  0
C  C38  1  0.20555596  0.66073987  0.93132928  1  0  -0.059573  0  3.709348  0  0  -0.085845  0  3.965767  0  0  -0.085844  0  3.983916  0  0  -0.073014  -0.085501  0  3.95351  0
C  C39  1  0.79444297  0.33926001  0.06867071  1  0  -0.059588  0  3.709292  0  0  -0.085871  0  3.965745  0  0  -0.085871  0  3.983891  0  0  -0.073  -0.085503  0  3.953499  0
C  C40  1  0.33593888  0.27153417  0.94214936  1  0  0.703804  0  3.854254  0  0  0.657392  0  4.144034  0  0  0.692772  0  4.132836  0  0  0.231317  0.633052  0  4.151056  0
C  C41  1  0.66406116  0.72846160  0.05784880  1  0  0.703623  0  3.854589  0  0  0.657282  0  4.144282  0  0  0.692663  0  4.133085  0  0  0.231308  0.632944  0  4.151303  0
C  C42  1  0.37813746  0.82537312  0.30550095  1  0  0.126369  0  3.738266  0  0  0.093794  0  4.006035  0  0  0.101083  0  4.021172  0  0  0.04924  0.089114  0  3.99499  0
C  C43  1  0.62185582  0.17463073  0.69449529  1  0  0.12635  0  3.738342  0  0  0.093729  0  4.006098  0  0  0.101018  0  4.021239  0  0  0.049236  0.089061  0  3.995055  0
C  C44  1  0.35024978  0.77171735  0.39565731  1  0  -0.106073  0  3.740541  0  0  -0.119504  0  3.99768  0  0  -0.125093  0  4.018236  0  0  -0.082679  -0.116046  0  3.983506  0
C  C45  1  0.64974708  0.22828454  0.60434141  1  0  -0.106077  0  3.74059  0  0  -0.119505  0  3.997742  0  0  -0.125096  0  4.018297  0  0  -0.08267  -0.116045  0  3.98356  0
C  C46  1  0.29854912  0.86070129  0.46519576  1  0  -0.032388  0  3.670221  0  0  -0.064387  0  3.928625  0  0  -0.060686  0  3.943752  0  0  -0.065774  -0.066223  0  3.918256  0
C  C47  1  0.70145127  0.13929858  0.53480211  1  0  -0.032288  0  3.670139  0  0  -0.064326  0  3.928588  0  0  -0.060623  0  3.943715  0  0  -0.065795  -0.066159  0  3.918212  0
C  C48  1  0.27665336  0.00246532  0.44304816  1  0  -0.028002  0  3.780994  0  0  -0.016602  0  4.024899  0  0  -0.018769  0  4.046269  0  0  -0.00041  -0.015703  0  4.010859  0
C  C49  1  0.72335244  0.99753671  0.55695174  1  0  -0.028057  0  3.781021  0  0  -0.016645  0  4.024923  0  0  -0.018813  0  4.046294  0  0  -0.000439  -0.015744  0  4.010878  0
C  C50  1  0.22274857  0.10488177  0.50786155  1  0  0.091135  0  3.817082  0  0  0.07142  0  4.075412  0  0  0.07352  0  4.099846  0  0  0.088164  0.070219  0  4.059027  0
C  C51  1  0.77725780  0.89511822  0.49213910  1  0  0.091123  0  3.817217  0  0  0.071439  0  4.075445  0  0  0.07354  0  4.099878  0  0  0.088187  0.070243  0  4.059064  0
C  C52  1  0.13902042  0.22434907  0.62967291  1  0  0.226638  0  3.712544  0  0  0.170302  0  4.000258  0  0  0.1822  0  4.014668  0  0  0.145356  0.16273  0  3.990067  0
C  C53  1  0.86098864  0.77565198  0.37032743  1  0  0.226633  0  3.712641  0  0  0.170292  0  4.000378  0  0  0.182188  0  4.014792  0  0  0.145362  0.162727  0  3.990179  0
C  C54  1  0.20242297  0.24512266  0.48445773  1  0  0.0897  0  3.849367  0  0  0.08547  0  4.105394  0  0  0.086336  0  4.130074  0  0  0.082886  0.084643  0  4.088739  0
C  C55  1  0.79759503  0.75487855  0.51554447  1  0  0.08965  0  3.849346  0  0  0.085537  0  4.105194  0  0  0.086405  0  4.129871  0  0  0.082843  0.084693  0  4.088563  0
C  C56  1  0.23553911  0.29332636  0.39124613  1  0  -0.015569  0  3.759082  0  0  -0.002224  0  3.987789  0  0  -0.004803  0  4.010527  0  0  0.003935  1.2e-05  0  3.971666  0
C  C57  1  0.76447502  0.70667275  0.60875722  1  0  -0.01565  0  3.759284  0  0  -0.002354  0  3.988044  0  0  -0.004932  0  4.010773  0  0  0.00395  -0.000111  0  3.971925  0
C  C58  1  0.21081284  0.43286713  0.36297593  1  0  -0.037148  0  3.688214  0  0  -0.062953  0  3.937462  0  0  -0.059794  0  3.952984  0  0  -0.066844  -0.064408  0  3.926163  0
C  C59  1  0.78920781  0.56713512  0.63702463  1  0  -0.037166  0  3.68839  0  0  -0.063035  0  3.937665  0  0  -0.059834  0  3.953213  0  0  -0.066872  -0.064497  0  3.926357  0
C  C60  1  0.24801510  0.46891379  0.27125858  1  0  -0.119649  0  3.754056  0  0  -0.130874  0  4.008067  0  0  -0.138317  0  4.03134  0  0  -0.086631  -0.126795  0  3.992662  0
C  C61  1  0.75198670  0.53108097  0.72873949  1  0  -0.119615  0  3.753923  0  0  -0.130783  0  4.007948  0  0  -0.138226  0  4.031206  0  0  -0.086584  -0.126702  0  3.992541  0
C  C62  1  0.30737755  0.36532422  0.20930560  1  0  0.139981  0  3.735362  0  0  0.107876  0  3.999204  0  0  0.114494  0  4.016742  0  0  0.051284  0.103735  0  3.987537  0
C  C63  1  0.69261966  0.63467669  0.79069648  1  0  0.140015  0  3.735238  0  0  0.107887  0  3.999105  0  0  0.114507  0  4.01664  0  0  0.051252  0.103746  0  3.987438  0
C  C64  1  0.29282788  0.19424663  0.32394888  1  0  0.150701  0  3.725268  0  0  0.139602  0  3.976704  0  0  0.144744  0  3.995613  0  0  0.120241  0.136321  0  3.963717  0
C  C65  1  0.70717647  0.80575542  0.67605382  1  0  0.150796  0  3.725275  0  0  0.139634  0  3.976846  0  0  0.144775  0  3.995763  0  0  0.120208  0.136353  0  3.963862  0
C  C66  1  0.31149043  0.04876533  0.34965502  1  0  0.155267  0  3.714568  0  0  0.145994  0  3.965174  0  0  0.15121  0  3.983798  0  0  0.123324  0.142155  0  3.952835  0
C  C67  1  0.68851361  0.95123771  0.65034565  1  0  0.155312  0  3.714369  0  0  0.146026  0  3.965056  0  0  0.151243  0  3.983681  0  0  0.123332  0.142186  0  3.95272  0
S  S68  1  0.12741720  0.85854376  0.79819791  1  0  1.393804  0  5.552294  0  0  1.295276  0  6.071649  0  0  1.344508  0  6.043534  0  0  0.549878  1.260659  0  6.090258  0
S  S69  1  0.87257907  0.14145507  0.20180306  1  0  1.39386  0  5.552304  0  0  1.295343  0  6.071658  0  0  1.344576  0  6.043543  0  0  0.54991  1.260721  0  6.090272  0
N  N70  1  0.36118304  0.95882376  0.28267687  1  0  -0.4177  0  3.234889  0  0  -0.370666  0  3.506906  0  0  -0.383721  0  3.522896  0  0  -0.368518  -0.361007  0  3.495659  0
N  N71  1  0.63881569  0.04118228  0.71732341  1  0  -0.417727  0  3.234749  0  0  -0.370668  0  3.506769  0  0  -0.383722  0  3.522759  0  0  -0.368489  -0.361012  0  3.495517  0
N  N72  1  0.32790320  0.23256687  0.23408170  1  0  -0.429663  0  3.259032  0  0  -0.381596  0  3.531883  0  0  -0.395417  0  3.549335  0  0  -0.3709  -0.372338  0  3.520081  0
N  N73  1  0.67209578  0.76743304  0.76592029  1  0  -0.429711  0  3.258954  0  0  -0.38162  0  3.531874  0  0  -0.395444  0  3.549333  0  0  -0.370885  -0.372366  0  3.520078  0
N  N74  1  0.15027307  0.31890024  0.56160213  1  0  -0.412844  0  2.98165  0  0  -0.382973  0  3.257226  0  0  -0.396784  0  3.272242  0  0  -0.346685  -0.373454  0  3.246676  0
N  N75  1  0.84974252  0.68109887  0.43839975  1  0  -0.41282  0  2.981625  0  0  -0.382974  0  3.257163  0  0  -0.39679  0  3.272187  0  0  -0.346664  -0.373453  0  3.246614  0
N  N76  1  0.18194378  0.09423008  0.60099283  1  0  -0.328118  0  3.408776  0  0  -0.267012  0  3.649084  0  0  -0.284417  0  3.665601  0  0  -0.377858  -0.255179  0  3.63746  0
N  N77  1  0.81806114  0.90576992  0.39900928  1  0  -0.328125  0  3.408826  0  0  -0.267066  0  3.649164  0  0  -0.284473  0  3.665686  0  0  -0.377843  -0.255216  0  3.637491  0
O  O78  1  0.27837158  0.93079654  0.82154585  1  0  -0.768278  0  2.098819  0  0  -0.716934  0  2.378047  0  0  -0.73881  0  2.362626  0  0  -0.401875  -0.700064  0  2.388821  0
O  O79  1  0.72162501  0.06920130  0.17845715  1  0  -0.768283  0  2.098821  0  0  -0.716951  0  2.37805  0  0  -0.738828  0  2.362631  0  0  -0.401921  -0.700079  0  2.388825  0
O  O80  1  0.14144379  0.85339551  0.69974707  1  0  -0.655909  0  1.95515  0  0  -0.607484  0  2.198162  0  0  -0.627446  0  2.185094  0  0  -0.327961  -0.593436  0  2.206955  0
O  O81  1  0.85855636  0.14660542  0.30025342  1  0  -0.655936  0  1.95519  0  0  -0.607499  0  2.198186  0  0  -0.627461  0  2.185118  0  0  -0.327953  -0.59345  0  2.206975  0
O  O82  1  0.92587662  0.91715687  0.84531627  1  0  -0.764444  0  2.099762  0  0  -0.711172  0  2.375884  0  0  -0.733533  0  2.360168  0  0  -0.392212  -0.694516  0  2.386326  0
O  O83  1  0.07411787  0.08284295  0.15468413  1  0  -0.764429  0  2.099789  0  0  -0.711148  0  2.375891  0  0  -0.733509  0  2.360175  0  0  -0.392169  -0.69449  0  2.386333  0
O  O84  1  0.38920876  0.18135942  0.88307292  1  0  -0.718004  0  2.039809  0  0  -0.665555  0  2.287595  0  0  -0.69032  0  2.276498  0  0  -0.38179  -0.647603  0  2.295716  0
O  O85  1  0.61079070  0.81863837  0.11692450  1  0  -0.717936  0  2.039982  0  0  -0.66548  0  2.2877  0  0  -0.690243  0  2.276596  0  0  -0.381764  -0.647523  0  2.295823  0
O  O86  1  0.33120878  0.24941752  0.02722199  1  0  -0.705665  0  2.040072  0  0  -0.655226  0  2.295246  0  0  -0.680919  0  2.286392  0  0  -0.37797  -0.637369  0  2.301165  0
O  O87  1  0.66879368  0.75058034  0.97277716  1  0  -0.705632  0  2.04012  0  0  -0.655221  0  2.295271  0  0  -0.680912  0  2.286415  0  0  -0.378011  -0.637373  0  2.301193  0
O  O88  1  0.31787797  0.94406367  0.01109950  1  0  -1.154263  0  1.774963  0  0  -1.098013  0  1.990699  0  0  -1.123837  0  1.965853  0  0  -0.795055  -1.078697  0  2.00869  0
O  O89  1  0.68212275  0.05593522  0.98890107  1  0  -1.154261  0  1.774926  0  0  -1.098016  0  1.990673  0  0  -1.123841  0  1.965828  0  0  -0.795055  -1.078696  0  2.008658  0
