# generated using pymatgen
data_CoH16C10(NO)6
_symmetry_space_group_name_H-M   'P 1'
_cell_length_a   7.47786630
_cell_length_b   7.99883772
_cell_length_c   13.68859332
_cell_angle_alpha   90.01418294
_cell_angle_beta   89.98590891
_cell_angle_gamma   111.64456836
_symmetry_Int_Tables_number   1
_chemical_formula_structural   CoH16C10(NO)6
_chemical_formula_sum   'Co2 H32 C20 N12 O12'
_cell_volume   761.04096900
_cell_formula_units_Z   2
loop_
 _symmetry_equiv_pos_site_id
 _symmetry_equiv_pos_as_xyz
  1  'x, y, z'
loop_
 _atom_site_type_symbol
 _atom_site_label
 _atom_site_symmetry_multiplicity
 _atom_site_fract_x
 _atom_site_fract_y
 _atom_site_fract_z
 _atom_site_occupancy
 _atom_site_hle17_ddec_charge
 _atom_site_hle17_ddec_spin_density
 _atom_site_hle17_ddec_sum_bond_order
 _atom_site_hle17_magmom
 _atom_site_hse06_10hf_bader_charge
 _atom_site_hse06_10hf_bader_spin_density
 _atom_site_hse06_10hf_ddec_charge
 _atom_site_hse06_10hf_ddec_spin_density
 _atom_site_hse06_10hf_ddec_sum_bond_order
 _atom_site_hse06_10hf_magmom
 _atom_site_hse06_bader_charge
 _atom_site_hse06_bader_spin_density
 _atom_site_hse06_ddec_charge
 _atom_site_hse06_ddec_spin_density
 _atom_site_hse06_ddec_sum_bond_order
 _atom_site_hse06_magmom
 _atom_site_pbe_cm5_charge
 _atom_site_pbe_ddec_charge
 _atom_site_pbe_ddec_spin_density
 _atom_site_pbe_ddec_sum_bond_order
 _atom_site_pbe_magmom
Co  Co0  1  0.00001189  0.50000004  0.50000082  1  1.005365  -2.925799  1.998019  -2.602  1.327985  -2.678343  0.977584  -2.883799  2.388354  -2.661  1.393632  -2.747356  1.045871  -2.917903  2.32397  -2.728  0.642067  0.915978  -2.853668  2.449106  -2.597
Co  Co1  1  0.49998736  0.50000137  0.99999422  1  1.005677  2.925815  1.996843  2.602  1.327809  2.678483  0.978063  2.883869  2.387164  2.661  1.393562  2.747476  1.046398  2.917962  2.322729  2.728  0.641875  0.916246  2.853738  2.448247  2.597
H  H2  1  0.52410683  0.66356349  0.24171327  1  0.102354  -1.6e-05  0.920995  0.0  0.165869  0.000209  0.112251  -2.4e-05  0.98137  0.0  0.170965  0.000168  0.114602  -2.9e-05  0.978611  0.0  0.138768  0.110102  -2.3e-05  0.983832  0.0
H  H3  1  0.97593374  0.33643877  0.74168687  1  0.102424  1.5e-05  0.920812  0.0  0.165328  -0.00021  0.112331  2.3e-05  0.981149  0.0  0.17126  -0.000167  0.114678  2.9e-05  0.978394  0.0  0.138759  0.11018  2.3e-05  0.983616  0.0
H  H4  1  0.47587764  0.33645412  0.75828856  1  0.102388  -1.5e-05  0.921032  0.0  0.165656  0.000209  0.112316  -2.4e-05  0.981354  0.0  0.171018  0.000168  0.114655  -2.9e-05  0.978611  0.0  0.138883  0.110166  -2.3e-05  0.983818  0.0
H  H5  1  0.02408980  0.66356941  0.25831350  1  0.102351  1.5e-05  0.920861  0.0  0.165661  -0.00021  0.112242  2.3e-05  0.981216  0.0  0.170913  -0.000167  0.114618  2.9e-05  0.978429  0.0  0.138698  0.110088  2.3e-05  0.983692  0.0
H  H6  1  0.49738450  0.16801133  0.12628806  1  0.123498  7.3e-05  0.915058  0.001  0.178012  0.000278  0.135044  -3.7e-05  0.973144  0.0  0.21145  0.000247  0.138225  -4.4e-05  0.968283  0.0  0.151682  0.13199  -3.1e-05  0.976937  0.0
H  H7  1  0.00256274  0.83202521  0.62637161  1  0.123371  -7.3e-05  0.915338  -0.001  0.179016  -0.000279  0.135192  3.6e-05  0.973098  0.0  0.211345  -0.000247  0.138389  4.3e-05  0.968237  0.0  0.15156  0.132125  3.1e-05  0.976927  0.0
H  H8  1  0.50260246  0.83197534  0.87370792  1  0.12352  7.3e-05  0.91518  0.001  0.177975  0.000278  0.135011  -3.7e-05  0.97332  0.0  0.211342  0.000247  0.138178  -4.4e-05  0.968467  0.0  0.151763  0.131961  -3.1e-05  0.977108  0.0
H  H9  1  0.99744397  0.16797760  0.37362730  1  0.123372  -7.1e-05  0.915326  -0.001  0.17888  -0.000279  0.135131  3.6e-05  0.973168  0.0  0.21143  -0.000247  0.138458  4.3e-05  0.968286  0.0  0.151546  0.132061  3.1e-05  0.976996  0.0
H  H10  1  0.63981578  0.17306081  0.38954250  1  0.090948  0.000341  0.948258  0.0  0.119602  0.000346  0.103216  0.000257  1.0163  0.0  0.12139  0.000284  0.104037  0.000216  1.015234  0.0  0.11813  0.102387  0.000314  1.016606  0.0
H  H11  1  0.86008526  0.82694149  0.88954763  1  0.09109  -0.000343  0.948393  0.0  0.118743  -0.000347  0.103389  -0.000257  1.016428  0.0  0.121135  -0.000283  0.104211  -0.000216  1.015367  0.0  0.118109  0.102564  -0.000314  1.016733  0.0
H  H12  1  0.36018743  0.82695007  0.61045494  1  0.09105  0.000341  0.948213  0.0  0.119629  0.000346  0.103214  0.000257  1.016373  0.0  0.120952  0.000284  0.104028  0.000216  1.015325  0.0  0.118104  0.102387  0.000314  1.016674  0.0
H  H13  1  0.13990465  0.17304249  0.11045419  1  0.091084  -0.000343  0.948423  0.0  0.118948  -0.000347  0.103402  -0.000258  1.016404  0.0  0.121153  -0.000283  0.104332  -0.000216  1.015345  0.0  0.118112  0.102576  -0.000314  1.016708  0.0
H  H14  1  0.55556298  0.02676786  0.28842711  1  0.07282  8e-06  0.945989  0.0  0.080957  4.6e-05  0.087631  1.9e-05  1.011837  0.0  0.083698  3.6e-05  0.088858  1.4e-05  1.00915  0.0  0.111134  0.086558  2.1e-05  1.013148  0.0
H  H15  1  0.94444817  0.97318563  0.78842675  1  0.072571  -9e-06  0.946257  0.0  0.080816  -4.7e-05  0.087511  -1.9e-05  1.011986  0.0  0.083061  -3.7e-05  0.08874  -1.5e-05  1.009306  0.0  0.111081  0.086441  -2.1e-05  1.013294  0.0
H  H16  1  0.44445254  0.97324032  0.71157472  1  0.072822  8e-06  0.945977  0.0  0.080753  4.7e-05  0.087614  1.9e-05  1.01183  0.0  0.083599  3.6e-05  0.088839  1.4e-05  1.00915  0.0  0.111104  0.08654  2.1e-05  1.013143  0.0
H  H17  1  0.05552915  0.02680373  0.21158019  1  0.072602  -1e-05  0.946086  0.0  0.080669  -4.7e-05  0.087458  -1.9e-05  1.011896  0.0  0.082848  -3.7e-05  0.088791  -1.4e-05  1.009228  0.0  0.111035  0.086386  -2.1e-05  1.013207  0.0
H  H18  1  0.21531436  0.02052442  0.32816015  1  0.08803  0.000179  0.957666  0.0  0.015697  3.6e-05  0.102433  2.8e-05  1.023012  0.0  0.014429  9e-06  0.104213  1.8e-05  1.022025  0.0  0.097315  0.101202  5.7e-05  1.023662  0.0
H  H19  1  0.28466569  0.97943731  0.82815386  1  0.088083  -0.000181  0.957684  0.0  0.015334  -3.8e-05  0.102507  -2.8e-05  1.02305  0.0  0.014038  -1e-05  0.104289  -1.8e-05  1.02207  0.0  0.097368  0.101265  -5.8e-05  1.023704  0.0
H  H20  1  0.78468597  0.97946225  0.67184168  1  0.088072  0.000179  0.957793  0.0  0.015703  3.6e-05  0.102463  2.8e-05  1.023139  0.0  0.014317  9e-06  0.104239  1.8e-05  1.022167  0.0  0.097334  0.10122  5.7e-05  1.023801  0.0
H  H21  1  0.71531242  0.02055743  0.17184286  1  0.088048  -0.000179  0.957751  0.0  0.015453  -3.7e-05  0.102449  -2.8e-05  1.023062  0.0  0.014248  -1e-05  0.104233  -1.8e-05  1.022089  0.0  0.097351  0.101216  -5.7e-05  1.023708  0.0
H  H22  1  0.30721991  0.11912335  0.44190324  1  0.131122  0.000174  0.91375  0.0  0.093391  -9.7e-05  0.146395  -1.6e-05  0.970001  0.0  0.09679  -6.1e-05  0.149677  1.1e-05  0.967765  0.0  0.109238  0.143748  -4.1e-05  0.972006  0.0
H  H23  1  0.19269778  0.88090048  0.94192429  1  0.131129  -0.000174  0.913647  0.0  0.092314  9.7e-05  0.14644  1.6e-05  0.96992  0.0  0.096915  6.1e-05  0.149737  -1e-05  0.967658  0.0  0.109251  0.143794  4.2e-05  0.971927  0.0
H  H24  1  0.69278175  0.88086331  0.55810297  1  0.131138  0.000171  0.913678  0.0  0.093562  -9.7e-05  0.146388  -1.7e-05  0.969949  0.0  0.096897  -6.1e-05  0.149671  1e-05  0.967714  0.0  0.109227  0.143744  -4.1e-05  0.971953  0.0
H  H25  1  0.80729766  0.11911443  0.05806877  1  0.13113  -0.000172  0.913706  0.0  0.092414  9.7e-05  0.14633  1.6e-05  0.970037  0.0  0.096906  6.1e-05  0.149632  -1e-05  0.967775  0.0  0.10921  0.143683  4.2e-05  0.972043  0.0
H  H26  1  0.34557559  0.57919136  0.46206620  1  0.407473  0.000297  0.900995  0.001  0.654034  0.000106  0.375169  -5.1e-05  0.974523  0.0  0.668241  0.000221  0.386959  8.3e-05  0.957683  0.0  0.28283  0.36682  -0.000215  0.9863  0.0
H  H27  1  0.15447607  0.42089650  0.96207226  1  0.407375  -0.000296  0.900741  -0.001  0.65404  -0.000107  0.375096  5.1e-05  0.974496  0.0  0.668694  -0.000219  0.386881  -8.2e-05  0.957668  0.0  0.282838  0.366748  0.000216  0.986272  0.0
H  H28  1  0.65445701  0.42082623  0.53793344  1  0.407549  0.000297  0.900769  0.001  0.654106  0.000106  0.375222  -5.1e-05  0.974399  0.0  0.668439  0.000221  0.387006  8.3e-05  0.957571  0.0  0.282909  0.366873  -0.000214  0.986177  0.0
H  H29  1  0.84550582  0.57908748  0.03792372  1  0.407272  -0.000296  0.900849  -0.001  0.654062  -0.000106  0.375071  5.1e-05  0.974466  0.0  0.668517  -0.00022  0.386849  -8.2e-05  0.95765  0.0  0.282867  0.366724  0.000215  0.986239  0.0
H  H30  1  0.33862112  0.49502823  0.56809409  1  0.391886  7.5e-05  0.91459  0.0  0.647526  -0.000524  0.356869  -0.000422  0.991423  -0.001  0.659854  -0.000425  0.367752  -0.000293  0.975927  -0.001  0.285652  0.348915  -0.000515  1.002635  -0.001
H  H31  1  0.16140563  0.50501179  0.06813068  1  0.392196  -7.6e-05  0.913976  0.0  0.647073  0.000526  0.357115  0.000421  0.991021  0.001  0.659646  0.000428  0.368055  0.000294  0.975436  0.001  0.28584  0.349161  0.000514  1.002231  0.001
H  H32  1  0.66139919  0.50498533  0.43191212  1  0.391772  7.4e-05  0.914738  0.0  0.647716  -0.000526  0.35674  -0.000422  0.991604  -0.001  0.659951  -0.000426  0.367626  -0.000294  0.976102  -0.001  0.285578  0.34878  -0.000515  1.002821  -0.001
H  H33  1  0.83858428  0.49497218  0.93186603  1  0.391996  -7.6e-05  0.914254  0.0  0.647246  0.000527  0.356889  0.000421  0.991347  0.001  0.659659  0.000427  0.367779  0.000294  0.97584  0.001  0.285726  0.348934  0.000514  1.002558  0.001
C  C34  1  0.52487982  0.52882431  0.23484734  1  0.218192  -0.003635  3.672439  -0.005  0.993972  -0.00146  0.160004  -0.000569  3.969285  -0.001  1.056629  -0.000947  0.173625  -0.000383  3.976629  -0.001  0.154171  0.15106  -0.00103  3.962855  -0.001
C  C35  1  0.97521926  0.47122692  0.73476029  1  0.217544  0.003655  3.672507  0.005  0.995237  0.001472  0.159327  0.000574  3.969243  0.001  1.054405  0.000953  0.172959  0.000385  3.976584  0.001  0.153759  0.150373  0.001037  3.962826  0.001
C  C36  1  0.47510547  0.47118523  0.76515230  1  0.218187  -0.003636  3.672637  -0.005  0.994443  -0.001459  0.159947  -0.000568  3.969488  -0.001  1.056474  -0.000945  0.17357  -0.000381  3.976834  -0.001  0.154114  0.151002  -0.001029  3.963061  -0.001
C  C37  1  0.02479999  0.52878395  0.26524227  1  0.217626  0.003657  3.672455  0.005  0.994787  0.001473  0.159448  0.000574  3.969136  0.001  1.055036  0.000953  0.173198  0.000385  3.976494  0.001  0.153769  0.150494  0.001038  3.96272  0.001
C  C38  1  0.50987533  0.27768019  0.17574221  1  0.17298  -0.007218  3.622077  -0.01  0.999912  -0.003986  0.096533  -0.00209  3.897443  -0.003  1.022971  -0.002669  0.122159  -0.001461  3.909609  -0.002  0.165617  0.085429  -0.003272  3.892097  -0.004
C  C39  1  0.99006891  0.72232188  0.67574372  1  0.173131  0.00724  3.622412  0.01  0.998982  0.003998  0.096372  0.002095  3.897687  0.003  1.022932  0.002673  0.121958  0.001464  3.909893  0.002  0.165762  0.085263  0.003283  3.892351  0.004
C  C40  1  0.49011163  0.72230648  0.82426400  1  0.172988  -0.007223  3.622248  -0.01  0.999761  -0.003988  0.096581  -0.002091  3.897643  -0.003  1.022836  -0.00267  0.122182  -0.001462  3.909808  -0.002  0.165518  0.085477  -0.003274  3.892298  -0.004
C  C41  1  0.00994207  0.27768496  0.32425810  1  0.173057  0.007238  3.622248  0.01  0.999135  0.003997  0.096386  0.002094  3.897572  0.003  1.022768  0.002673  0.121391  0.001464  3.910079  0.002  0.165729  0.085276  0.003282  3.892232  0.004
C  C42  1  0.52500992  0.12454011  0.33494143  1  0.006882  -0.000107  3.647454  0.0  0.285516  -0.000256  -0.07222  -8.7e-05  3.913004  0.0  0.300066  -0.000124  -0.058034  -2.6e-05  3.924711  0.0  -0.051883  -0.075254  -0.000171  3.906577  0.0
C  C43  1  0.97498486  0.87550581  0.83498043  1  0.006986  0.000111  3.64757  0.0  0.285334  0.000255  -0.072217  8.6e-05  3.913231  0.0  0.299499  0.000122  -0.058062  2.5e-05  3.92497  0.0  -0.051821  -0.075249  0.00017  3.906805  0.0
C  C44  1  0.47499436  0.87546674  0.66505820  1  0.00686  -0.000107  3.647368  0.0  0.285742  -0.000256  -0.072126  -8.7e-05  3.9128  0.0  0.300617  -0.000123  -0.057979  -2.6e-05  3.924529  0.0  -0.051826  -0.075161  -0.000171  3.906372  0.0
C  C45  1  0.02500316  0.12448355  0.16502067  1  0.006917  0.000112  3.647347  0.0  0.285566  0.000255  -0.072176  8.6e-05  3.912906  0.0  0.299944  0.000123  -0.05857  2.5e-05  3.924953  0.0  -0.051773  -0.075208  0.00017  3.906482  0.0
C  C46  1  0.32855225  0.03585389  0.38262084  1  -0.280236  -0.003195  3.662131  -0.005  -0.020036  -0.003884  -0.323928  -0.00211  3.92058  -0.003  -0.01939  -0.002787  -0.329824  -0.001477  3.925327  -0.002  -0.165432  -0.31955  -0.002802  3.91608  -0.004
C  C47  1  0.17141223  0.96414352  0.88263351  1  -0.280441  0.003197  3.66258  0.005  -0.018032  0.00388  -0.324345  0.002108  3.921355  0.003  -0.018201  0.002782  -0.330259  0.001474  3.926134  0.002  -0.165544  -0.319965  0.002799  3.916874  0.004
C  C48  1  0.67145499  0.96415026  0.61738172  1  -0.280378  -0.003189  3.662325  -0.005  -0.020333  -0.003884  -0.323994  -0.00211  3.920757  -0.003  -0.019655  -0.002786  -0.329903  -0.001476  3.925519  -0.002  -0.165497  -0.319607  -0.002802  3.916263  -0.004
C  C49  1  0.82857360  0.03586736  0.11736467  1  -0.2803  0.003192  3.662645  0.005  -0.018565  0.00388  -0.323958  0.002107  3.921098  0.003  -0.018778  0.002781  -0.329805  0.001474  3.925968  0.002  -0.165436  -0.319584  0.002798  3.916606  0.004
C  C50  1  0.29374703  0.84717024  0.42083368  1  0.687992  0.002433  3.863367  0.004  1.6205  -0.000337  0.649863  -0.000537  4.163135  0.0  1.680981  -0.000515  0.683451  -0.000476  4.158899  0.0  0.204578  0.62586  -0.000322  4.16493  0.001
C  C51  1  0.20626012  0.15284973  0.92082223  1  0.688296  -0.002437  3.863181  -0.004  1.619961  0.000325  0.650261  0.00053  4.162929  0.0  1.681342  0.000503  0.683849  0.000469  4.158691  0.0  0.204781  0.626263  0.000315  4.164719  -0.001
C  C52  1  0.70629362  0.15284062  0.57916960  1  0.687808  0.002432  3.863781  0.004  1.619812  -0.000334  0.649544  -0.000537  4.163762  0.0  1.681128  -0.000512  0.683133  -0.000474  4.159533  0.0  0.204426  0.625543  -0.000322  4.165549  0.001
C  C53  1  0.79370544  0.84713695  0.07918398  1  0.687746  -0.002436  3.863694  -0.004  1.618652  0.000325  0.649712  0.000531  4.163459  0.0  1.681435  0.000504  0.683313  0.000468  4.159191  0.0  0.204553  0.625715  0.000316  4.16524  -0.001
N  N54  1  0.53279551  0.27540004  0.27312522  1  0.033796  0.000828  3.555759  0.001  -0.849659  0.000701  0.148962  0.000448  3.749239  0.001  -0.896451  0.000871  0.109152  0.000504  3.809544  0.001  -0.137212  0.156327  0.000252  3.732428  0.0
N  N55  1  0.96719694  0.72459716  0.77313017  1  0.034083  -0.00083  3.555933  -0.001  -0.849375  -0.000702  0.149152  -0.000449  3.749632  -0.001  -0.896971  -0.000871  0.109357  -0.000504  3.809963  -0.001  -0.137163  0.156516  -0.000251  3.732823  0.0
N  N56  1  0.46719755  0.72460547  0.72688099  1  0.033611  0.000828  3.556019  0.001  -0.849297  0.000701  0.148719  0.000448  3.749506  0.001  -0.896353  0.000872  0.108999  0.000504  3.809704  0.001  -0.137308  0.156085  0.000252  3.732699  0.0
N  N57  1  0.03280096  0.27540026  0.22687019  1  0.034253  -0.00083  3.555667  -0.001  -0.849415  -0.000702  0.149136  -0.000449  3.749542  -0.001  -0.896844  -0.000872  0.110039  -0.000505  3.809732  -0.001  -0.13717  0.156498  -0.000251  3.732732  0.0
N  N58  1  0.54216893  0.43519373  0.31210734  1  -0.262661  0.00353  2.907556  0.005  -0.704678  0.00242  -0.237929  0.001368  3.161048  0.002  -0.739307  0.002158  -0.238145  0.001206  3.178494  0.002  -0.204201  -0.232522  0.001507  3.154183  0.002
N  N59  1  0.95786567  0.56482895  0.81205379  1  -0.263085  -0.003539  2.907747  -0.005  -0.703881  -0.002424  -0.238303  -0.001371  3.161273  -0.002  -0.736991  -0.002161  -0.238538  -0.001208  3.178716  -0.002  -0.204356  -0.232896  -0.001509  3.15441  -0.002
N  N60  1  0.45783426  0.56482387  0.68789522  1  -0.262676  0.003532  2.907831  0.005  -0.704897  0.002422  -0.237826  0.001369  3.161238  0.002  -0.739027  0.00216  -0.238072  0.001207  3.17867  0.002  -0.204149  -0.232422  0.001508  3.154376  0.002
N  N61  1  0.04211352  0.43516176  0.18794585  1  -0.26316  -0.00354  2.907602  -0.005  -0.703771  -0.002425  -0.238376  -0.001371  3.161204  -0.002  -0.737274  -0.002161  -0.239058  -0.001208  3.178801  -0.002  -0.204331  -0.232971  -0.00151  3.154343  -0.002
N  N62  1  0.50444968  0.43653422  0.14915023  1  -0.394331  0.030492  3.265664  0.053  -1.222814  0.038847  -0.353798  0.022683  3.577739  0.035  -1.287075  0.033266  -0.376164  0.019765  3.581848  0.03  -0.342907  -0.337318  0.024819  3.573919  0.039
N  N63  1  0.99556110  0.56350130  0.64908114  1  -0.393599  -0.030514  3.266134  -0.054  -1.223925  -0.038867  -0.352727  -0.022691  3.577905  -0.035  -1.28619  -0.033284  -0.375084  -0.019774  3.582005  -0.03  -0.342503  -0.336283  -0.02482  3.574083  -0.039
N  N64  1  0.49554129  0.56345245  0.85085160  1  -0.39423  0.030497  3.265662  0.054  -1.222886  0.038854  -0.353699  0.022686  3.577745  0.035  -1.287013  0.033267  -0.37606  0.019768  3.581841  0.03  -0.342925  -0.33722  0.024821  3.573932  0.039
N  N65  1  0.00445121  0.43650554  0.35092215  1  -0.393581  -0.030518  3.266098  -0.054  -1.223938  -0.038868  -0.352679  -0.022692  3.577779  -0.035  -1.286151  -0.033286  -0.374891  -0.019775  3.581979  -0.03  -0.342453  -0.336236  -0.024822  3.57395  -0.039
O  O66  1  0.13597393  0.77386042  0.46800459  1  -0.652068  -0.039445  2.035845  -0.065  -1.218562  -0.053996  -0.619492  -0.029661  2.300288  -0.047  -1.264325  -0.040839  -0.654246  -0.022973  2.289907  -0.036  -0.333821  -0.590337  -0.037069  2.305529  -0.058
O  O67  1  0.36402346  0.22610688  0.96798461  1  -0.652252  0.039433  2.03579  0.065  -1.21857  0.053963  -0.619712  0.029649  2.300214  0.047  -1.265033  0.040817  -0.654468  0.022964  2.289808  0.036  -0.333924  -0.590531  0.037049  2.305479  0.058
O  O68  1  0.86406355  0.22613565  0.53199504  1  -0.651863  -0.039439  2.036062  -0.065  -1.217879  -0.053986  -0.619248  -0.029658  2.300559  -0.047  -1.264861  -0.040839  -0.653992  -0.022972  2.290169  -0.036  -0.333621  -0.590087  -0.037065  2.305783  -0.058
O  O69  1  0.63595570  0.77389728  0.03200407  1  -0.651893  0.039432  2.036099  0.065  -1.217639  0.053953  -0.619319  0.029649  2.300436  0.047  -1.264985  0.040814  -0.65407  0.022963  2.290026  0.036  -0.333623  -0.590145  0.037048  2.305709  0.058
O  O70  1  0.41612676  0.77651393  0.40247943  1  -0.627282  -0.001242  1.911664  -0.003  -1.216024  -0.002804  -0.573362  -0.001181  2.12192  -0.003  -1.256183  -0.001755  -0.598319  -0.000691  2.113706  -0.002  -0.323121  -0.555534  -0.001808  2.12715  -0.004
O  O71  1  0.08395757  0.22356222  0.90244444  1  -0.627268  0.00124  1.91129  0.003  -1.215409  0.002798  -0.573375  0.001179  2.121517  0.003  -1.255775  0.001757  -0.598326  0.000692  2.11331  0.002  -0.32318  -0.555562  0.001804  2.126775  0.004
O  O72  1  0.58390507  0.22349156  0.59752093  1  -0.627236  -0.001241  1.911631  -0.003  -1.215892  -0.002804  -0.573309  -0.001182  2.121995  -0.003  -1.255584  -0.001756  -0.598264  -0.000692  2.11379  -0.002  -0.323126  -0.555488  -0.001808  2.127235  -0.004
O  O73  1  0.91601122  0.77641908  0.09754643  1  -0.627184  0.001241  1.91126  0.003  -1.214763  0.002799  -0.573387  0.001179  2.121511  0.003  -1.255838  0.001758  -0.598315  0.000693  2.113286  0.002  -0.323312  -0.555574  0.001805  2.126766  0.004
O  O74  1  0.27034411  0.47349027  0.50442150  1  -0.814228  -0.036803  1.974154  -0.058  -1.287359  -0.057111  -0.782759  -0.031363  2.188341  -0.047  -1.321692  -0.0438  -0.811196  -0.024529  2.154903  -0.037  -0.581478  -0.758127  -0.038654  2.211553  -0.058
O  O75  1  0.22972834  0.52655963  0.00445489  1  -0.81434  0.0368  1.973602  0.058  -1.286906  0.057102  -0.782772  0.031355  2.188244  0.047  -1.321862  0.04379  -0.811225  0.024523  2.154725  0.037  -0.581605  -0.758117  0.038638  2.211497  0.058
O  O76  1  0.72968957  0.52652328  0.49557886  1  -0.814171  -0.036796  1.973896  -0.058  -1.287635  -0.057114  -0.782615  -0.031359  2.188236  -0.047  -1.321893  -0.0438  -0.811061  -0.024526  2.154817  -0.037  -0.581466  -0.757981  -0.038648  2.211446  -0.058
O  O77  1  0.77025461  0.47342704  0.99553963  1  -0.81405  0.036792  1.973763  0.058  -1.287148  0.057096  -0.78247  0.031349  2.188346  0.047  -1.321658  0.043779  -0.810916  0.024517  2.154899  0.037  -0.581549  -0.757814  0.038631  2.211595  0.058
