# generated using pymatgen
data_CoH12C16(NO2)2
_symmetry_space_group_name_H-M   'P 1'
_cell_length_a   8.07719626
_cell_length_b   10.46763621
_cell_length_c   10.93138203
_cell_angle_alpha   90.00005176
_cell_angle_beta   88.77516993
_cell_angle_gamma   89.99978440
_symmetry_Int_Tables_number   1
_chemical_formula_structural   CoH12C16(NO2)2
_chemical_formula_sum   'Co2 H24 C32 N4 O8'
_cell_volume   924.02790566
_cell_formula_units_Z   2
loop_
 _symmetry_equiv_pos_site_id
 _symmetry_equiv_pos_as_xyz
  1  'x, y, z'
loop_
 _atom_site_type_symbol
 _atom_site_label
 _atom_site_symmetry_multiplicity
 _atom_site_fract_x
 _atom_site_fract_y
 _atom_site_fract_z
 _atom_site_occupancy
 _atom_site_pbe_bader_charge
 _atom_site_pbe_bader_spin_density
 _atom_site_pbe_cm5_charge
 _atom_site_pbe_ddec_charge
 _atom_site_pbe_ddec_spin_density
 _atom_site_pbe_ddec_sum_bond_order
 _atom_site_pbe_magmom
Co  Co0  1  0.00000193  0.49999923  0.00000069  1  1.170201  0.996935  0.659917  0.681013  1.056768  2.954804  0.987
Co  Co1  1  0.49999882  0.00000125  0.50000178  1  1.170209  0.996928  0.659934  0.68108  1.05676  2.954799  0.987
H  H2  1  0.70145522  0.61264619  0.91269797  1  0.120775  -5.5e-05  0.122699  0.098209  -0.000204  1.002382  0.0
H  H3  1  0.79855477  0.11264835  0.58729775  1  0.120689  -5.5e-05  0.122689  0.098175  -0.000204  1.002444  0.0
H  H4  1  0.29854504  0.38735286  0.08730883  1  0.120782  -5.5e-05  0.122715  0.098186  -0.000204  1.002385  0.0
H  H5  1  0.20144428  0.88734783  0.41269351  1  0.120717  -5.5e-05  0.122661  0.098164  -0.000204  1.002371  0.0
H  H6  1  0.44521590  0.53676857  0.81328929  1  0.084577  -3.1e-05  0.102845  0.110379  -1.8e-05  1.035697  0.0
H  H7  1  0.05479388  0.03677138  0.68669926  1  0.084515  -3.1e-05  0.102847  0.110364  -1.8e-05  1.035619  0.0
H  H8  1  0.55478560  0.46322857  0.18671840  1  0.084617  -3.1e-05  0.102829  0.110356  -1.8e-05  1.035647  0.0
H  H9  1  0.94520890  0.96322767  0.31328920  1  0.084562  -3.1e-05  0.102863  0.110366  -1.8e-05  1.035701  0.0
H  H10  1  0.66235272  0.16010168  0.79960539  1  0.125043  -0.000145  0.108388  0.123731  -0.000105  1.009151  0.0
H  H11  1  0.83764700  0.66010828  0.70040325  1  0.125076  -0.000145  0.108357  0.123721  -0.000105  1.009085  0.0
H  H12  1  0.33764880  0.83990024  0.20038767  1  0.12503  -0.000145  0.108421  0.123788  -0.000105  1.009119  0.0
H  H13  1  0.16234210  0.33989364  0.29960737  1  0.125056  -0.000145  0.108347  0.123748  -0.000105  1.009019  0.0
H  H14  1  0.90734305  0.25026047  0.90164776  1  0.106372  -0.000155  0.120252  0.091925  -0.00029  0.99743  0.0
H  H15  1  0.59265727  0.75026717  0.59835989  1  0.106423  -0.000155  0.120291  0.091991  -0.00029  0.997417  0.0
H  H16  1  0.09265971  0.74973858  0.09834620  1  0.106388  -0.000155  0.120262  0.091981  -0.00029  0.997383  0.0
H  H17  1  0.40733432  0.24973666  0.40164795  1  0.106487  -0.000155  0.120287  0.09199  -0.00029  0.997377  0.0
H  H18  1  0.25219711  0.15943399  0.62944286  1  0.06054  -0.000459  0.102921  0.041955  -0.000536  1.050719  0.0
H  H19  1  0.24780063  0.65942304  0.87055584  1  0.060497  -0.000459  0.10293  0.041939  -0.000537  1.050684  0.0
H  H20  1  0.74779946  0.84056984  0.37055484  1  0.060551  -0.000459  0.102919  0.041945  -0.000536  1.050703  0.0
H  H21  1  0.75219717  0.34057888  0.12944459  1  0.060479  -0.000459  0.102928  0.041934  -0.000537  1.050655  0.0
H  H22  1  0.10954229  0.28682500  0.74489694  1  0.032122  0.001072  0.090167  0.022454  0.000296  1.017034  0.001
H  H23  1  0.39045453  0.78681830  0.75509984  1  0.03212  0.001072  0.090156  0.022495  0.000296  1.017038  0.001
H  H24  1  0.89046170  0.71317882  0.25510157  1  0.032064  0.001072  0.090128  0.022426  0.000296  1.016993  0.001
H  H25  1  0.60954079  0.21318744  0.24489971  1  0.03204  0.001072  0.090119  0.022425  0.000296  1.017024  0.001
C  C26  1  0.68698666  0.51326365  0.88601680  1  0.436829  -0.007298  0.040391  0.081047  -0.007623  3.943579  -0.005
C  C27  1  0.81301909  0.01326491  0.61397814  1  0.437064  -0.007298  0.040415  0.080984  -0.007623  3.943566  -0.005
C  C28  1  0.31301731  0.48673731  0.11398994  1  0.436733  -0.007299  0.040353  0.080899  -0.007623  3.943301  -0.005
C  C29  1  0.18697996  0.98673319  0.38601221  1  0.4367  -0.007298  0.040418  0.080979  -0.007623  3.943392  -0.005
C  C30  1  0.54490204  0.46984414  0.83068982  1  0.015448  0.001762  -0.088506  -0.179145  0.000462  3.94396  0.001
C  C31  1  0.95510541  0.96984569  0.66930383  1  0.015706  0.001763  -0.088483  -0.178986  0.000462  3.943792  0.001
C  C32  1  0.45510070  0.53015778  0.16931602  1  0.01547  0.001762  -0.088435  -0.178999  0.000462  3.943676  0.001
C  C33  1  0.04489489  0.03015336  0.33068651  1  0.015436  0.001762  -0.088485  -0.179037  0.000462  3.943829  0.001
C  C34  1  0.66476395  0.26119999  0.82252398  1  -0.050606  0.001877  -0.088789  -0.180756  0.000555  3.941443  0.002
C  C35  1  0.83523631  0.76120557  0.67747725  1  -0.050576  0.001877  -0.088786  -0.180795  0.000555  3.941552  0.002
C  C36  1  0.33524254  0.73880289  0.17746534  1  -0.050641  0.001877  -0.088882  -0.180917  0.000555  3.941594  0.002
C  C37  1  0.16475404  0.23879635  0.32253152  1  -0.050609  0.001877  -0.088788  -0.18087  0.000555  3.941656  0.002
C  C38  1  0.80275649  0.31080237  0.87884520  1  0.416618  -0.00739  0.034732  0.060243  -0.007792  3.974164  -0.005
C  C39  1  0.69724838  0.81080801  0.62115319  1  0.416619  -0.007389  0.034667  0.060125  -0.007791  3.97456  -0.005
C  C40  1  0.19725000  0.68919859  0.12114687  1  0.416624  -0.00739  0.034667  0.060077  -0.007792  3.974314  -0.005
C  C41  1  0.30274446  0.18919200  0.37884915  1  0.416574  -0.007389  0.034645  0.060082  -0.007791  3.974544  -0.005
C  C42  1  0.52844754  0.34048348  0.79826461  1  -0.008503  -0.009128  0.010656  0.167846  -0.009369  3.966353  -0.006
C  C43  1  0.97155215  0.84048892  0.70173932  1  -0.008502  -0.009128  0.010645  0.167793  -0.009368  3.966508  -0.006
C  C44  1  0.47155521  0.65951748  0.20173758  1  -0.00855  -0.009128  0.010716  0.167938  -0.009369  3.966416  -0.006
C  C45  1  0.02844689  0.15951109  0.29826018  1  -0.008358  -0.009127  0.010634  0.16789  -0.009368  3.966446  -0.006
C  C46  1  0.37577750  0.29067285  0.74631352  1  0.019665  0.003575  -0.06893  -0.192843  0.00135  4.087664  0.004
C  C47  1  0.12422301  0.79067228  0.75368412  1  0.019526  0.003575  -0.068975  -0.192835  0.00135  4.087644  0.004
C  C48  1  0.62422526  0.70933575  0.25368043  1  0.019828  0.003575  -0.068942  -0.192954  0.00135  4.087794  0.004
C  C49  1  0.87577107  0.20933059  0.24631637  1  0.01961  0.003575  -0.068967  -0.192959  0.00135  4.087659  0.004
C  C50  1  0.37458822  0.19446954  0.65695252  1  0.686943  -0.009201  0.04473  0.191593  -0.010633  4.070416  -0.006
C  C51  1  0.12541545  0.69447017  0.84304790  1  0.686976  -0.0092  0.044743  0.191656  -0.010631  4.070428  -0.006
C  C52  1  0.62540957  0.80553047  0.34304974  1  0.68676  -0.009199  0.044748  0.191697  -0.01063  4.070433  -0.006
C  C53  1  0.87458483  0.30553175  0.15695067  1  0.686937  -0.0092  0.044667  0.191601  -0.010631  4.070256  -0.006
C  C54  1  0.21718171  0.33307993  0.78925841  1  0.777552  -0.004012  0.056145  0.229892  -0.004659  4.079707  -0.001
C  C55  1  0.28281848  0.83308378  0.71074561  1  0.777482  -0.004011  0.056102  0.229703  -0.004658  4.079766  -0.001
C  C56  1  0.78282103  0.66692007  0.21074378  1  0.777441  -0.004011  0.056133  0.2299  -0.004658  4.079705  -0.001
C  C57  1  0.71717807  0.16691909  0.28925484  1  0.777507  -0.004011  0.056187  0.229901  -0.004658  4.079803  -0.001
N  N58  1  0.81497610  0.43506637  0.91186242  1  -1.188899  -0.009543  -0.350815  -0.202208  -0.009118  3.662272  -0.006
N  N59  1  0.68502912  0.93507003  0.58813678  1  -1.189214  -0.009543  -0.350811  -0.202124  -0.009117  3.662429  -0.006
N  N60  1  0.18502789  0.56493172  0.08813975  1  -1.188788  -0.009543  -0.350789  -0.201938  -0.009118  3.661975  -0.006
N  N61  1  0.31496869  0.06492806  0.41186090  1  -1.188713  -0.009542  -0.350755  -0.201984  -0.009117  3.662254  -0.006
O  O62  1  0.50361604  0.14650152  0.60515487  1  -1.080403  -0.003446  -0.286694  -0.385799  -0.003406  2.547378  -0.002
O  O63  1  0.99638753  0.64649790  0.89483908  1  -1.080352  -0.003447  -0.286716  -0.385856  -0.003405  2.547465  -0.002
O  O64  1  0.49638423  0.85350040  0.39484552  1  -1.080283  -0.003448  -0.286734  -0.385892  -0.003406  2.547492  -0.002
O  O65  1  0.00361646  0.35350211  0.10516126  1  -1.0804  -0.003447  -0.286621  -0.385726  -0.003407  2.547303  -0.002
O  O66  1  0.19213383  0.41398754  0.87240989  1  -1.139156  0.044111  -0.280123  -0.419038  0.022706  2.422432  0.038
O  O67  1  0.30786579  0.91399303  0.62759499  1  -1.139139  0.044111  -0.280057  -0.418919  0.022706  2.42246  0.038
O  O68  1  0.80786768  0.58601151  0.12759415  1  -1.13913  0.044108  -0.280078  -0.419004  0.022705  2.422458  0.038
O  O69  1  0.69212953  0.08600984  0.37240639  1  -1.13916  0.04411  -0.280104  -0.419001  0.022706  2.422452  0.038
