# generated using pymatgen
data_CdH14C12(NCl)2
_symmetry_space_group_name_H-M   'P 1'
_cell_length_a   3.89255569
_cell_length_b   10.53876814
_cell_length_c   16.51308603
_cell_angle_alpha   79.86244619
_cell_angle_beta   83.12482285
_cell_angle_gamma   79.41600243
_symmetry_Int_Tables_number   1
_chemical_formula_structural   CdH14C12(NCl)2
_chemical_formula_sum   'Cd2 H28 C24 N4 Cl4'
_cell_volume   652.81332659
_cell_formula_units_Z   2
loop_
 _symmetry_equiv_pos_site_id
 _symmetry_equiv_pos_as_xyz
  1  'x, y, z'
loop_
 _atom_site_type_symbol
 _atom_site_label
 _atom_site_symmetry_multiplicity
 _atom_site_fract_x
 _atom_site_fract_y
 _atom_site_fract_z
 _atom_site_occupancy
 _atom_site_hle17_bader_spin_density
 _atom_site_hle17_ddec_charge
 _atom_site_hle17_ddec_spin_density
 _atom_site_hle17_ddec_sum_bond_order
 _atom_site_hle17_magmom
 _atom_site_hse06_10hf_bader_spin_density
 _atom_site_hse06_10hf_ddec_charge
 _atom_site_hse06_10hf_ddec_spin_density
 _atom_site_hse06_10hf_ddec_sum_bond_order
 _atom_site_hse06_10hf_magmom
 _atom_site_hse06_bader_spin_density
 _atom_site_hse06_ddec_charge
 _atom_site_hse06_ddec_spin_density
 _atom_site_hse06_ddec_sum_bond_order
 _atom_site_hse06_magmom
 _atom_site_pbe_bader_spin_density
 _atom_site_pbe_cm5_charge
 _atom_site_pbe_ddec_charge
 _atom_site_pbe_ddec_spin_density
 _atom_site_pbe_ddec_sum_bond_order
 _atom_site_pbe_magmom
Cd  Cd0  1  0.93139602  0.24962955  0.74944591  1  0  0.941181  0  1.909887  0  0  0.770745  0  2.361064  0  0  0.818079  0  2.322642  0  0  0.596936  0.736903  0  2.387793  0
Cd  Cd1  1  0.06861739  0.75037047  0.25055482  1  0  0.941171  0  1.909915  0  0  0.770741  0  2.361068  0  0  0.81807  0  2.322654  0  0  0.596942  0.736899  0  2.387793  0
H  H2  1  0.35473543  0.96708480  0.72265931  1  0  0.075101  0  0.963294  0  0  0.08309  0  1.030616  0  0  0.085658  0  1.027932  0  0  0.102353  0.081226  0  1.03245  0
H  H3  1  0.04787509  0.53159509  0.77625073  1  0  0.076698  0  0.962593  0  0  0.08419  0  1.030379  0  0  0.086756  0  1.027746  0  0  0.102303  0.0822  0  1.032557  0
H  H4  1  0.64527935  0.03291320  0.27733855  1  0  0.075329  0  0.963169  0  0  0.083171  0  1.030627  0  0  0.085738  0  1.027942  0  0  0.102379  0.081306  0  1.032464  0
H  H5  1  0.95213484  0.46840978  0.22374819  1  0  0.076701  0  0.962629  0  0  0.084184  0  1.030424  0  0  0.086749  0  1.027795  0  0  0.102284  0.082194  0  1.032603  0
H  H6  1  0.49217005  0.73714607  0.79555887  1  0  0.097559  0  0.980365  0  0  0.109126  0  1.041385  0  0  0.111335  0  1.042469  0  0  0.100353  0.107615  0  1.040748  0
H  H7  1  0.02639759  0.76208519  0.70405232  1  0  0.097432  0  0.979999  0  0  0.10958  0  1.040371  0  0  0.111776  0  1.041434  0  0  0.100841  0.108081  0  1.039717  0
H  H8  1  0.50780450  0.26285104  0.20444358  1  0  0.097467  0  0.980286  0  0  0.109122  0  1.041216  0  0  0.111339  0  1.042281  0  0  0.100315  0.107611  0  1.040581  0
H  H9  1  0.97360260  0.23791864  0.29594395  1  0  0.097446  0  0.979953  0  0  0.109592  0  1.040352  0  0  0.111787  0  1.041417  0  0  0.100816  0.108092  0  1.039701  0
H  H10  1  0.80210135  0.85325087  0.00321085  1  0  0.107654  0  0.975059  0  0  0.116262  0  1.040242  0  0  0.119427  0  1.039365  0  0  0.096983  0.114045  0  1.040999  0
H  H11  1  0.65520301  0.64755370  0.49686210  1  0  0.107749  0  0.976014  0  0  0.116619  0  1.040664  0  0  0.11975  0  1.03985  0  0  0.097069  0.114285  0  1.04155  0
H  H12  1  0.19790012  0.14674828  0.99679462  1  0  0.107675  0  0.975096  0  0  0.116366  0  1.040182  0  0  0.119533  0  1.039294  0  0  0.097023  0.11415  0  1.040942  0
H  H13  1  0.34478435  0.35244529  0.50313678  1  0  0.107767  0  0.976003  0  0  0.11665  0  1.040624  0  0  0.11978  0  1.039815  0  0  0.097071  0.114314  0  1.041513  0
H  H14  1  0.68639986  0.07922186  0.92056860  1  0  0.068874  0  0.973138  0  0  0.076786  0  1.042413  0  0  0.078969  0  1.040413  0  0  0.101108  0.075242  0  1.043872  0
H  H15  1  0.68532328  0.42086872  0.57872734  1  0  0.068598  0  0.974633  0  0  0.076611  0  1.043813  0  0  0.078717  0  1.041884  0  0  0.101304  0.075131  0  1.045042  0
H  H16  1  0.31364758  0.92077822  0.07943430  1  0  0.068948  0  0.97306  0  0  0.076877  0  1.042316  0  0  0.079082  0  1.04027  0  0  0.101119  0.07533  0  1.043773  0
H  H17  1  0.31468241  0.57913033  0.42127390  1  0  0.068617  0  0.974583  0  0  0.076627  0  1.043772  0  0  0.078734  0  1.04184  0  0  0.101314  0.075146  0  1.045001  0
H  H18  1  0.05904818  0.62283766  0.00691156  1  0  0.117486  0  0.973001  0  0  0.135196  0  1.039242  0  0  0.136924  0  1.038746  0  0  0.086094  0.133763  0  1.039811  0
H  H19  1  0.68892474  0.87747221  0.49320669  1  0  0.117504  0  0.973045  0  0  0.135477  0  1.038762  0  0  0.137217  0  1.038239  0  0  0.086185  0.134112  0  1.039332  0
H  H20  1  0.94093114  0.37716139  0.99309020  1  0  0.117512  0  0.972886  0  0  0.135216  0  1.039148  0  0  0.136945  0  1.038648  0  0  0.086109  0.133782  0  1.039717  0
H  H21  1  0.31106442  0.12252377  0.50678941  1  0  0.117479  0  0.973  0  0  0.135432  0  1.038738  0  0  0.137172  0  1.038212  0  0  0.086159  0.134067  0  1.03931  0
H  H22  1  0.27654747  0.56565347  0.91440094  1  0  0.117557  0  0.951425  0  0  0.136325  0  1.015902  0  0  0.138081  0  1.015003  0  0  0.089024  0.134497  0  1.017484  0
H  H23  1  0.75138183  0.93443059  0.58610770  1  0  0.117444  0  0.953051  0  0  0.135754  0  1.018619  0  0  0.137588  0  1.017601  0  0  0.088772  0.134816  0  1.018752  0
H  H24  1  0.72343748  0.43434558  0.08560036  1  0  0.117575  0  0.951335  0  0  0.136318  0  1.01585  0  0  0.138071  0  1.014953  0  0  0.089024  0.134491  0  1.01743  0
H  H25  1  0.24861174  0.06557219  0.41388538  1  0  0.117411  0  0.95296  0  0  0.135743  0  1.018511  0  0  0.137577  0  1.017494  0  0  0.08876  0.134806  0  1.018645  0
H  H26  1  0.50463201  0.63224617  0.97894582  1  0  0.120672  0  0.957844  0  0  0.145598  0  1.015219  0  0  0.146076  0  1.016471  0  0  0.094974  0.145342  0  1.014255  0
H  H27  1  0.11396048  0.86920753  0.52184494  1  0  0.121855  0  0.955606  0  0  0.146613  0  1.013292  0  0  0.147091  0  1.01456  0  0  0.095212  0.146222  0  1.012558  0
H  H28  1  0.49534834  0.36775190  0.02105544  1  0  0.120684  0  0.957868  0  0  0.145633  0  1.01519  0  0  0.146111  0  1.01644  0  0  0.095007  0.145376  0  1.014228  0
H  H29  1  0.88602799  0.13079137  0.47815024  1  0  0.121924  0  0.955526  0  0  0.146667  0  1.013204  0  0  0.147146  0  1.014472  0  0  0.095252  0.146275  0  1.012471  0
C  C30  1  0.23495186  0.93696030  0.78467880  1  0  0.126168  0  3.728905  0  0  0.09397  0  3.98442  0  0  0.101895  0  4.002219  0  0  0.036273  0.088856  0  3.972229  0
C  C31  1  0.95849611  0.56217920  0.71452777  1  0  0.123702  0  3.730733  0  0  0.091762  0  3.986407  0  0  0.099622  0  4.004272  0  0  0.034876  0.086724  0  3.974332  0
C  C32  1  0.76504883  0.06303493  0.21532703  1  0  0.126047  0  3.728857  0  0  0.093959  0  3.984397  0  0  0.101884  0  4.002193  0  0  0.036249  0.088844  0  3.97221  0
C  C33  1  0.04150808  0.43782563  0.28546913  1  0  0.123784  0  3.730604  0  0  0.091842  0  3.986292  0  0  0.099702  0  4.00416  0  0  0.034956  0.086804  0  3.97422  0
C  C34  1  0.31093723  0.80978469  0.82592536  1  0  -0.192124  0  3.726063  0  0  -0.206638  0  3.968424  0  0  -0.215143  0  3.990138  0  0  -0.092806  -0.200943  0  3.953537  0
C  C35  1  0.94731899  0.68965660  0.67368250  1  0  -0.192032  0  3.724275  0  0  -0.20656  0  3.966082  0  0  -0.215045  0  3.987764  0  0  -0.092688  -0.20133  0  3.951604  0
C  C36  1  0.68905918  0.19020556  0.17407710  1  0  -0.192244  0  3.72579  0  0  -0.206798  0  3.968142  0  0  -0.2153  0  3.989855  0  0  -0.09281  -0.201103  0  3.953257  0
C  C37  1  0.05267505  0.31034435  0.32631637  1  0  -0.192058  0  3.723947  0  0  -0.206615  0  3.965765  0  0  -0.2151  0  3.987447  0  0  -0.092701  -0.201385  0  3.951289  0
C  C38  1  0.15952448  0.77586231  0.90635706  1  0  0.206973  0  3.731069  0  0  0.22844  0  3.96334  0  0  0.234296  0  3.985197  0  0  0.013081  0.224571  0  3.948273  0
C  C39  1  0.84033698  0.72423147  0.59356372  1  0  0.208192  0  3.72966  0  0  0.22999  0  3.961182  0  0  0.235889  0  3.982968  0  0  0.012888  0.226393  0  3.946139  0
C  C40  1  0.84047849  0.22413959  0.09364010  1  0  0.207135  0  3.730931  0  0  0.228538  0  3.963314  0  0  0.234391  0  3.98517  0  0  0.013079  0.224671  0  3.94825  0
C  C41  1  0.15965673  0.27576755  0.40643657  1  0  0.208064  0  3.729706  0  0  0.229906  0  3.961171  0  0  0.235805  0  3.98296  0  0  0.012851  0.22631  0  3.946133  0
C  C42  1  0.92897264  0.87471619  0.94092281  1  0  -0.184189  0  3.693487  0  0  -0.19832  0  3.934883  0  0  -0.20768  0  3.957444  0  0  -0.088326  -0.192179  0  3.919757  0
C  C43  1  0.74256280  0.62561188  0.55890764  1  0  -0.186991  0  3.694277  0  0  -0.201432  0  3.935945  0  0  -0.210783  0  3.958381  0  0  -0.089724  -0.195329  0  3.920756  0
C  C44  1  0.07103522  0.12529067  0.05907712  1  0  -0.184274  0  3.693571  0  0  -0.198448  0  3.934925  0  0  -0.207819  0  3.957516  0  0  -0.088353  -0.192304  0  3.919788  0
C  C45  1  0.25742866  0.37438520  0.44109341  1  0  -0.18693  0  3.694205  0  0  -0.201391  0  3.935861  0  0  -0.210744  0  3.9583  0  0  -0.089703  -0.19529  0  3.920676  0
C  C46  1  0.86501375  0.99985751  0.89573431  1  0  0.133101  0  3.724512  0  0  0.101171  0  3.978459  0  0  0.109075  0  3.997784  0  0  0.039548  0.095897  0  3.965437  0
C  C47  1  0.76005875  0.50005919  0.60365456  1  0  0.135629  0  3.722744  0  0  0.103375  0  3.977258  0  0  0.11137  0  3.996577  0  0  0.04039  0.098415  0  3.963509  0
C  C48  1  0.13500810  0.00014649  0.10426876  1  0  0.132984  0  3.724295  0  0  0.101057  0  3.978248  0  0  0.108955  0  3.997576  0  0  0.039569  0.095787  0  3.965222  0
C  C49  1  0.23994442  0.49993986  0.39634661  1  0  0.135631  0  3.722593  0  0  0.103367  0  3.977139  0  0  0.111362  0  3.996457  0  0  0.040376  0.098409  0  3.963388  0
C  C50  1  0.25061229  0.64150010  0.95374717  1  0  -0.354277  0  3.69728  0  0  -0.431407  0  3.923612  0  0  -0.434302  0  3.932076  0  0  -0.241739  -0.428903  0  3.91798  0
C  C51  1  0.84371921  0.85894470  0.54661106  1  0  -0.356067  0  3.696793  0  0  -0.433299  0  3.923087  0  0  -0.43624  0  3.931503  0  0  -0.242518  -0.431351  0  3.917115  0
C  C52  1  0.74937986  0.35849406  0.04625480  1  0  -0.354335  0  3.697236  0  0  -0.431434  0  3.923608  0  0  -0.434325  0  3.932071  0  0  -0.24175  -0.428928  0  3.917976  0
C  C53  1  0.15626942  0.14105516  0.45338342  1  0  -0.356042  0  3.696653  0  0  -0.433272  0  3.922921  0  0  -0.436214  0  3.931337  0  0  -0.242521  -0.43131  0  3.916919  0
N  N54  1  0.01592206  0.03155372  0.81897028  1  0  -0.335785  0  3.283395  0  0  -0.258977  0  3.547391  0  0  -0.280702  0  3.569534  0  0  -0.335138  -0.244137  0  3.532556  0
N  N55  1  0.86778232  0.46779928  0.68011450  1  0  -0.336002  0  3.283836  0  0  -0.259134  0  3.548589  0  0  -0.280793  0  3.570528  0  0  -0.334513  -0.244334  0  3.532888  0
N  N56  1  0.98408982  0.96844736  0.18103405  1  0  -0.335734  0  3.283306  0  0  -0.258935  0  3.547263  0  0  -0.280664  0  3.569415  0  0  -0.335162  -0.244093  0  3.532423  0
N  N57  1  0.13222639  0.53220266  0.31988468  1  0  -0.336048  0  3.283833  0  0  -0.259171  0  3.548573  0  0  -0.280835  0  3.570516  0  0  -0.334511  -0.24437  0  3.532873  0
Cl  Cl58  1  0.35496852  0.30869999  0.85130676  1  0  -0.575715  0  0.947809  0  0  -0.51648  0  1.221835  0  0  -0.533406  0  1.20125  0  0  -0.300206  -0.503683  0  1.236881  0
Cl  Cl59  1  0.51777724  0.19033961  0.64770823  1  0  -0.573944  0  0.949475  0  0  -0.514449  0  1.224258  0  0  -0.531515  0  1.203727  0  0  -0.298927  -0.502172  0  1.238155  0
Cl  Cl60  1  0.64504940  0.69130392  0.14869247  1  0  -0.575718  0  0.947857  0  0  -0.516464  0  1.221867  0  0  -0.533383  0  1.201261  0  0  -0.300195  -0.503669  0  1.236912  0
Cl  Cl61  1  0.48223807  0.80965746  0.35229222  1  0  -0.573973  0  0.949504  0  0  -0.514465  0  1.224288  0  0  -0.53153  0  1.203754  0  0  -0.298932  -0.502188  0  1.238185  0
