# generated using pymatgen
data_CoH20C18(N2O3)2
_symmetry_space_group_name_H-M   'P 1'
_cell_length_a   8.89080342
_cell_length_b   9.24961104
_cell_length_c   14.42228121
_cell_angle_alpha   73.29316585
_cell_angle_beta   81.88424677
_cell_angle_gamma   79.99682609
_symmetry_Int_Tables_number   1
_chemical_formula_structural   CoH20C18(N2O3)2
_chemical_formula_sum   'Co2 H40 C36 N8 O12'
_cell_volume   1113.45790781
_cell_formula_units_Z   2
loop_
 _symmetry_equiv_pos_site_id
 _symmetry_equiv_pos_as_xyz
  1  'x, y, z'
loop_
 _atom_site_type_symbol
 _atom_site_label
 _atom_site_symmetry_multiplicity
 _atom_site_fract_x
 _atom_site_fract_y
 _atom_site_fract_z
 _atom_site_occupancy
 _atom_site_hle17_ddec_charge
 _atom_site_hle17_ddec_spin_density
 _atom_site_hle17_ddec_sum_bond_order
 _atom_site_hle17_magmom
 _atom_site_hse06_10hf_bader_charge
 _atom_site_hse06_10hf_bader_spin_density
 _atom_site_hse06_10hf_ddec_charge
 _atom_site_hse06_10hf_ddec_spin_density
 _atom_site_hse06_10hf_ddec_sum_bond_order
 _atom_site_hse06_10hf_magmom
 _atom_site_hse06_ddec_charge
 _atom_site_hse06_ddec_spin_density
 _atom_site_hse06_ddec_sum_bond_order
 _atom_site_hse06_magmom
 _atom_site_pbe_cm5_charge
 _atom_site_pbe_ddec_charge
 _atom_site_pbe_ddec_spin_density
 _atom_site_pbe_ddec_sum_bond_order
 _atom_site_pbe_magmom
Co  Co0  1  0.12369194  0.29497120  0.03455560  1  0.964457  -2.896807  2.022108  -2.587  1.329672  -2.673081  0.918744  -2.865969  2.441479  -2.648  0.996313  -2.89896  2.367972  -2.721  0.669826  0.852189  -2.839139  2.507298  -2.581
Co  Co1  1  0.87631437  0.70502907  0.96544264  1  0.964381  -2.89672  2.022119  -2.587  1.329826  -2.673076  0.918789  -2.865954  2.441384  -2.648  0.996342  -2.898943  2.367909  -2.721  0.669822  0.852215  -2.839078  2.507217  -2.581
H  H2  1  0.63618848  0.01293954  0.43675251  1  0.32424  1.5e-05  0.927465  0.0  0.504941  -2e-06  0.303025  1.2e-05  1.003749  0.0  0.31099  5e-06  0.997223  0.0  0.292296  0.294872  3.3e-05  1.011817  0.0
H  H3  1  0.36383335  0.98705499  0.56324967  1  0.324222  1.6e-05  0.927594  0.0  0.504887  -2e-06  0.303028  1.2e-05  1.00384  0.0  0.310992  5e-06  0.997316  0.0  0.292306  0.294848  3.2e-05  1.011945  0.0
H  H4  1  0.58161529  0.83183088  0.49136998  1  0.344294  2.6e-05  0.917016  0.0  0.522475  1.4e-05  0.326066  2.9e-05  0.979088  0.0  0.335353  1.4e-05  0.970393  0.0  0.294265  0.319347  5.8e-05  0.985688  0.0
H  H5  1  0.41839889  0.16816140  0.50863119  1  0.344444  2.5e-05  0.916956  0.0  0.522545  1.4e-05  0.32625  2.9e-05  0.978973  0.0  0.335538  1.4e-05  0.970263  0.0  0.294338  0.319531  5.8e-05  0.985559  0.0
H  H6  1  0.61678898  0.81865164  0.77399623  1  0.356627  -0.00021  0.927691  0.0  0.577093  -0.000304  0.333803  -0.000213  0.997392  0.0  0.344055  -9.9e-05  0.988383  0.0  0.296275  0.326221  -0.000332  1.003988  0.0
H  H7  1  0.38322066  0.18134876  0.22601211  1  0.356515  -0.00021  0.927908  0.0  0.577286  -0.000304  0.333689  -0.000213  0.997604  0.0  0.34394  -0.0001  0.988597  0.0  0.296236  0.326083  -0.000332  1.004232  0.0
H  H8  1  0.63063871  0.90221251  0.64810330  1  0.331028  1e-06  0.868517  0.0  0.456603  -1.1e-05  0.324549  2.1e-05  0.913095  0.0  0.331351  9e-06  0.908242  0.0  0.319567  0.319593  5.5e-05  0.917064  0.0
H  H9  1  0.36937531  0.09778900  0.35190445  1  0.331064  0.0  0.868436  0.0  0.456858  -1.1e-05  0.324575  2.1e-05  0.913023  0.0  0.331375  9e-06  0.90817  0.0  0.31956  0.319613  5.6e-05  0.91699  0.0
H  H10  1  0.89221308  0.08870703  0.03971542  1  0.104176  -0.000341  0.951419  -0.002  0.132879  -0.001156  0.108791  -0.000101  1.01863  -0.001  0.113126  2.5e-05  1.013935  -0.001  0.12262  0.105014  -0.00026  1.022813  -0.001
H  H11  1  0.10777503  0.91131043  0.96027902  1  0.104207  -0.000342  0.9513  -0.002  0.13292  -0.001156  0.108788  -0.000101  1.01857  -0.001  0.113127  2.5e-05  1.013863  -0.001  0.122569  0.10501  -0.00026  1.022753  -0.001
H  H12  1  0.73473135  0.91282885  0.16065818  1  0.114864  -5e-06  0.965696  0.0  0.122485  -0.000556  0.120915  -0.000224  1.034255  0.0  0.124686  -0.000144  1.032276  0.0  0.111789  0.11822  -0.000313  1.0358  0.0
H  H13  1  0.26526510  0.08717718  0.83933912  1  0.114888  -3e-06  0.965734  0.0  0.122642  -0.000556  0.120939  -0.000224  1.034278  0.0  0.124708  -0.000143  1.0323  0.0  0.111799  0.118251  -0.000313  1.035821  0.0
H  H14  1  0.89264676  0.05729764  0.38533952  1  0.10518  -0.000122  0.939443  0.0  0.077448  -0.000782  0.117555  -0.000357  0.992817  0.0  0.121114  -0.000259  0.99168  0.0  0.108889  0.115  -0.000454  0.993904  0.0
H  H15  1  0.10737002  0.94269230  0.61465980  1  0.105147  -0.000122  0.939505  0.0  0.077516  -0.000782  0.117512  -0.000357  0.992898  0.0  0.121079  -0.000259  0.991752  0.0  0.108865  0.114952  -0.000454  0.993979  0.0
H  H16  1  0.04655630  0.22786307  0.25347620  1  0.087978  -0.000441  0.938337  -0.002  0.117473  -0.001269  0.09661  -0.000293  0.997841  -0.001  0.100071  -0.000167  0.994749  -0.001  0.117348  0.093963  -0.000425  1.000136  -0.001
H  H17  1  0.95345306  0.77213147  0.74652218  1  0.088073  -0.000441  0.938208  -0.002  0.117251  -0.00127  0.096656  -0.000293  0.99778  -0.001  0.100121  -0.000167  0.994688  -0.001  0.117399  0.094016  -0.000426  1.000077  -0.001
H  H18  1  0.21644999  0.33406813  0.81778110  1  0.083166  -0.00035  0.962576  -0.002  0.136948  -0.001081  0.088249  -0.000221  1.032659  -0.001  0.091472  -0.000158  1.029371  -0.001  0.1182  0.085605  -0.000247  1.035613  -0.001
H  H19  1  0.78353942  0.66594815  0.18221207  1  0.083087  -0.000349  0.962793  -0.002  0.136872  -0.00108  0.088146  -0.000221  1.032921  -0.001  0.091365  -0.000158  1.029639  -0.001  0.118175  0.085511  -0.000247  1.035874  -0.001
H  H20  1  0.34375741  0.51355177  0.68020937  1  0.135474  4e-05  0.931319  0.0  0.151197  -0.000548  0.142109  -0.000268  0.991071  0.0  0.147064  -0.000194  0.987062  0.0  0.117221  0.138353  -0.000355  0.994394  0.0
H  H21  1  0.65623910  0.48646223  0.31978710  1  0.1355  4e-05  0.931319  0.0  0.151086  -0.000548  0.142134  -0.000268  0.991068  0.0  0.147089  -0.000194  0.98706  0.0  0.117212  0.138373  -0.000354  0.994386  0.0
H  H22  1  0.47095501  0.71418954  0.88974445  1  0.11985  4.4e-05  0.969155  0.0  0.143007  -0.000536  0.129242  -0.000214  1.029014  0.0  0.133312  -0.000118  1.027728  0.0  0.111564  0.125606  -0.000329  1.030986  0.0
H  H23  1  0.52904229  0.28580977  0.11026168  1  0.119836  4.1e-05  0.969123  0.0  0.142645  -0.000536  0.129212  -0.000214  1.029009  0.0  0.133285  -0.000118  1.027718  0.0  0.111545  0.125575  -0.000329  1.030983  0.0
H  H24  1  0.33546559  0.52777394  0.01816577  1  0.076026  -0.000185  0.960763  -0.002  0.106748  -0.001236  0.084604  -0.000122  1.025673  -0.001  0.087089  -6.7e-05  1.023823  -0.001  0.116309  0.082366  -0.000103  1.027754  -0.001
H  H25  1  0.66453160  0.47222643  0.98183600  1  0.076037  -0.000185  0.960782  -0.001  0.10679  -0.001236  0.084602  -0.000122  1.025718  -0.001  0.087115  -6.7e-05  1.023835  -0.001  0.116319  0.082367  -0.000103  1.027808  -0.001
H  H26  1  0.43947616  0.89502338  0.20257104  1  0.096606  -0.000338  0.92663  -0.001  0.062309  -0.001064  0.112362  -0.000424  0.984113  -0.001  0.113666  -0.000291  0.984184  0.0  0.096154  0.1121  -0.000548  0.983535  -0.001
H  H27  1  0.56052258  0.10496556  0.79743068  1  0.096666  -0.000336  0.926507  -0.001  0.062392  -0.001065  0.11237  -0.000424  0.984027  -0.001  0.113687  -0.000291  0.984084  0.0  0.09618  0.112117  -0.000548  0.983446  -0.001
H  H28  1  0.52537768  0.89957290  0.08443895  1  0.109466  0.000648  0.951757  0.0  0.08131  0.000347  0.125142  0.000439  1.011697  0.0  0.126985  0.000354  1.011759  0.0  0.102611  0.12392  0.000471  1.011856  0.0
H  H29  1  0.47461154  0.10041947  0.91555877  1  0.109507  0.000648  0.95174  0.0  0.080685  0.000347  0.125144  0.000439  1.011697  0.0  0.126986  0.000354  1.01176  0.0  0.102654  0.123922  0.000471  1.011858  0.0
H  H30  1  0.42225297  0.66022898  0.15071328  1  0.051692  5.2e-05  0.979699  0.0  0.009378  -9.5e-05  0.068196  2.4e-05  1.045999  0.0  0.066528  2.6e-05  1.050554  0.0  0.081211  0.069928  1.2e-05  1.042398  0.0
H  H31  1  0.57773151  0.33976461  0.84928808  1  0.051752  5.4e-05  0.979643  0.0  0.009337  -9.4e-05  0.068221  2.4e-05  1.045972  0.0  0.066558  2.6e-05  1.050526  0.0  0.08121  0.069954  1.2e-05  1.042372  0.0
H  H32  1  0.31172992  0.77428753  0.05612270  1  0.066878  -0.000103  0.944043  0.0  0.049927  -0.000317  0.085555  -0.00014  1.006151  0.0  0.086333  -8.7e-05  1.006356  0.0  0.08929  0.084759  -0.0002  1.006389  0.0
H  H33  1  0.68826128  0.22571516  0.94387845  1  0.066885  -0.000102  0.943989  0.0  0.049944  -0.000317  0.085567  -0.00014  1.006097  0.0  0.086344  -8.7e-05  1.006303  0.0  0.089283  0.084766  -0.0002  1.006336  0.0
H  H34  1  0.21733333  0.75380789  0.27192096  1  0.06021  -0.000201  0.920815  0.0  0.025418  -0.000399  0.080261  -0.000146  0.974751  0.0  0.080603  -9.2e-05  0.975539  0.0  0.087674  0.080448  -0.000244  0.973822  0.0
H  H35  1  0.78264722  0.24619820  0.72807489  1  0.060178  -0.000199  0.9208  0.0  0.025495  -0.000399  0.080226  -0.000145  0.974755  0.0  0.080574  -9.2e-05  0.97554  0.0  0.087677  0.080419  -0.000244  0.973824  0.0
H  H36  1  0.10310350  0.84171356  0.17443361  1  0.068106  0.000154  0.965302  0.0  0.057925  -3.7e-05  0.084415  0.000115  1.02982  0.0  0.084866  0.000124  1.031843  0.0  0.086725  0.083908  8.7e-05  1.028681  0.0
H  H37  1  0.89688321  0.15828907  0.82556169  1  0.068087  0.000153  0.965388  0.0  0.05809  -3.7e-05  0.084402  0.000116  1.029927  0.0  0.084843  0.000124  1.031964  0.0  0.086766  0.083898  8.7e-05  1.028798  0.0
H  H38  1  0.21782145  0.49792273  0.24499698  1  0.096045  0.00012  0.934656  0.0  0.048682  -0.000577  0.110521  -0.000188  0.993685  0.0  0.112011  -0.000104  0.993682  0.0  0.093121  0.110003  -0.000274  0.993229  0.0
H  H39  1  0.78217366  0.50208452  0.75500505  1  0.096117  0.000125  0.934592  0.0  0.04926  -0.000577  0.110588  -0.000188  0.993642  0.0  0.112076  -0.000104  0.993635  0.0  0.093157  0.110074  -0.000274  0.993187  0.0
H  H40  1  0.03065367  0.58909869  0.26936393  1  0.110451  0.000981  0.91252  0.001  0.057745  0.00031  0.127775  0.000357  0.965623  0.0  0.12946  0.000278  0.965466  0.0  0.106289  0.126765  0.000508  0.965709  0.0
H  H41  1  0.96933731  0.41089715  0.73063783  1  0.110426  0.000984  0.912463  0.001  0.057864  0.00031  0.127805  0.000357  0.965526  0.0  0.129486  0.000278  0.965367  0.0  0.10631  0.1268  0.000508  0.965618  0.0
C  C42  1  0.88950913  0.07895892  0.11685873  1  0.13383  0.020862  3.661366  0.014  0.514792  0.006304  0.104801  0.0071  3.921713  0.004  0.114178  0.006688  3.933561  0.004  0.051026  0.097631  0.00753  3.914993  0.005
C  C43  1  0.11048185  0.92105398  0.88313772  1  0.133945  0.020857  3.661422  0.014  0.515265  0.006306  0.104918  0.007099  3.921771  0.004  0.114297  0.006686  3.933616  0.004  0.051118  0.097748  0.007528  3.915051  0.005
C  C44  1  0.80132494  0.98046925  0.18512028  1  -0.118787  -0.008827  3.686939  -0.012  -0.036341  -0.00487  -0.141989  -0.002379  3.938462  -0.004  -0.146966  -0.002345  3.955603  -0.003  -0.075339  -0.139532  -0.002293  3.928513  -0.004
C  C45  1  0.19867279  0.01953565  0.81487850  1  -0.118903  -0.008829  3.687287  -0.012  -0.03672  -0.00487  -0.142157  -0.002379  3.93878  -0.004  -0.147135  -0.002344  3.955923  -0.003  -0.075413  -0.139705  -0.002293  3.928852  -0.004
C  C46  1  0.80045498  0.96955392  0.28382876  1  -0.012544  0.021487  3.74215  0.014  -0.051013  0.007839  0.006882  0.008384  3.9717  0.005  0.0062  0.006647  3.992735  0.004  0.001012  0.007077  0.010703  3.958181  0.006
C  C47  1  0.19955158  0.03043608  0.71617002  1  -0.012711  0.021489  3.742544  0.014  -0.050663  0.007838  0.006884  0.008384  3.971851  0.005  0.006203  0.006646  3.99289  0.004  0.000998  0.007074  0.010702  3.95834  0.006
C  C48  1  0.88896135  0.06070789  0.30954616  1  -0.143692  -0.008729  3.740778  -0.012  0.007424  -0.005084  -0.164595  -0.002413  3.987384  -0.004  -0.171392  -0.00239  4.008726  -0.004  -0.084675  -0.160048  -0.002268  3.973409  -0.004
C  C49  1  0.11104990  0.93928096  0.69045384  1  -0.14351  -0.008727  3.740987  -0.012  0.007504  -0.005083  -0.164471  -0.002413  3.987559  -0.004  -0.171274  -0.00239  4.008904  -0.004  -0.084609  -0.159919  -0.002269  3.973578  -0.004
C  C50  1  0.97530800  0.15556151  0.23687598  1  0.12294  0.020829  3.703572  0.014  0.463669  0.006144  0.095881  0.006703  3.960298  0.004  0.103433  0.006215  3.977267  0.004  0.042998  0.090599  0.007262  3.948393  0.004
C  C51  1  0.02469748  0.84443649  0.76312277  1  0.122772  0.020821  3.703573  0.014  0.463314  0.006143  0.095735  0.006703  3.960343  0.004  0.103281  0.006215  3.97732  0.004  0.04285  0.090447  0.007261  3.948447  0.004
C  C52  1  0.71163295  0.85669874  0.35808293  1  0.599502  0.000116  3.884999  -0.001  1.487043  0.000242  0.558948  0.000342  4.167466  0.0  0.587866  0.000142  4.164993  0.0  0.231994  0.539096  0.000738  4.169041  0.0
C  C53  1  0.28837471  0.14330837  0.64191459  1  0.599387  0.000116  3.885451  -0.001  1.486566  0.000242  0.558817  0.000342  4.167851  0.0  0.587732  0.000142  4.165386  0.0  0.231952  0.538975  0.000738  4.169423  0.0
C  C54  1  0.27162033  0.42121233  0.83121588  1  0.129505  0.026321  3.673428  0.018  0.504985  0.007485  0.103077  0.008093  3.93011  0.005  0.111246  0.006364  3.943858  0.004  0.046995  0.096064  0.010973  3.923194  0.007
C  C55  1  0.72837839  0.57879369  0.16878192  1  0.129583  0.026317  3.673632  0.018  0.505428  0.007485  0.103136  0.008092  3.930296  0.005  0.111306  0.006365  3.944041  0.004  0.047005  0.096109  0.010973  3.92338  0.007
C  C56  1  0.34323795  0.52226315  0.75392580  1  -0.108434  -0.010246  3.667287  -0.014  -0.007954  -0.005267  -0.129705  -0.002468  3.909595  -0.004  -0.133948  -0.00237  3.925993  -0.004  -0.068866  -0.127474  -0.002265  3.90071  -0.004
C  C57  1  0.65676385  0.47774517  0.24607408  1  -0.108418  -0.010245  3.667288  -0.014  -0.00834  -0.005266  -0.129707  -0.002468  3.909625  -0.004  -0.133946  -0.002371  3.926014  -0.004  -0.06884  -0.127477  -0.002265  3.900736  -0.004
C  C58  1  0.41537196  0.63260319  0.77257683  1  -0.015792  0.027174  3.735715  0.018  -0.091587  0.009188  0.00399  0.009851  3.968195  0.006  0.003955  0.006775  3.987202  0.004  0.00216  0.002513  0.015521  3.957389  0.009
C  C59  1  0.58463461  0.36739488  0.22742666  1  -0.01579  0.027171  3.735597  0.018  -0.091231  0.009188  0.003985  0.009851  3.968059  0.006  0.003942  0.006776  3.987055  0.004  0.002167  0.002516  0.015521  3.957262  0.009
C  C60  1  0.41477287  0.63335904  0.86959786  1  -0.134368  -0.009846  3.697379  -0.014  -0.075072  -0.004595  -0.154639  -0.002127  3.943155  -0.003  -0.159781  -0.002106  3.961522  -0.003  -0.079764  -0.152029  -0.001793  3.933817  -0.004
C  C61  1  0.58523629  0.36663671  0.13040447  1  -0.134358  -0.009838  3.697151  -0.014  -0.074615  -0.004595  -0.154595  -0.002127  3.942918  -0.003  -0.15974  -0.002106  3.961295  -0.003  -0.079747  -0.151979  -0.001793  3.933582  -0.004
C  C62  1  0.33890071  0.52882606  0.94230384  1  0.128725  0.025944  3.697645  0.017  0.494542  0.007308  0.100728  0.008186  3.958678  0.005  0.108516  0.006687  3.973079  0.004  0.046484  0.094279  0.010542  3.951233  0.006
C  C63  1  0.66110665  0.47116625  0.05769721  1  0.128729  0.025935  3.697581  0.017  0.494604  0.007308  0.100692  0.008185  3.958637  0.005  0.108459  0.006686  3.973029  0.004  0.046445  0.094232  0.01054  3.951212  0.006
C  C64  1  0.48619717  0.74496341  0.68803873  1  0.603731  0.001141  3.85812  -0.001  1.448004  0.000609  0.555277  0.000738  4.14999  0.0  0.583945  0.000255  4.148638  0.0  0.241741  0.535655  0.002191  4.151497  0.0
C  C65  1  0.51381525  0.25504155  0.31196990  1  0.603736  0.001139  3.85811  -0.001  1.447337  0.000609  0.555311  0.000738  4.149928  0.0  0.584009  0.000254  4.148529  0.0  0.241713  0.535659  0.002191  4.15148  0.0
C  C66  1  0.32011944  0.05327983  0.08779111  1  0.680053  0.011541  3.828432  0.009  1.550014  0.003083  0.63474  0.004625  4.13729  0.004  0.669635  0.00403  4.133701  0.003  0.203867  0.610047  0.005156  4.136511  0.005
C  C67  1  0.67987953  0.94671591  0.91220723  1  0.680142  0.011542  3.828487  0.009  1.550238  0.003084  0.634808  0.004624  4.137334  0.004  0.669704  0.00403  4.13374  0.003  0.203875  0.610105  0.005155  4.136578  0.005
C  C68  1  0.41400472  0.90082361  0.12900319  1  -0.26395  -0.00159  3.67706  -0.002  -0.07621  -0.002074  -0.299794  -0.001185  3.927347  -0.001  -0.305749  -0.000623  3.936165  -0.001  -0.165554  -0.295698  -0.001946  3.92106  -0.002
C  C69  1  0.58599348  0.09916080  0.87100083  1  -0.264146  -0.001592  3.676977  -0.002  -0.075509  -0.002074  -0.299895  -0.001185  3.927234  -0.001  -0.305857  -0.000623  3.936049  -0.001  -0.165667  -0.295799  -0.001946  3.920949  -0.002
C  C70  1  0.33873385  0.76366698  0.13010479  1  -0.081981  -0.000246  3.677115  0.0  -0.017353  -0.00074  -0.121244  -0.000345  3.933402  0.0  -0.121141  -0.000181  3.947957  0.0  -0.170394  -0.121555  -0.000636  3.923429  -0.001
C  C71  1  0.66125684  0.23633113  0.86989588  1  -0.082126  -0.000249  3.677129  0.0  -0.017527  -0.00074  -0.121355  -0.000345  3.933324  0.0  -0.121261  -0.000181  3.947891  0.0  -0.170417  -0.121654  -0.000637  3.923344  -0.001
C  C72  1  0.19309366  0.74670002  0.20061461  1  -0.083989  -0.00045  3.687827  0.0  -0.026291  -0.001253  -0.122435  -0.000626  3.94578  -0.001  -0.122748  -0.000401  3.959825  -0.001  -0.169721  -0.122237  -0.000833  3.936073  -0.001
C  C73  1  0.80689074  0.25330267  0.79938434  1  -0.083828  -0.000454  3.687978  0.0  -0.026439  -0.001253  -0.122311  -0.000626  3.945929  -0.001  -0.122627  -0.000401  3.959985  -0.001  -0.169708  -0.122117  -0.000833  3.936228  -0.001
C  C74  1  0.13250279  0.59591827  0.21553608  1  -0.26147  -0.006633  3.675963  -0.01  -0.043831  -0.007986  -0.298104  -0.00417  3.924803  -0.006  -0.304599  -0.002798  3.933605  -0.004  -0.162755  -0.293521  -0.005723  3.918285  -0.008
C  C75  1  0.86748517  0.40408328  0.78446417  1  -0.261464  -0.006638  3.6758  -0.01  -0.044564  -0.007987  -0.298145  -0.00417  3.924727  -0.006  -0.304626  -0.002798  3.93351  -0.004  -0.16276  -0.293568  -0.005724  3.918222  -0.008
C  C76  1  0.08170339  0.57275162  0.12514084  1  0.698933  0.012737  3.81905  0.008  1.576153  -0.00193  0.659078  -0.000244  4.127396  -0.003  0.697571  -6.8e-05  4.120246  -0.003  0.219027  0.630926  0.001423  4.128991  -0.002
C  C77  1  0.91829085  0.42724534  0.87486044  1  0.698865  0.012735  3.81911  0.008  1.57639  -0.001925  0.659012  -0.000243  4.127505  -0.003  0.697503  -6.7e-05  4.120358  -0.003  0.218999  0.630864  0.001422  4.129112  -0.002
N  N78  1  0.97629208  0.16503781  0.14189781  1  -0.304604  -0.038049  3.3076  -0.071  -1.257894  -0.04883  -0.257205  -0.025344  3.587375  -0.045  -0.278633  -0.021315  3.602354  -0.039  -0.32438  -0.240984  -0.028898  3.576216  -0.05
N  N79  1  0.02370747  0.83497047  0.85809880  1  -0.304605  -0.038046  3.307715  -0.071  -1.258162  -0.048832  -0.25718  -0.025343  3.587439  -0.045  -0.27861  -0.021314  3.602425  -0.039  -0.324302  -0.240949  -0.028896  3.576278  -0.05
N  N80  1  0.64863719  0.90012872  0.43873559  1  -0.716466  0.000911  3.104021  0.001  -1.372884  0.000437  -0.679116  0.000453  3.331177  0.0  -0.702212  0.000253  3.323255  0.0  -0.584039  -0.661067  0.000687  3.341366  0.0
N  N81  1  0.35138347  0.09985777  0.56126336  1  -0.716572  0.000907  3.104035  0.001  -1.3725  0.000436  -0.679272  0.000453  3.331097  0.0  -0.702371  0.000254  3.323171  0.0  -0.584117  -0.661192  0.000687  3.341312  0.0
N  N82  1  0.26561105  0.42516275  0.92460332  1  -0.313197  -0.034117  3.301329  -0.068  -1.238833  -0.043371  -0.26837  -0.022619  3.58806  -0.04  -0.286586  -0.01973  3.596227  -0.035  -0.323149  -0.256124  -0.024355  3.585804  -0.044
N  N83  1  0.73439444  0.57483524  0.07539474  1  -0.313251  -0.034117  3.301259  -0.068  -1.239051  -0.043373  -0.26836  -0.022618  3.587935  -0.04  -0.286575  -0.019731  3.596115  -0.035  -0.323163  -0.25611  -0.024355  3.585685  -0.044
N  N84  1  0.58793899  0.82307783  0.70575679  1  -0.682267  0.002163  3.094115  0.002  -1.345461  0.000594  -0.6456  0.000809  3.322734  0.0  -0.668096  0.000449  3.316364  0.0  -0.561667  -0.631167  0.001692  3.328457  0.001
N  N85  1  0.41206323  0.17692715  0.29424854  1  -0.682274  0.002171  3.093978  0.002  -1.345793  0.000594  -0.645601  0.000809  3.322587  0.0  -0.668109  0.000452  3.316206  0.0  -0.561663  -0.631133  0.001694  3.328345  0.001
O  O86  1  0.70224336  0.73231411  0.34416720  1  -0.562127  0.002178  1.858274  0.002  -1.174685  0.001001  -0.523529  0.001076  2.059695  0.001  -0.543397  0.00077  2.052137  0.001  -0.312359  -0.509974  0.001597  2.0651  0.001
O  O87  1  0.29774305  0.26767373  0.65583232  1  -0.56194  0.002178  1.858903  0.002  -1.174652  0.001  -0.523366  0.001075  2.060328  0.001  -0.543224  0.000772  2.052773  0.001  -0.312299  -0.509808  0.001596  2.065731  0.001
O  O88  1  0.44813834  0.76388687  0.60418860  1  -0.595082  0.002351  1.915901  0.002  -1.189729  0.00095  -0.545095  0.000992  2.124039  0.001  -0.565811  0.000555  2.11508  0.0  -0.307728  -0.530693  0.00201  2.129704  0.002
O  O89  1  0.55187012  0.23612257  0.39581258  1  -0.59503  0.002347  1.916054  0.002  -1.189429  0.00095  -0.545044  0.000992  2.124167  0.001  -0.56577  0.000554  2.11519  0.0  -0.30766  -0.530641  0.002009  2.12985  0.002
O  O90  1  0.32460371  0.16791293  0.12022870  1  -0.64956  -0.028922  2.022183  -0.052  -1.217492  -0.046111  -0.604872  -0.023357  2.271441  -0.041  -0.640631  -0.016697  2.265007  -0.03  -0.31502  -0.574563  -0.031227  2.272821  -0.053
O  O91  1  0.67539251  0.83208627  0.87977060  1  -0.649631  -0.028918  2.022342  -0.052  -1.217492  -0.046103  -0.604928  -0.023354  2.271584  -0.041  -0.640684  -0.016695  2.26515  -0.03  -0.315003  -0.57462  -0.03122  2.272971  -0.053
O  O92  1  0.23518793  0.07006164  0.02043602  1  -0.601505  -0.040668  1.984133  -0.072  -1.182007  -0.058698  -0.562389  -0.029966  2.241277  -0.052  -0.599818  -0.02141  2.2368  -0.038  -0.299459  -0.53084  -0.039438  2.241332  -0.066
O  O93  1  0.76481379  0.92993064  0.97956066  1  -0.601461  -0.040671  1.984034  -0.072  -1.182231  -0.058701  -0.562407  -0.029969  2.241312  -0.052  -0.599834  -0.021412  2.236833  -0.038  -0.299463  -0.530843  -0.03944  2.241366  -0.066
O  O94  1  0.02284623  0.68958913  0.06277283  1  -0.614294  -0.046639  2.118351  -0.079  -1.205631  -0.066952  -0.58076  -0.034563  2.408592  -0.055  -0.62053  -0.02494  2.399228  -0.039  -0.306264  -0.545916  -0.046179  2.411228  -0.073
O  O95  1  0.97716118  0.31040311  0.93722337  1  -0.614231  -0.046633  2.118264  -0.079  -1.205656  -0.066948  -0.580712  -0.034561  2.408522  -0.055  -0.620482  -0.024939  2.399155  -0.039  -0.306254  -0.545868  -0.046169  2.411159  -0.073
O  O96  1  0.09766759  0.43704613  0.11822833  1  -0.639899  -0.043812  2.175072  -0.075  -1.208068  -0.071053  -0.612417  -0.037675  2.479902  -0.059  -0.650925  -0.028562  2.466305  -0.044  -0.315422  -0.578623  -0.048212  2.485485  -0.077
O  O97  1  0.90233191  0.56295417  0.88176910  1  -0.639953  -0.043806  2.175158  -0.075  -1.208218  -0.071049  -0.612464  -0.037671  2.479978  -0.059  -0.65097  -0.02856  2.466386  -0.044  -0.315415  -0.57866  -0.048202  2.48555  -0.077
