# generated using pymatgen
data_CoH14C20(N3O2)2
_symmetry_space_group_name_H-M   'P 1'
_cell_length_a   8.37150220
_cell_length_b   10.09883684
_cell_length_c   13.87036361
_cell_angle_alpha   80.95109308
_cell_angle_beta   78.55911165
_cell_angle_gamma   78.53203915
_symmetry_Int_Tables_number   1
_chemical_formula_structural   CoH14C20(N3O2)2
_chemical_formula_sum   'Co2 H28 C40 N12 O8'
_cell_volume   1117.88046429
_cell_formula_units_Z   2
loop_
 _symmetry_equiv_pos_site_id
 _symmetry_equiv_pos_as_xyz
  1  'x, y, z'
loop_
 _atom_site_type_symbol
 _atom_site_label
 _atom_site_symmetry_multiplicity
 _atom_site_fract_x
 _atom_site_fract_y
 _atom_site_fract_z
 _atom_site_occupancy
 _atom_site_hle17_ddec_charge
 _atom_site_hle17_ddec_spin_density
 _atom_site_hle17_ddec_sum_bond_order
 _atom_site_hle17_magmom
 _atom_site_hse06_10hf_ddec_charge
 _atom_site_hse06_10hf_ddec_spin_density
 _atom_site_hse06_10hf_ddec_sum_bond_order
 _atom_site_hse06_10hf_magmom
 _atom_site_hse06_ddec_charge
 _atom_site_hse06_ddec_spin_density
 _atom_site_hse06_ddec_sum_bond_order
 _atom_site_hse06_magmom
 _atom_site_pbe_cm5_charge
 _atom_site_pbe_ddec_charge
 _atom_site_pbe_ddec_spin_density
 _atom_site_pbe_ddec_sum_bond_order
 _atom_site_pbe_magmom
Co  Co0  1  0.62693537  0.62717153  0.54960928  1  0.973721  3.031185  2.065968  2.59  0.940501  2.929673  2.474478  2.646  1.011993  2.951044  2.404887  2.718  0.684213  0.879574  2.908297  2.536639  2.578
Co  Co1  1  0.37306180  0.37281636  0.45039057  1  0.973759  -3.03119  2.065617  -2.59  0.940495  -2.929684  2.474226  -2.646  1.01205  -2.951049  2.404551  -2.718  0.684234  0.879579  -2.908314  2.53638  -2.578
H  H2  1  0.26304056  0.45237777  0.08966487  1  0.291581  -3e-05  0.886279  0.0  0.283873  1.7e-05  0.947958  0.0  0.288731  1.2e-05  0.943136  0.0  0.311983  0.280221  1.5e-05  0.951734  0.0
H  H3  1  0.73695643  0.54763455  0.91032866  1  0.291607  3e-05  0.886262  0.0  0.283844  -1.7e-05  0.94802  0.0  0.288701  -1.1e-05  0.943202  0.0  0.311973  0.280192  -1.5e-05  0.951796  0.0
H  H4  1  0.33992989  0.59573905  0.05073390  1  0.278625  -5.2e-05  0.897086  0.0  0.275864  -4.1e-05  0.950868  0.0  0.28021  -2.4e-05  0.947268  0.0  0.310418  0.272658  -6.3e-05  0.953716  0.0
H  H5  1  0.66006636  0.40426512  0.94926280  1  0.278687  5.2e-05  0.89704  0.0  0.275926  4.1e-05  0.950814  0.0  0.280272  2.4e-05  0.947214  0.0  0.310406  0.272719  6.3e-05  0.953663  0.0
H  H6  1  0.37215712  0.44301528  0.90682434  1  0.097675  0.00014  0.983701  0.0  0.100874  0.000283  1.057882  0.0  0.105357  0.000201  1.054725  0.0  0.099577  0.097556  0.000368  1.060523  0.0
H  H7  1  0.62785631  0.55698877  0.09318108  1  0.09775  -0.000139  0.983704  0.0  0.100907  -0.000283  1.057911  0.0  0.105402  -0.000202  1.054743  0.0  0.099617  0.097589  -0.000368  1.060551  0.0
H  H8  1  0.58839013  0.45000782  0.75380399  1  0.093166  0.000465  0.940565  0.001  0.099168  0.000183  1.003925  0.001  0.102916  9.3e-05  1.000543  0.001  0.119382  0.096049  0.000277  1.006845  0.001
H  H9  1  0.41161136  0.55000042  0.24619016  1  0.093166  -0.000465  0.940445  -0.001  0.099143  -0.000183  1.003862  -0.001  0.102884  -9.3e-05  1.000477  -0.001  0.119352  0.096023  -0.000277  1.006779  -0.001
H  H10  1  0.36340970  0.82964990  0.64268384  1  0.096023  0.000513  0.938095  0.002  0.103991  0.000322  1.000291  0.001  0.107982  0.000239  0.996236  0.001  0.123976  0.100242  0.000422  1.004276  0.001
H  H11  1  0.63658921  0.17034716  0.35731117  1  0.096016  -0.000515  0.938135  -0.002  0.103991  -0.000322  1.000308  -0.001  0.107984  -0.000239  0.99625  -0.001  0.123971  0.10024  -0.000422  1.004298  -0.001
H  H12  1  0.13937124  0.84244359  0.79326210  1  0.111726  0.000127  0.96036  0.0  0.120407  0.000288  1.022265  0.0  0.124015  0.000204  1.020775  0.0  0.1113  0.117608  0.000379  1.023601  0.0
H  H13  1  0.86063292  0.15756360  0.20673401  1  0.111724  -0.000127  0.960408  0.0  0.120412  -0.000289  1.022299  0.0  0.12402  -0.000205  1.020808  0.0  0.111285  0.117613  -0.000379  1.023634  0.0
H  H14  1  0.70210237  0.82041313  0.18512716  1  0.114956  0.000119  0.934315  0.0  0.124418  0.000281  0.989644  0.0  0.128204  0.000197  0.988238  0.0  0.111679  0.121915  0.000366  0.990549  0.0
H  H15  1  0.29790470  0.17959199  0.81487387  1  0.114939  -0.00012  0.934439  0.0  0.124402  -0.000281  0.989755  0.0  0.128186  -0.000196  0.988351  0.0  0.111657  0.1219  -0.000366  0.99066  0.0
H  H16  1  0.59034297  0.80542748  0.36666464  1  0.08767  0.000474  0.956826  0.002  0.095961  0.000232  1.019404  0.001  0.099129  0.00015  1.016684  0.001  0.119824  0.093158  0.00033  1.02205  0.001
H  H17  1  0.40965153  0.19456753  0.63333618  1  0.087549  -0.000473  0.95697  -0.002  0.096004  -0.000232  1.019369  -0.001  0.099173  -0.00015  1.016643  -0.001  0.11982  0.093179  -0.00033  1.022041  -0.001
H  H18  1  0.92677046  0.45332324  0.42414203  1  0.102216  0.000672  0.937116  0.002  0.109899  0.000406  0.998117  0.001  0.113678  0.00033  0.994509  0.001  0.123588  0.106405  0.000474  1.001989  0.001
H  H19  1  0.07322447  0.54666365  0.57585749  1  0.102191  -0.000672  0.937166  -0.002  0.109914  -0.000406  0.998146  -0.001  0.113693  -0.00033  0.994536  -0.001  0.123611  0.10642  -0.000473  1.002016  -0.001
H  H20  1  0.05397562  0.45419403  0.24936921  1  0.124574  0.000134  0.944488  0.0  0.131351  0.000294  1.009183  0.0  0.135703  0.000242  1.006539  0.0  0.112747  0.12813  0.000338  1.011419  0.0
H  H21  1  0.94602288  0.54580507  0.75062634  1  0.124571  -0.000133  0.944426  0.0  0.131362  -0.000294  1.009108  0.0  0.135713  -0.000241  1.006466  0.0  0.112744  0.12814  -0.000338  1.011348  0.0
H  H22  1  0.62018215  0.08665969  0.52866943  1  0.121141  0.000324  0.969094  0.0  0.126906  0.000298  1.039546  0.0  0.132136  0.000238  1.03451  0.0  0.10814  0.122991  0.000375  1.043283  0.0
H  H23  1  0.37981454  0.91334244  0.47132961  1  0.12123  -0.000326  0.969037  0.0  0.126983  -0.000298  1.039495  0.0  0.132214  -0.000238  1.034456  0.0  0.108176  0.123066  -0.000375  1.043238  0.0
H  H24  1  0.95441043  0.26657358  0.64609616  1  0.091404  0.000242  0.984596  0.0  0.097871  0.00013  1.053635  0.0  0.099739  8.1e-05  1.053672  0.0  0.097726  0.096744  0.000201  1.053218  0.0
H  H25  1  0.04558046  0.73342141  0.35391015  1  0.091456  -0.000241  0.984584  0.0  0.097953  -0.00013  1.05358  0.0  0.099826  -8.1e-05  1.053623  0.0  0.097778  0.096824  -0.000201  1.053162  0.0
H  H26  1  0.11310961  0.03649766  0.68977869  1  0.08023  7e-06  0.964613  0.0  0.090532  6e-05  1.026511  0.0  0.092621  3.9e-05  1.026739  0.0  0.095264  0.089727  5.7e-05  1.025532  0.0
H  H27  1  0.88689268  0.96349525  0.31022718  1  0.080177  -7e-06  0.964687  0.0  0.090476  -6e-05  1.026586  0.0  0.092565  -3.9e-05  1.026812  0.0  0.095255  0.08967  -5.7e-05  1.025609  0.0
H  H28  1  0.01608760  0.82911908  0.65718707  1  0.094205  0.000282  0.958907  0.0  0.101433  0.000222  1.026736  0.0  0.104295  0.000142  1.024935  0.0  0.100775  0.099467  0.000307  1.027802  0.0
H  H29  1  0.98391402  0.17087083  0.34281200  1  0.094264  -0.000278  0.958837  0.0  0.101477  -0.000222  1.026681  0.0  0.104339  -0.000143  1.024879  0.0  0.100797  0.099509  -0.000307  1.027751  0.0
C  C30  1  0.23844837  0.64480674  0.86325253  1  0.045213  -0.013956  3.820777  -0.018  0.057985  -0.005403  4.059625  -0.007  0.062469  -0.003496  4.079984  -0.004  0.00132  0.054168  -0.008058  4.046766  -0.01
C  C31  1  0.76155955  0.35520647  0.13675542  1  0.045208  0.013945  3.820737  0.018  0.05793  0.005401  4.059559  0.007  0.062416  0.003492  4.079921  0.004  0.00125  0.054114  0.008056  4.046717  0.01
C  C32  1  0.36920626  0.53395209  0.85270188  1  -0.183082  0.009072  3.754382  0.012  -0.20332  0.002386  4.008227  0.004  -0.211266  0.002498  4.028515  0.004  -0.09693  -0.198298  0.00191  3.995757  0.003
C  C33  1  0.63079778  0.46605607  0.14730278  1  -0.183116  -0.009068  3.75423  -0.012  -0.203302  -0.002385  4.008087  -0.004  -0.211259  -0.002497  4.028366  -0.004  -0.09691  -0.198281  -0.001909  3.995613  -0.003
C  C34  1  0.48751152  0.53542774  0.76652923  1  0.139484  -0.011841  3.680198  -0.015  0.114589  -0.003505  3.931201  -0.005  0.123045  -0.002982  3.945377  -0.004  0.048945  0.108117  -0.00409  3.922901  -0.005
C  C35  1  0.51249333  0.46458246  0.23347511  1  0.139563  0.011834  3.679838  0.015  0.114653  0.003505  3.930865  0.005  0.123118  0.002982  3.945046  0.004  0.049017  0.108189  0.00409  3.922558  0.005
C  C36  1  0.36092719  0.74748932  0.70392219  1  0.137755  -0.012743  3.673401  -0.016  0.111931  -0.004028  3.920362  -0.006  0.121781  -0.003099  3.9318  -0.005  0.050941  0.103679  -0.005081  3.915643  -0.006
C  C37  1  0.63908434  0.25251174  0.29607514  1  0.137745  0.012741  3.673344  0.016  0.111938  0.004027  3.920258  0.006  0.121785  0.003097  3.931707  0.005  0.051011  0.103689  0.005081  3.915538  0.006
C  C38  1  0.23798242  0.75436366  0.78715379  1  -0.143429  0.009353  3.704371  0.013  -0.160659  0.002619  3.944957  0.004  -0.167378  0.002582  3.962698  0.004  -0.079221  -0.157124  0.002331  3.935455  0.004
C  C39  1  0.76203215  0.24564043  0.21284426  1  -0.143406  -0.009347  3.704383  -0.013  -0.160639  -0.002618  3.944943  -0.004  -0.167362  -0.00258  3.962687  -0.004  -0.07919  -0.157104  -0.002331  3.935439  -0.004
C  C40  1  0.09829714  0.65113650  0.94497961  1  0.203198  0.000286  3.758744  0.002  0.171856  -0.000266  4.033115  0.0  0.18232  3.7e-05  4.047524  0.0  0.212493  0.164799  -0.000875  4.024091  0.0
C  C41  1  0.90170872  0.34887471  0.05502521  1  0.20316  -0.000285  3.758423  -0.002  0.171923  0.000266  4.032612  0.0  0.182372  -3.7e-05  4.047045  0.0  0.212519  0.164852  0.000875  4.023606  0.0
C  C42  1  0.94518019  0.64965662  0.09373812  1  0.228355  0.000565  3.73338  0.002  0.196553  -0.000206  4.003772  0.0  0.20787  0.000102  4.017846  0.001  0.220663  0.188452  -0.00084  3.995077  0.0
C  C43  1  0.05482724  0.35035259  0.90625952  1  0.228421  -0.000564  3.733472  -0.002  0.196466  0.000206  4.003958  0.0  0.207781  -0.000102  4.018039  -0.001  0.22075  0.188362  0.00084  3.995263  0.0
C  C44  1  0.88763961  0.63842349  0.20059606  1  0.046805  -0.013878  3.798131  -0.018  0.060529  -0.005233  4.035623  -0.007  0.063942  -0.003514  4.056556  -0.005  0.007628  0.058154  -0.007656  4.021789  -0.009
C  C45  1  0.11237086  0.36158267  0.79939939  1  0.046505  0.013873  3.798231  0.018  0.060374  0.005235  4.03561  0.007  0.063787  0.003514  4.056544  0.005  0.00756  0.057998  0.00766  4.021778  0.009
C  C46  1  0.75443223  0.73743685  0.23620838  1  -0.150843  0.009941  3.718632  0.013  -0.16701  0.002641  3.959838  0.004  -0.174485  0.002584  3.979714  0.004  -0.08175  -0.162295  0.002423  3.947203  0.004
C  C47  1  0.24557847  0.26256219  0.76378712  1  -0.150651  -0.00993  3.718872  -0.013  -0.166849  -0.002641  3.960042  -0.004  -0.174323  -0.002587  3.97992  -0.004  -0.081623  -0.162133  -0.002423  3.947399  -0.004
C  C48  1  0.69088438  0.72872172  0.33659637  1  0.125464  -0.0129  3.704623  -0.017  0.101075  -0.004135  3.954823  -0.006  0.10936  -0.003455  3.969303  -0.005  0.04478  0.094134  -0.004945  3.946886  -0.006
C  C49  1  0.30911440  0.27127023  0.66340427  1  0.125481  0.012891  3.704987  0.017  0.100978  0.004135  3.95518  0.006  0.109264  0.003456  3.969664  0.005  0.044693  0.094054  0.004945  3.947253  0.006
C  C50  1  0.87840589  0.53313423  0.36955926  1  0.149924  -0.012934  3.635047  -0.017  0.123342  -0.003629  3.892272  -0.005  0.13369  -0.002815  3.901851  -0.004  0.056525  0.114793  -0.004624  3.888499  -0.006
C  C51  1  0.12159164  0.46686382  0.63044085  1  0.149904  0.012926  3.635058  0.017  0.123278  0.003629  3.892336  0.005  0.133629  0.002817  3.901916  0.004  0.05652  0.114727  0.004626  3.888568  0.006
C  C52  1  0.95108908  0.53471733  0.26994268  1  -0.128229  0.01026  3.655381  0.014  -0.15285  0.00286  3.909658  0.004  -0.158175  0.002886  3.925524  0.004  -0.075744  -0.150105  0.002488  3.900997  0.004
C  C53  1  0.04891590  0.46529189  0.73005382  1  -0.128109  -0.010253  3.655438  -0.014  -0.152757  -0.00286  3.909655  -0.004  -0.158083  -0.002888  3.925522  -0.004  -0.075767  -0.150012  -0.002489  3.900998  -0.004
C  C54  1  0.75185291  0.82495859  0.57436208  1  0.609794  -0.006826  3.922963  -0.012  0.566279  -0.001948  4.222902  -0.005  0.602298  -0.001574  4.22145  -0.004  0.193311  0.540828  -0.002248  4.219967  -0.007
C  C55  1  0.24812779  0.17503240  0.42564017  1  0.609547  0.006829  3.922934  0.012  0.566137  0.001948  4.222813  0.005  0.602156  0.001571  4.221368  0.004  0.193388  0.540687  0.002248  4.219877  0.007
C  C56  1  0.81146310  0.94655153  0.59290684  1  -0.063408  0.003691  3.771506  0.005  -0.033029  0.001806  3.993926  0.002  -0.042252  0.001251  4.016624  0.002  -0.020332  -0.027998  0.002223  3.980029  0.003
C  C57  1  0.18852876  0.05343842  0.40709343  1  -0.0632  -0.003692  3.771354  -0.005  -0.03295  -0.001806  3.993884  -0.002  -0.042172  -0.001249  4.016582  -0.002  -0.020295  -0.027918  -0.002223  3.979985  -0.003
C  C58  1  0.72673399  0.07679992  0.56513970  1  -0.074166  -0.000828  3.681261  -0.001  -0.109392  0.000586  3.923217  0.001  -0.106471  0.000256  3.941199  0.0  -0.078305  -0.113031  -0.000143  3.91401  0.0
C  C59  1  0.27325565  0.92319510  0.43486388  1  -0.074242  0.000835  3.681103  0.001  -0.109428  -0.000585  3.923062  -0.001  -0.106504  -0.000259  3.941038  0.0  -0.078305  -0.113069  0.000142  3.913857  0.0
C  C60  1  0.77832856  0.19194994  0.58463254  1  -0.083882  0.002967  3.774632  0.004  -0.057186  0.001193  4.004659  0.002  -0.068908  0.00102  4.028082  0.001  -0.023356  -0.05007  0.001015  3.990875  0.002
C  C61  1  0.22166734  0.80804407  0.41536534  1  -0.083988  -0.002968  3.774669  -0.004  -0.057238  -0.001193  4.004642  -0.002  -0.068961  -0.001019  4.028063  -0.001  -0.023353  -0.050121  -0.001014  3.990856  -0.002
C  C62  1  0.68968416  0.33143709  0.55455098  1  0.652633  -0.003106  3.876076  -0.006  0.61054  -0.002014  4.174977  -0.005  0.651257  -0.001723  4.16635  -0.005  0.217925  0.57999  -0.002592  4.178832  -0.005
C  C63  1  0.31031178  0.66855689  0.44545122  1  0.652553  0.003101  3.876239  0.006  0.610439  0.002011  4.175189  0.005  0.651156  0.001721  4.166564  0.005  0.217855  0.579887  0.00259  4.179041  0.005
C  C64  1  0.91603711  0.17598164  0.63151229  1  -0.044185  -0.003807  3.711903  -0.005  -0.072882  -0.001569  3.96099  -0.002  -0.068886  -0.001126  3.980551  -0.001  -0.081478  -0.073453  -0.001405  3.945676  -0.002
C  C65  1  0.08395070  0.82401034  0.36849042  1  -0.04424  0.003808  3.712185  0.005  -0.072995  0.001568  3.961289  0.002  -0.069011  0.001128  3.980861  0.001  -0.081605  -0.073563  0.001405  3.94597  0.002
C  C66  1  0.00292946  0.04645424  0.65663366  1  -0.088675  0.001841  3.784406  0.003  -0.101121  0.000387  4.043787  0.001  -0.107773  0.000437  4.067262  0.001  -0.097284  -0.096573  0.000282  4.025377  0.0
C  C67  1  0.99706974  0.95353566  0.34336787  1  -0.0886  -0.001842  3.78464  -0.003  -0.101027  -0.000386  4.044015  -0.001  -0.107678  -0.00044  4.067488  -0.001  -0.097251  -0.096481  -0.000282  4.025605  0.0
C  C68  1  0.95076223  0.93155093  0.63786778  1  -0.049105  -0.003413  3.71815  -0.004  -0.07691  -0.001105  3.967063  -0.001  -0.073628  -0.000847  3.986397  -0.001  -0.077099  -0.076809  -0.000452  3.951894  -0.001
C  C69  1  0.04922962  0.06843902  0.36213105  1  -0.049201  0.003402  3.718024  0.004  -0.076949  0.001103  3.966969  0.001  -0.073667  0.00085  3.9863  0.001  -0.077116  -0.076847  0.000451  3.951799  0.001
N  N70  1  0.48338559  0.63894903  0.69250446  1  -0.283916  0.037925  3.268743  0.064  -0.235335  0.025371  3.539268  0.042  -0.251781  0.022482  3.547388  0.036  -0.317524  -0.224688  0.027643  3.535536  0.045
N  N71  1  0.51663406  0.36105403  0.30749237  1  -0.283965  -0.037919  3.268566  -0.064  -0.235346  -0.025368  3.539069  -0.042  -0.25181  -0.022476  3.5472  -0.036  -0.317579  -0.224705  -0.027641  3.535342  -0.045
N  N72  1  0.94352456  0.70698010  0.93465102  1  -0.25997  -0.002792  2.927295  -0.004  -0.24823  -0.001146  3.22165  -0.002  -0.253383  -0.000719  3.230164  -0.001  -0.232928  -0.24563  -0.001808  3.217147  -0.003
N  N73  1  0.05648206  0.29303316  0.06534915  1  -0.259812  0.002791  2.92722  0.004  -0.248104  0.001145  3.221532  0.002  -0.253251  0.000718  3.230054  0.001  -0.232903  -0.2455  0.001807  3.217029  0.003
N  N74  1  0.84781279  0.70453469  0.02714878  1  -0.289085  -0.003241  2.946008  -0.005  -0.27586  -0.001285  3.243753  -0.002  -0.282534  -0.00083  3.251814  -0.001  -0.237321  -0.271655  -0.001993  3.23935  -0.003
N  N75  1  0.15219523  0.29547756  0.97284917  1  -0.289204  0.003242  2.946132  0.005  -0.275979  0.001286  3.243949  0.002  -0.282652  0.000832  3.252012  0.001  -0.237367  -0.271772  0.001994  3.239542  0.003
N  N76  1  0.10348631  0.61130351  0.04435650  1  -0.001191  -0.002217  3.534902  -0.004  0.078209  -0.001019  3.761313  -0.002  0.06528  -0.000515  3.784843  -0.001  -0.141089  0.086385  -0.001925  3.745675  -0.003
N  N77  1  0.89651851  0.38870670  0.95564496  1  -0.001323  0.002215  3.534554  0.004  0.078174  0.001019  3.760845  0.002  0.065247  0.000515  3.78438  0.001  -0.141192  0.086357  0.001925  3.745207  0.003
N  N78  1  0.24028212  0.55581150  0.09041362  1  -0.49192  0.000116  2.943008  0.0  -0.498963  3.8e-05  3.175495  0.0  -0.505325  2.2e-05  3.175548  0.0  -0.483689  -0.494551  5.1e-05  3.17615  0.0
N  N79  1  0.75971411  0.44419876  0.90958456  1  -0.491942  -0.000116  2.942798  0.0  -0.498981  -3.8e-05  3.17531  0.0  -0.505343  -2.4e-05  3.175361  0.0  -0.483618  -0.494569  -5.1e-05  3.175965  0.0
N  N80  1  0.74990593  0.62743402  0.40312365  1  -0.305502  0.041538  3.300348  0.071  -0.260857  0.02626  3.582054  0.043  -0.278296  0.023411  3.588914  0.037  -0.323807  -0.248871  0.028221  3.579091  0.046
N  N81  1  0.25009244  0.37255995  0.59687754  1  -0.305417  -0.041533  3.300206  -0.071  -0.260794  -0.026262  3.58204  -0.043  -0.278246  -0.023414  3.588901  -0.037  -0.323765  -0.24881  -0.028222  3.579076  -0.046
O  O82  1  0.82205270  0.70462917  0.60207823  1  -0.602098  0.045989  1.948433  0.075  -0.57575  0.034593  2.199966  0.057  -0.614562  0.024331  2.196349  0.04  -0.308766  -0.54228  0.045115  2.199139  0.072
O  O83  1  0.17793075  0.29536592  0.39791745  1  -0.602008  -0.045991  1.948358  -0.075  -0.575672  -0.034589  2.199879  -0.057  -0.614494  -0.024329  2.19626  -0.04  -0.308756  -0.542201  -0.045113  2.199052  -0.072
O  O84  1  0.62560903  0.84246571  0.53152524  1  -0.61167  0.050251  2.023272  0.082  -0.580313  0.03654  2.283507  0.06  -0.620095  0.026118  2.27953  0.043  -0.310486  -0.54593  0.048017  2.281842  0.078
O  O85  1  0.37436795  0.15753142  0.46847533  1  -0.611617  -0.05025  2.023083  -0.082  -0.580356  -0.036539  2.283401  -0.06  -0.620147  -0.026118  2.279416  -0.043  -0.310655  -0.545976  -0.048016  2.281737  -0.078
O  O86  1  0.58935142  0.34529345  0.49442560  1  -0.636731  -0.049093  2.212979  -0.075  -0.61179  -0.038191  2.518468  -0.055  -0.651811  -0.027835  2.507381  -0.038  -0.312434  -0.574956  -0.051279  2.521583  -0.076
O  O87  1  0.41065950  0.65469849  0.50556778  1  -0.636735  0.049103  2.213091  0.075  -0.611778  0.0382  2.51852  0.055  -0.6518  0.027842  2.507454  0.038  -0.312383  -0.574941  0.051289  2.521634  0.076
O  O88  1  0.72236137  0.43097581  0.58963735  1  -0.60647  0.04339  2.092352  0.067  -0.574511  0.033903  2.370401  0.05  -0.613043  0.026511  2.359737  0.038  -0.3056  -0.541651  0.039065  2.376167  0.057
O  O89  1  0.27762244  0.56901818  0.41037211  1  -0.606376  -0.043387  2.092404  -0.067  -0.574405  -0.033902  2.370484  -0.05  -0.612941  -0.026509  2.359814  -0.038  -0.305589  -0.541547  -0.039064  2.376247  -0.057
