# generated using pymatgen
data_CuHgH4C10(S2N3)2
_symmetry_space_group_name_H-M   'P 1'
_cell_length_a   8.22722921
_cell_length_b   8.22712892
_cell_length_c   12.05365541
_cell_angle_alpha   84.10148170
_cell_angle_beta   84.10259415
_cell_angle_gamma   87.70883491
_symmetry_Int_Tables_number   1
_chemical_formula_structural   CuHgH4C10(S2N3)2
_chemical_formula_sum   'Cu2 Hg2 H8 C20 S8 N12'
_cell_volume   806.89775968
_cell_formula_units_Z   2
loop_
 _symmetry_equiv_pos_site_id
 _symmetry_equiv_pos_as_xyz
  1  'x, y, z'
loop_
 _atom_site_type_symbol
 _atom_site_label
 _atom_site_symmetry_multiplicity
 _atom_site_fract_x
 _atom_site_fract_y
 _atom_site_fract_z
 _atom_site_occupancy
 _atom_site_hle17_ddec_charge
 _atom_site_hle17_ddec_spin_density
 _atom_site_hle17_ddec_sum_bond_order
 _atom_site_hle17_magmom
 _atom_site_hse06_10hf_ddec_charge
 _atom_site_hse06_10hf_ddec_spin_density
 _atom_site_hse06_10hf_ddec_sum_bond_order
 _atom_site_hse06_10hf_magmom
 _atom_site_hse06_ddec_charge
 _atom_site_hse06_ddec_spin_density
 _atom_site_hse06_ddec_sum_bond_order
 _atom_site_hse06_magmom
 _atom_site_pbe_cm5_charge
 _atom_site_pbe_ddec_charge
 _atom_site_pbe_ddec_spin_density
 _atom_site_pbe_ddec_sum_bond_order
 _atom_site_pbe_magmom
Cu  Cu0  1  0.86879019  0.09571614  0.62948186  1  0.944089  -0.763312  2.011157  -0.537  0.939412  -0.844077  2.417239  -0.658  1.007581  -0.916577  2.361022  -0.737  0.860062  0.89389  -0.787166  2.461256  -0.601
Cu  Cu1  1  0.09571192  0.86878145  0.12947817  1  0.943977  0.763287  2.011284  0.537  0.939317  0.844071  2.417393  0.658  1.007516  0.916573  2.361148  0.737  0.86  0.893785  0.787147  2.461442  0.601
Hg  Hg2  1  0.38241952  0.62821868  0.75566807  1  0.468302  -0.000644  2.199732  0.002  0.351491  0.000708  2.690578  0.001  0.385039  0.000908  2.673773  0.001  0.411407  0.328577  0.000217  2.701694  0.001
Hg  Hg3  1  0.62822898  0.38242496  0.25566901  1  0.468319  0.000645  2.199786  -0.002  0.35152  -0.000707  2.690637  -0.001  0.385064  -0.000906  2.673828  -0.001  0.411435  0.328607  -0.000216  2.701765  -0.001
H  H4  1  0.06162085  0.19964844  0.41424179  1  0.109722  -0.001649  0.921784  -0.002  0.116629  -0.00135  0.981126  -0.002  0.11717  -0.000896  0.980695  -0.001  0.128106  0.116186  -0.001721  0.98145  -0.002
H  H5  1  0.19964539  0.06162975  0.91423977  1  0.109936  0.001651  0.92167  0.002  0.116845  0.00135  0.98098  0.002  0.117386  0.000896  0.980545  0.001  0.128205  0.116402  0.001723  0.981309  0.002
H  H6  1  0.17352908  0.46033152  0.31393966  1  0.120645  -0.000709  0.97116  -0.001  0.129613  -0.000632  1.032154  -0.001  0.131208  -0.000417  1.033224  0.0  0.109289  0.128389  -0.000805  1.031614  -0.001
H  H7  1  0.46031670  0.17353341  0.81393151  1  0.120562  0.000708  0.971255  0.001  0.129568  0.000632  1.032221  0.001  0.131163  0.000417  1.033293  0.0  0.109266  0.128345  0.000805  1.031679  0.001
H  H8  1  0.97918479  0.70555210  0.60256207  1  0.131761  -0.000665  0.954596  -0.001  0.136524  -0.000603  1.019194  -0.001  0.137788  -0.000384  1.021014  0.0  0.114056  0.135765  -0.000787  1.017735  -0.001
H  H9  1  0.70553598  0.97918335  0.10255424  1  0.131606  0.000664  0.954807  0.001  0.136465  0.000603  1.019298  0.001  0.137722  0.000384  1.021115  0.0  0.114068  0.135712  0.000787  1.017838  0.001
H  H10  1  0.87376890  0.43563871  0.68985736  1  0.090929  -0.00153  0.961586  -0.002  0.091031  -0.001224  1.037226  -0.002  0.091968  -0.000794  1.03596  -0.001  0.114195  0.090302  -0.001586  1.038203  -0.002
H  H11  1  0.43563131  0.87377631  0.18984883  1  0.090837  0.00153  0.961792  0.002  0.091127  0.001224  1.037287  0.002  0.092063  0.000794  1.036022  0.001  0.114162  0.090398  0.001586  1.038264  0.002
C  C12  1  0.04632721  0.31499673  0.45188662  1  0.132345  0.00917  3.662128  0.01  0.104053  0.000751  3.920057  0.002  0.112345  0.002607  3.939891  0.004  0.057411  0.098607  -0.000654  3.906379  0.0
C  C13  1  0.31497649  0.04633126  0.95188545  1  0.131895  -0.009186  3.662446  -0.01  0.103649  -0.000749  3.920337  -0.002  0.111941  -0.002605  3.940179  -0.004  0.057242  0.098205  0.000655  3.906654  0.0
C  C14  1  0.10900059  0.45932551  0.39718363  1  -0.124799  -0.015256  3.662105  -0.016  -0.145332  -0.00619  3.90551  -0.007  -0.152081  -0.005468  3.92678  -0.006  -0.067845  -0.140812  -0.006943  3.891394  -0.008
C  C15  1  0.45930178  0.10899978  0.89717446  1  -0.124426  0.015284  3.661883  0.016  -0.144995  0.006192  3.905249  0.007  -0.151743  0.00546  3.926525  0.006  -0.067618  -0.14048  0.006946  3.891126  0.008
C  C16  1  0.08601807  0.60296993  0.45134212  1  0.093012  0.010476  3.817351  0.011  0.110498  0.003255  4.039451  0.004  0.112591  0.003665  4.0595  0.004  0.028364  0.108921  0.002972  4.026158  0.003
C  C17  1  0.60296245  0.08601378  0.95133544  1  0.092829  -0.010499  3.817097  -0.011  0.110284  -0.003255  4.039306  -0.004  0.112376  -0.003659  4.059354  -0.004  0.028235  0.108711  -0.002972  4.02601  -0.003
C  C18  1  0.00003329  0.59665890  0.55823170  1  -0.125412  -0.014358  3.644577  -0.015  -0.144353  -0.005689  3.885852  -0.007  -0.151375  -0.005064  3.907163  -0.006  -0.066381  -0.139692  -0.006394  3.871319  -0.007
C  C19  1  0.59664047  0.00002878  0.05823028  1  -0.125296  0.014377  3.644872  0.015  -0.144268  0.005686  3.886229  0.007  -0.151276  0.005057  3.907529  0.006  -0.066428  -0.139616  0.006394  3.8717  0.007
C  C20  1  0.94070393  0.44722190  0.60681669  1  0.134787  0.009664  3.672109  0.01  0.107154  0.001295  3.930937  0.002  0.116248  0.003035  3.949252  0.004  0.054158  0.101075  -7.1e-05  3.918305  0.001
C  C21  1  0.44721554  0.94069620  0.10681227  1  0.134843  -0.009682  3.672559  -0.01  0.106962  -0.00129  3.931492  -0.002  0.116054  -0.003038  3.94981  -0.004  0.05414  0.100883  7.2e-05  3.918862  -0.001
C  C22  1  0.15142151  0.75368782  0.39992517  1  0.280863  -0.003572  3.692543  -0.004  0.266878  -0.001063  3.972304  -0.001  0.277274  -0.001171  3.988643  -0.001  0.197077  0.260077  -0.001027  3.960904  -0.001
C  C23  1  0.75367328  0.15140985  0.89991431  1  0.280944  0.003623  3.692722  0.004  0.266932  0.001061  3.972553  0.001  0.277333  0.001172  3.98889  0.001  0.197055  0.26013  0.001027  3.961154  0.001
C  C24  1  0.55166657  0.30472641  0.62263219  1  0.289762  0.009268  3.979167  0.006  0.284985  -0.002974  4.294491  -0.007  0.310975  -0.001391  4.305924  -0.005  0.1545  0.266723  -0.003992  4.285701  -0.008
C  C25  1  0.30474360  0.55166540  0.12263683  1  0.289714  -0.009279  3.978999  -0.006  0.284932  0.002975  4.294346  0.007  0.310922  0.001395  4.305781  0.005  0.154376  0.266672  0.003992  4.285555  0.008
C  C26  1  0.05694638  0.70592552  0.91313746  1  0.266698  -0.001268  3.934393  -0.001  0.260457  -0.001156  4.24018  -0.001  0.280477  -0.001173  4.255373  -0.001  0.138467  0.247124  -0.001042  4.229324  -0.001
C  C27  1  0.70593410  0.05692961  0.41313437  1  0.266564  0.001283  3.934538  0.001  0.260317  0.00116  4.240337  0.001  0.28033  0.001187  4.255533  0.001  0.138462  0.246986  0.001042  4.229482  0.001
C  C28  1  0.22375923  0.95976889  0.63455802  1  0.289808  0.012158  3.954192  0.008  0.289465  0.001029  4.251598  -0.004  0.314377  0.002665  4.263878  -0.001  0.159812  0.27229  -0.000174  4.242696  -0.005
C  C29  1  0.95976356  0.22375134  0.13455832  1  0.290037  -0.01219  3.954242  -0.008  0.289688  -0.001033  4.251649  0.004  0.314602  -0.002655  4.263928  0.001  0.15989  0.272517  0.000172  4.242753  0.005
C  C30  1  0.72170050  0.78338960  0.77450188  1  0.285918  0.010243  3.930523  0.006  0.28276  0.001495  4.221705  -0.003  0.305913  0.003112  4.235256  0.0  0.157514  0.266917  0.000308  4.212117  -0.004
C  C31  1  0.78339042  0.72171352  0.27450436  1  0.285803  -0.01025  3.930368  -0.006  0.282653  -0.001496  4.221548  0.003  0.305807  -0.003103  4.235101  0.0  0.157539  0.266814  -0.000309  4.211959  0.004
S  S32  1  0.39393539  0.42070443  0.59378969  1  -0.233206  -0.03853  2.247998  -0.038  -0.232581  -0.005268  2.598634  -0.006  -0.253247  -0.001902  2.597068  -0.003  -0.122721  -0.216253  -0.009977  2.598623  -0.01
S  S33  1  0.42070853  0.39392915  0.09379820  1  -0.233184  0.038544  2.24809  0.038  -0.232572  0.005263  2.598725  0.006  -0.253235  0.001906  2.597153  0.003  -0.122691  -0.216244  0.009981  2.598717  0.01
S  S34  1  0.10976635  0.53885568  0.85193427  1  -0.184054  -0.002732  2.312061  -0.003  -0.146641  0.000155  2.660946  0.0  -0.162408  0.000124  2.65796  0.0  -0.084911  -0.136328  -3.6e-05  2.663072  0.0
S  S35  1  0.53887126  0.10976272  0.35192000  1  -0.18401  0.002736  2.312  0.003  -0.146606  -0.000154  2.660934  0.0  -0.162364  -0.000122  2.657933  0.0  -0.084931  -0.136284  3.6e-05  2.663045  0.0
S  S36  1  0.41479305  0.89703316  0.62305159  1  -0.177314  -0.013064  2.317679  -0.014  -0.155525  -0.000706  2.660863  -0.002  -0.174309  0.000495  2.660091  -0.001  -0.086694  -0.142456  -0.002378  2.661039  -0.003
S  S37  1  0.89703838  0.41478825  0.12305845  1  -0.177419  0.013057  2.317722  0.014  -0.155633  0.000712  2.660909  0.002  -0.174418  -0.000497  2.660139  0.001  -0.086782  -0.142563  0.002378  2.661093  0.003
S  S38  1  0.64239044  0.62981236  0.85790893  1  -0.207783  -0.000855  2.238983  -0.003  -0.174031  0.000241  2.573493  -0.001  -0.190247  0.000879  2.571473  0.0  -0.098717  -0.163345  -0.000529  2.575025  -0.002
S  S39  1  0.62979931  0.64240297  0.35790215  1  -0.20776  0.000852  2.238857  0.003  -0.17402  -0.000243  2.573388  0.001  -0.19023  -0.000878  2.57136  0.0  -0.098706  -0.163334  0.000528  2.574924  0.002
N  N40  1  0.96363202  0.31060349  0.55427434  1  -0.26642  -0.12061  3.3147  -0.148  -0.22367  -0.081527  3.59968  -0.109  -0.256885  -0.063185  3.626135  -0.089  -0.318739  -0.201934  -0.093101  3.581729  -0.121
N  N41  1  0.31060355  0.96363793  0.05426490  1  -0.26626  0.120642  3.31486  0.148  -0.223524  0.081531  3.599922  0.109  -0.256755  0.063195  3.6264  0.089  -0.318684  -0.201786  0.093118  3.58197  0.121
N  N42  1  0.20578607  0.87657737  0.35809916  1  -0.370224  0.004952  2.587102  0.006  -0.363882  0.001238  2.836885  0.002  -0.374078  0.00143  2.846491  0.002  -0.285708  -0.356896  0.00115  2.830418  0.002
N  N43  1  0.87657011  0.20577166  0.85809665  1  -0.37028  -0.005006  2.587164  -0.006  -0.363888  -0.001237  2.836875  -0.002  -0.374084  -0.00143  2.846482  -0.002  -0.285658  -0.356902  -0.001151  2.830409  -0.002
N  N44  1  0.66187762  0.21665575  0.64730409  1  -0.510031  -0.069529  3.07652  -0.082  -0.501347  -0.042883  3.394288  -0.054  -0.530836  -0.035946  3.400508  -0.046  -0.405947  -0.4812  -0.04746  3.389864  -0.058
N  N45  1  0.21666641  0.66186738  0.14730960  1  -0.50997  0.069532  3.076217  0.082  -0.50126  0.042881  3.393945  0.054  -0.530755  0.035934  3.400175  0.046  -0.405852  -0.481119  0.047454  3.389546  0.058
N  N46  1  0.01438120  0.82097827  0.96090644  1  -0.484213  -0.001581  2.774342  0.0  -0.470121  -0.000155  3.043095  0.001  -0.488883  -0.000115  3.051296  0.001  -0.368185  -0.457269  -0.0003  3.037405  0.001
N  N47  1  0.82098354  0.01437886  0.46090590  1  -0.484125  0.001564  2.774512  0.0  -0.470032  0.000154  3.043256  -0.001  -0.488786  9.9e-05  3.051457  -0.001  -0.368166  -0.457184  0.0003  3.03756  -0.001
N  N48  1  0.08784417  0.01085357  0.64209126  1  -0.487785  -0.067153  3.049162  -0.079  -0.473325  -0.048111  3.358524  -0.061  -0.5003  -0.041672  3.360079  -0.054  -0.402817  -0.455649  -0.051537  3.357587  -0.063
N  N49  1  0.01084981  0.08783358  0.14208766  1  -0.487924  0.067194  3.049289  0.079  -0.473466  0.048107  3.358674  0.061  -0.500446  0.041666  3.360228  0.054  -0.402806  -0.45579  0.051539  3.357755  0.063
N  N50  1  0.77872761  0.89367134  0.71537299  1  -0.467354  -0.053977  2.987734  -0.063  -0.440109  -0.046805  3.27854  -0.059  -0.466283  -0.041616  3.283473  -0.054  -0.375727  -0.422977  -0.04936  3.275331  -0.06
N  N51  1  0.89368038  0.77871260  0.21536988  1  -0.467262  0.053983  2.987767  0.063  -0.44003  0.046806  3.278614  0.059  -0.466208  0.041605  3.283545  0.054  -0.375777  -0.422896  0.049357  3.275418  0.06
