# generated using pymatgen
data_NiH9C4NO6
_symmetry_space_group_name_H-M   'P 1'
_cell_length_a   7.74194836
_cell_length_b   9.38828192
_cell_length_c   10.56611374
_cell_angle_alpha   90.09511815
_cell_angle_beta   88.78161994
_cell_angle_gamma   91.05748195
_symmetry_Int_Tables_number   1
_chemical_formula_structural   NiH9C4NO6
_chemical_formula_sum   'Ni4 H36 C16 N4 O24'
_cell_volume   767.67810037
_cell_formula_units_Z   4
loop_
 _symmetry_equiv_pos_site_id
 _symmetry_equiv_pos_as_xyz
  1  'x, y, z'
loop_
 _atom_site_type_symbol
 _atom_site_label
 _atom_site_symmetry_multiplicity
 _atom_site_fract_x
 _atom_site_fract_y
 _atom_site_fract_z
 _atom_site_occupancy
 _atom_site_pbe_cm5_charge
 _atom_site_pbe_ddec_charge
 _atom_site_pbe_ddec_spin_density
 _atom_site_pbe_ddec_sum_bond_order
 _atom_site_pbe_magmom
Ni  Ni0  1  0.85561670  0.94681359  0.89096740  1  0.611019  0.863913  1.79194  2.290338  1.563
Ni  Ni1  1  0.13835689  0.53545501  0.40637885  1  0.617325  0.880734  1.795997  2.288448  1.566
Ni  Ni2  1  0.61991641  0.47137784  0.08888070  1  0.56427  0.644461  0.017785  2.632964  0.015
Ni  Ni3  1  0.37773612  0.04607618  0.59406798  1  0.623025  0.900894  -1.850168  2.287275  -1.578
H  H4  1  0.12432906  0.93702760  0.74705486  1  0.298778  0.291946  0.00051  0.974017  0.0
H  H5  1  0.85291454  0.54356484  0.29310676  1  0.295706  0.297772  0.000331  0.995774  0.0
H  H6  1  0.34277510  0.43723110  0.20357300  1  0.301656  0.298839  -0.000604  0.972042  0.0
H  H7  1  0.61184327  0.06822660  0.75496583  1  0.296069  0.287317  -0.000415  0.98446  0.0
H  H8  1  0.18075532  0.86493971  0.88087413  1  0.306786  0.3052  0.000569  0.917177  0.0
H  H9  1  0.82911600  0.63917451  0.42303051  1  0.300823  0.301608  0.000541  0.941504  0.0
H  H10  1  0.33684634  0.34655909  0.06907769  1  0.304376  0.29868  -6.9e-05  0.937425  0.0
H  H11  1  0.69654905  0.14058212  0.62665073  1  0.309493  0.307758  -0.000399  0.905529  0.0
H  H12  1  0.13149517  0.69472133  0.69870903  1  0.117316  0.092674  0.001372  0.992809  0.002
H  H13  1  0.86170785  0.77393589  0.21111678  1  0.115932  0.088022  0.001576  0.997359  0.002
H  H14  1  0.37676015  0.21682735  0.29030703  1  0.120261  0.093185  -0.000108  1.000697  -0.001
H  H15  1  0.62371536  0.31133783  0.80048692  1  0.117206  0.088953  -0.001655  0.98369  -0.003
H  H16  1  0.02252785  0.51339530  0.83860739  1  0.109045  0.141909  0.000501  0.985945  0.0
H  H17  1  0.99340928  0.97322895  0.32087321  1  0.107173  0.135347  0.000665  0.986781  0.0
H  H18  1  0.48516751  0.01433533  0.17826112  1  0.109183  0.132408  -8.8e-05  1.013365  0.0
H  H19  1  0.52325520  0.49065481  0.66063089  1  0.11126  0.144674  -0.000267  0.97893  0.0
H  H20  1  0.14841475  0.62964909  0.92969855  1  0.110513  0.13803  -4.1e-05  0.972596  0.0
H  H21  1  0.85181641  0.88289602  0.42547698  1  0.113174  0.147364  -5.9e-05  0.969271  0.0
H  H22  1  0.34019633  0.09830376  0.08079302  1  0.107777  0.133901  0.000122  0.969057  0.0
H  H23  1  0.66554207  0.38428107  0.57472646  1  0.111698  0.140306  0.000139  0.966092  0.0
H  H24  1  0.04140444  0.16951767  0.81064830  1  0.287872  0.378596  -7.4e-05  0.960365  0.0
H  H25  1  0.96178393  0.28567512  0.34427874  1  0.29695  0.383731  0.000731  0.940557  0.001
H  H26  1  0.43925021  0.70747521  0.24626351  1  0.289361  0.373737  -4.8e-05  0.971931  0.0
H  H27  1  0.54948907  0.82985310  0.67664392  1  0.293004  0.387068  7.6e-05  0.945555  0.0
H  H28  1  0.85906740  0.20658555  0.88682123  1  0.288484  0.373786  0.000216  0.969978  0.0
H  H29  1  0.15167807  0.26692701  0.40069198  1  0.291397  0.375242  6.4e-05  0.967592  0.0
H  H30  1  0.58583437  0.78525743  0.16815709  1  0.304563  0.379039  -0.000151  0.93481  0.0
H  H31  1  0.37727516  0.78240257  0.60133236  1  0.299273  0.386106  -0.000178  0.93999  0.0
H  H32  1  0.04669696  0.94428174  0.09532531  1  0.285564  0.374485  0.00053  0.979535  0.0
H  H33  1  0.95117902  0.52236774  0.61088003  1  0.285017  0.368296  0.000389  0.992563  0.0
H  H34  1  0.42666479  0.47486598  0.90052025  1  0.292823  0.380604  -0.000288  0.968758  0.0
H  H35  1  0.59761908  0.05562785  0.39758326  1  0.286095  0.376834  -0.000497  0.972108  -0.001
H  H36  1  0.98352865  0.10923875  0.08337821  1  0.320902  0.404597  0.000896  0.877637  0.001
H  H37  1  0.02851986  0.36214523  0.59625143  1  0.31842  0.401244  0.001062  0.882004  0.001
H  H38  1  0.49561233  0.64177027  0.93159327  1  0.333181  0.415805  -7.2e-05  0.856172  0.0
H  H39  1  0.51595491  0.89866580  0.37443744  1  0.292478  0.40703  -0.00153  0.914868  -0.003
C  C40  1  0.86051322  0.73832402  0.70161917  1  0.216325  0.566448  0.001063  4.117363  0.0
C  C41  1  0.13104316  0.72914494  0.20554054  1  0.215679  0.569816  0.000978  4.114973  0.0
C  C42  1  0.64323891  0.27504831  0.26959103  1  0.223989  0.565819  0.000193  4.088641  0.0
C  C43  1  0.35453704  0.25790180  0.79181747  1  0.219034  0.575888  -0.000499  4.110942  0.0
C  C44  1  0.03514975  0.73054751  0.76901081  1  -0.006675  0.045434  -2.2e-05  3.874605  -0.002
C  C45  1  0.96034355  0.74804183  0.28007421  1  -0.005106  0.055841  -0.000157  3.875695  -0.003
C  C46  1  0.46749521  0.24072776  0.21158011  1  -0.000163  0.049292  0.001127  3.823625  0.002
C  C47  1  0.53421907  0.27308889  0.72793687  1  -0.004836  0.048728  0.000179  3.876956  0.003
C  C48  1  0.02789102  0.62209006  0.87638519  1  -0.15843  -0.341434  0.000425  3.889769  0.001
C  C49  1  0.97526290  0.87262471  0.37256164  1  -0.159262  -0.343866  -0.001929  3.880847  -0.002
C  C50  1  0.46821432  0.11199438  0.12315084  1  -0.160016  -0.337181  0.002129  3.885081  0.002
C  C51  1  0.53708645  0.38317010  0.62156730  1  -0.159307  -0.344135  0.001725  3.889772  0.001
C  C52  1  0.87843488  0.63846051  0.96987971  1  0.217269  0.628839  -0.000981  4.099246  -0.002
C  C53  1  0.11880991  0.86338216  0.46789087  1  0.21674  0.640753  -0.002565  4.09502  -0.003
C  C54  1  0.60472224  0.11477568  0.01731519  1  0.20517  0.630855  0.002588  4.139606  0.002
C  C55  1  0.40412234  0.36394825  0.51939141  1  0.216771  0.64341  0.004774  4.095893  0.006
N  N56  1  0.08123865  0.87204953  0.81915547  1  -0.633747  -0.602464  0.047242  3.441511  0.067
N  N57  1  0.91365488  0.61700210  0.34990536  1  -0.637192  -0.615608  0.049264  3.43627  0.07
N  N58  1  0.41314409  0.37187105  0.14465882  1  -0.62151  -0.540412  -0.007786  3.436053  -0.008
N  N59  1  0.58471631  0.13251108  0.67956901  1  -0.633813  -0.596133  -0.047415  3.440333  -0.066
O  O60  1  0.76841759  0.84849213  0.72100700  1  -0.296477  -0.524391  0.039229  2.294003  0.062
O  O61  1  0.22555853  0.62328765  0.23562260  1  -0.307018  -0.555502  0.041763  2.357528  0.066
O  O62  1  0.71386254  0.39532757  0.23560559  1  -0.291072  -0.458009  0.009485  2.44076  0.013
O  O63  1  0.26155145  0.14940175  0.76277963  1  -0.293528  -0.530686  -0.036615  2.283619  -0.056
O  O64  1  0.81465296  0.63628089  0.63107538  1  -0.308404  -0.53093  0.004532  2.219648  0.007
O  O65  1  0.17507567  0.81834787  0.12132933  1  -0.31579  -0.541913  0.004567  2.189446  0.007
O  O66  1  0.71450784  0.19516239  0.34718577  1  -0.296014  -0.513746  0.000993  2.158323  0.001
O  O67  1  0.30494467  0.35246470  0.86999934  1  -0.316837  -0.546836  -0.003353  2.199011  -0.005
O  O68  1  0.79173493  0.75118444  0.98040289  1  -0.29777  -0.545643  0.03968  2.323943  0.064
O  O69  1  0.20217159  0.74849560  0.48374375  1  -0.294821  -0.545661  0.035388  2.253393  0.056
O  O70  1  0.70619778  0.22149476  0.00621632  1  -0.306285  -0.561766  0.000218  2.25048  0.001
O  O71  1  0.32217085  0.24469050  0.50597966  1  -0.302764  -0.570342  -0.033565  2.343176  -0.052
O  O72  1  0.84612057  0.52624047  0.03572095  1  -0.311046  -0.477238  -0.001953  2.368292  -0.002
O  O73  1  0.14739738  0.97853876  0.52884982  1  -0.328338  -0.561471  -0.02177  2.31213  -0.032
O  O74  1  0.60820127  0.00373635  0.94658924  1  -0.332395  -0.562048  0.027828  2.256787  0.042
O  O75  1  0.38028852  0.47198477  0.45025585  1  -0.323865  -0.540884  0.017856  2.276321  0.027
O  O76  1  0.91357849  0.15600872  0.81293417  1  -0.577337  -0.764266  0.035373  2.14269  0.052
O  O77  1  0.08292374  0.31972683  0.33766052  1  -0.570728  -0.751996  0.03358  2.12572  0.05
O  O78  1  0.54533445  0.76694554  0.25490585  1  -0.574206  -0.74923  -0.001003  2.00121  -0.001
O  O79  1  0.42168816  0.84023378  0.67253164  1  -0.570033  -0.74489  -0.039031  2.139486  -0.057
O  O80  1  0.94903036  0.00998205  0.07236596  1  -0.569961  -0.76562  0.031598  2.167288  0.047
O  O81  1  0.05734016  0.46302304  0.58732679  1  -0.570952  -0.766732  0.032408  2.179764  0.048
O  O82  1  0.52568839  0.54144829  0.93131907  1  -0.550707  -0.712342  0.002559  2.267343  0.002
O  O83  1  0.52540138  0.97755377  0.43686937  1  -0.589822  -0.799845  -0.029401  2.158622  -0.044
