# generated using pymatgen
data_ZnH10C9N5O3
_symmetry_space_group_name_H-M   'P 1'
_cell_length_a   9.50889563
_cell_length_b   9.98205126
_cell_length_c   25.70151210
_cell_angle_alpha   89.99997904
_cell_angle_beta   90.00002995
_cell_angle_gamma   90.00001717
_symmetry_Int_Tables_number   1
_chemical_formula_structural   ZnH10C9N5O3
_chemical_formula_sum   'Zn8 H80 C72 N40 O24'
_cell_volume   2439.54341440
_cell_formula_units_Z   8
loop_
 _symmetry_equiv_pos_site_id
 _symmetry_equiv_pos_as_xyz
  1  'x, y, z'
loop_
 _atom_site_type_symbol
 _atom_site_label
 _atom_site_symmetry_multiplicity
 _atom_site_fract_x
 _atom_site_fract_y
 _atom_site_fract_z
 _atom_site_occupancy
 _atom_site_pbe_bader_charge
 _atom_site_pbe_bader_spin_density
 _atom_site_pbe_cm5_charge
 _atom_site_pbe_ddec_charge
 _atom_site_pbe_ddec_spin_density
 _atom_site_pbe_ddec_sum_bond_order
 _atom_site_pbe_magmom
Zn  Zn0  1  0.07985929  0.39098356  0.45243017  1  1.234118  0  0.742733  0.686561  0  2.536164  0
Zn  Zn1  1  0.57985849  0.10901750  0.54757017  1  1.234131  0  0.74276  0.686587  0  2.536107  0
Zn  Zn2  1  0.42014255  0.89098324  0.04756994  1  1.234056  0  0.742749  0.686548  0  2.536111  0
Zn  Zn3  1  0.92014232  0.60901779  0.95243039  1  1.234068  0  0.742735  0.686556  0  2.536134  0
Zn  Zn4  1  0.92014099  0.60901798  0.54757016  1  1.234129  0  0.742729  0.686495  0  2.536166  0
Zn  Zn5  1  0.42014073  0.89098405  0.45243017  1  1.234118  0  0.742797  0.68667  0  2.536078  0
Zn  Zn6  1  0.57985772  0.10901731  0.95243000  1  1.23412  0  0.742759  0.686613  0  2.536089  0
Zn  Zn7  1  0.07985795  0.39098275  0.04756994  1  1.234131  0  0.74275  0.686585  0  2.536083  0
H  H8  1  0.17477560  0.09955051  0.41801277  1  0.184293  0  0.146126  0.116369  0  0.988212  0
H  H9  1  0.67477284  0.40045258  0.58198642  1  0.184283  0  0.146115  0.116353  0  0.988185  0
H  H10  1  0.32522719  0.59954812  0.08198699  1  0.184278  0  0.146093  0.116321  0  0.988162  0
H  H11  1  0.82522701  0.90045389  0.91801332  1  0.184267  0  0.146128  0.116347  0  0.988215  0
H  H12  1  0.82522677  0.90045104  0.58198679  1  0.184279  0  0.146117  0.116361  0  0.98818  0
H  H13  1  0.32522428  0.59954997  0.41801236  1  0.184294  0  0.146133  0.116369  0  0.988141  0
H  H14  1  0.67477308  0.40045243  0.91801295  1  0.184266  0  0.146122  0.116353  0  0.988215  0
H  H15  1  0.17477326  0.09954766  0.08198624  1  0.184282  0  0.146105  0.116349  0  0.988198  0
H  H16  1  0.36138309  0.35357442  0.52981514  1  0.234612  0  0.143933  0.131718  0  1.008475  0
H  H17  1  0.86138430  0.14642772  0.47018564  1  0.234639  0  0.143891  0.13169  0  1.008528  0
H  H18  1  0.13861734  0.85357562  0.97018528  1  0.234632  0  0.143925  0.131728  0  1.008422  0
H  H19  1  0.63861792  0.64642733  0.02981460  1  0.234652  0  0.143932  0.13175  0  1.008412  0
H  H20  1  0.63861508  0.64642712  0.47018558  1  0.23464  0  0.143915  0.131701  0  1.008463  0
H  H21  1  0.13861703  0.85357383  0.52981547  1  0.234624  0  0.143914  0.131704  0  1.008437  0
H  H22  1  0.86138188  0.14642592  0.02981427  1  0.234646  0  0.143917  0.131735  0  1.008441  0
H  H23  1  0.36138340  0.35357422  0.97018534  1  0.234624  0  0.143943  0.131731  0  1.008455  0
H  H24  1  0.16492581  0.44090127  0.24999967  1  0.118416  0  0.10915  0.115687  0  1.004026  0
H  H25  1  0.66492528  0.05909982  0.75000068  1  0.118438  0  0.109125  0.115642  0  1.004073  0
H  H26  1  0.33507499  0.94090173  0.24999965  1  0.118425  0  0.109151  0.115693  0  1.004037  0
H  H27  1  0.83507341  0.55909928  0.75000066  1  0.118413  0  0.109117  0.11562  0  1.004075  0
H  H28  1  0.97447724  0.11432318  0.33399717  1  0.123096  0  0.105387  0.109413  0  1.023638  0
H  H29  1  0.47447729  0.38567900  0.66600286  1  0.12309  0  0.105416  0.109422  0  1.023615  0
H  H30  1  0.52552391  0.61432263  0.16600269  1  0.123085  0  0.105373  0.109359  0  1.023659  0
H  H31  1  0.02552209  0.88567829  0.83399756  1  0.123077  0  0.105391  0.109422  0  1.023611  0
H  H32  1  0.02552092  0.88567837  0.66600317  1  0.123102  0  0.105402  0.10942  0  1.02362  0
H  H33  1  0.52552298  0.61432355  0.33399748  1  0.12309  0  0.105386  0.109391  0  1.023665  0
H  H34  1  0.47447531  0.38567792  0.83399764  1  0.123056  0  0.105413  0.109425  0  1.023529  0
H  H35  1  0.97447607  0.11432225  0.16600316  1  0.123093  0  0.105379  0.109387  0  1.023651  0
H  H36  1  0.92160263  0.99862342  0.25000010  1  0.059749  0  0.102623  0.099599  0  1.005684  0
H  H37  1  0.42160162  0.50137762  0.74999985  1  0.059951  0  0.102635  0.099598  0  1.005621  0
H  H38  1  0.57839865  0.49862393  0.25000010  1  0.059764  0  0.102627  0.099613  0  1.005644  0
H  H39  1  0.07839660  0.00137813  0.75000024  1  0.059741  0  0.102647  0.099632  0  1.005592  0
H  H40  1  0.47076154  0.27961480  0.29435119  1  0.017052  0  0.092442  0.055835  0  1.005235  0
H  H41  1  0.97076100  0.22038337  0.70564883  1  0.010975  0  0.092461  0.055885  0  1.005214  0
H  H42  1  0.02923921  0.77961321  0.20564855  1  0.011022  0  0.09245  0.055846  0  1.00523  0
H  H43  1  0.52923879  0.72038670  0.79435132  1  0.017226  0  0.092453  0.055848  0  1.005225  0
H  H44  1  0.52923873  0.72038574  0.70564875  1  0.010991  0  0.092471  0.055874  0  1.005224  0
H  H45  1  0.02923927  0.77961518  0.29435189  1  0.017074  0  0.092441  0.055842  0  1.005274  0
H  H46  1  0.97076002  0.22038633  0.79435140  1  0.01708  0  0.092463  0.055879  0  1.005223  0
H  H47  1  0.47076148  0.27961284  0.20564902  1  0.01116  0  0.092449  0.055851  0  1.005231  0
H  H48  1  0.42764929  0.14091883  0.33524801  1  0.077436  0  0.100023  0.087638  0  1.00418  0
H  H49  1  0.92764768  0.35907732  0.66475122  1  0.077475  0  0.100007  0.087633  0  1.004203  0
H  H50  1  0.07235142  0.64091630  0.16475291  1  0.077401  0  0.100027  0.087598  0  1.00422  0
H  H51  1  0.57235110  0.85908464  0.83524735  1  0.077402  0  0.100028  0.087603  0  1.004207  0
H  H52  1  0.57235203  0.85908071  0.66475193  1  0.077439  0  0.100016  0.087642  0  1.004154  0
H  H53  1  0.07235259  0.64091722  0.33524755  1  0.077408  0  0.100008  0.087609  0  1.004154  0
H  H54  1  0.92764780  0.35908225  0.83524742  1  0.077409  0  0.100019  0.087643  0  1.004171  0
H  H55  1  0.42764917  0.14091591  0.16475259  1  0.077404  0  0.100028  0.087609  0  1.004218  0
H  H56  1  0.67139790  0.10937123  0.36125195  1  0.049617  0  0.095683  0.073353  0  0.992498  0
H  H57  1  0.17139791  0.39062585  0.63874723  1  0.049639  0  0.095707  0.073381  0  0.992451  0
H  H58  1  0.82860220  0.60936779  0.13874907  1  0.049467  0  0.095689  0.073382  0  0.992486  0
H  H59  1  0.32860147  0.89063121  0.86125046  1  0.049602  0  0.095685  0.073377  0  0.992522  0
H  H60  1  0.32860342  0.89062931  0.63874760  1  0.049601  0  0.095691  0.073378  0  0.992503  0
H  H61  1  0.82860236  0.60936769  0.36125154  1  0.049571  0  0.095677  0.073374  0  0.992483  0
H  H62  1  0.17139807  0.39063175  0.86125087  1  0.049481  0  0.095685  0.073391  0  0.992484  0
H  H63  1  0.67139880  0.10936733  0.13874909  1  0.049458  0  0.095674  0.073372  0  0.9925  0
H  H64  1  0.70186934  0.17957027  0.29844008  1  0.056284  0  0.098409  0.071939  0  1.002937  0
H  H65  1  0.20186836  0.32042682  0.70155950  1  0.056347  0  0.098394  0.071908  0  1.002978  0
H  H66  1  0.79813184  0.67956976  0.20156015  1  0.052824  0  0.098366  0.071864  0  1.003023  0
H  H67  1  0.29812995  0.82043024  0.79843937  1  0.052809  0  0.098367  0.071873  0  1.002978  0
H  H68  1  0.29813199  0.82043028  0.70155947  1  0.056291  0  0.098396  0.071925  0  1.002996  0
H  H69  1  0.79813191  0.67956871  0.29844006  1  0.056293  0  0.098374  0.071897  0  1.002982  0
H  H70  1  0.20186843  0.32043079  0.79843940  1  0.052805  0  0.09836  0.071863  0  1.003002  0
H  H71  1  0.70186927  0.17956831  0.20156096  1  0.052793  0  0.098361  0.071872  0  1.002972  0
H  H72  1  0.38428996  0.37753951  0.37551527  1  0.4939  0  0.29671  0.276002  0  1.007868  0
H  H73  1  0.88428927  0.12245663  0.62448474  1  0.493874  0  0.296719  0.276025  0  1.007823  0
H  H74  1  0.11571082  0.87753502  0.12448445  1  0.493829  0  0.296731  0.275975  0  1.007921  0
H  H75  1  0.61571049  0.62246492  0.87551504  1  0.493852  0  0.296743  0.275979  0  1.007944  0
H  H76  1  0.61571137  0.62246003  0.62448545  1  0.493884  0  0.296734  0.276048  0  1.007807  0
H  H77  1  0.11570995  0.87753691  0.37551521  1  0.493913  0  0.296731  0.275985  0  1.007908  0
H  H78  1  0.88428840  0.12246252  0.87551510  1  0.493911  0  0.296741  0.27601  0  1.007857  0
H  H79  1  0.38429083  0.37753562  0.12448451  1  0.493849  0  0.296695  0.275888  0  1.00786  0
H  H80  1  0.80830554  0.32623048  0.37270069  1  0.483223  0  0.297355  0.276038  0  1.006893  0
H  H81  1  0.30830546  0.17376664  0.62729930  1  0.483277  0  0.297343  0.276039  0  1.006907  0
H  H82  1  0.69169569  0.82622801  0.12729952  1  0.483222  0  0.297296  0.275964  0  1.007019  0
H  H83  1  0.19169596  0.67377195  0.87270038  1  0.483283  0  0.297309  0.275966  0  1.007001  0
H  H84  1  0.19169473  0.67377006  0.62729847  1  0.483217  0  0.297358  0.276048  0  1.006864  0
H  H85  1  0.69169586  0.82622790  0.37270104  1  0.483221  0  0.297331  0.27598  0  1.006995  0
H  H86  1  0.30830459  0.17377153  0.87270042  1  0.483282  0  0.297337  0.276013  0  1.00694  0
H  H87  1  0.80830642  0.32622759  0.12729996  1  0.483269  0  0.29734  0.275982  0  1.006937  0
C  C88  1  0.24456712  0.13953227  0.44755928  1  0.995946  0  0.16447  0.171133  0  3.928844  0
C  C89  1  0.74456641  0.36046984  0.55243992  1  0.995957  0  0.164446  0.17109  0  3.928889  0
C  C90  1  0.25543359  0.63953189  0.05244047  1  0.995946  0  0.164461  0.171091  0  3.928818  0
C  C91  1  0.75543448  0.86047010  0.94755944  1  0.995929  0  0.164435  0.171122  0  3.928841  0
C  C92  1  0.75543315  0.86047028  0.55244066  1  0.995941  0  0.164459  0.171086  0  3.928801  0
C  C93  1  0.25543176  0.63953271  0.44755925  1  0.995953  0  0.164451  0.171062  0  3.92872  0
C  C94  1  0.74456669  0.36047166  0.94755947  1  0.995939  0  0.164452  0.171119  0  3.92883  0
C  C95  1  0.24456474  0.13953045  0.05244012  1  0.995941  0  0.164424  0.171037  0  3.928883  0
C  C96  1  0.33913652  0.26855884  0.50442676  1  0.979118  0  0.164653  0.169502  0  3.881458  0
C  C97  1  0.83913674  0.23144230  0.49557363  1  0.979062  0  0.16472  0.169586  0  3.88139  0
C  C98  1  0.16086598  0.76855802  0.99557407  1  0.979191  0  0.164671  0.169465  0  3.881506  0
C  C99  1  0.66086445  0.73144294  0.00442582  1  0.979081  0  0.164664  0.169466  0  3.881342  0
C  C100  1  0.66086270  0.73144271  0.49557397  1  0.979074  0  0.164729  0.169591  0  3.881311  0
C  C101  1  0.16086353  0.76855725  0.50442631  1  0.97925  0  0.164701  0.169503  0  3.881468  0
C  C102  1  0.83913534  0.23144253  0.00442587  1  0.9792  0  0.164686  0.169494  0  3.881443  0
C  C103  1  0.33913477  0.26855861  0.99557334  1  0.979242  0  0.16463  0.169519  0  3.881447  0
C  C104  1  0.10040208  0.35453119  0.34726204  1  1.54069  0  0.209174  0.567863  0  4.197984  0
C  C105  1  0.60040144  0.14546988  0.65273830  1  1.540789  0  0.209117  0.567684  0  4.198197  0
C  C106  1  0.39960080  0.85453176  0.15273768  1  1.540226  0  0.209196  0.56775  0  4.19815  0
C  C107  1  0.89959728  0.64546926  0.84726225  1  1.540775  0  0.209097  0.567723  0  4.198248  0
C  C108  1  0.89959820  0.64546936  0.65273790  1  1.540752  0  0.209237  0.567911  0  4.197914  0
C  C109  1  0.39959883  0.85453167  0.34726204  1  1.540685  0  0.209106  0.567704  0  4.198208  0
C  C110  1  0.60039947  0.14546878  0.84726226  1  1.540199  0  0.209167  0.5678  0  4.198159  0
C  C111  1  0.10039878  0.35453028  0.15273769  1  1.540162  0  0.209105  0.567674  0  4.198205  0
C  C112  1  0.10921270  0.34541387  0.25000006  1  -0.019704  0  -0.073851  -0.109031  0  3.932161  0
C  C113  1  0.60921220  0.15458920  0.75000028  1  -0.020027  0  -0.073881  -0.109031  0  3.932337  0
C  C114  1  0.39078702  0.84541435  0.25000005  1  -0.019292  0  -0.073877  -0.109067  0  3.932197  0
C  C115  1  0.89078441  0.65458868  0.74999988  1  -0.019952  0  -0.073845  -0.109013  0  3.932242  0
C  C116  1  0.07087599  0.28517472  0.29701053  1  0.001509  0  -0.019116  -0.037107  0  3.988556  0
C  C117  1  0.57087650  0.21482634  0.70299020  1  0.001507  0  -0.019106  -0.037074  0  3.988636  0
C  C118  1  0.42912581  0.78517526  0.20298921  1  0.001192  0  -0.019133  -0.037125  0  3.988589  0
C  C119  1  0.92912224  0.71482678  0.79701073  1  0.001542  0  -0.019102  -0.037056  0  3.988533  0
C  C120  1  0.92912112  0.71482683  0.70299020  1  0.001437  0  -0.019109  -0.03705  0  3.988521  0
C  C121  1  0.42912377  0.78517521  0.29701053  1  0.001095  0  -0.019108  -0.037057  0  3.988524  0
C  C122  1  0.57087446  0.21482729  0.79701073  1  0.001521  0  -0.019142  -0.037228  0  3.988716  0
C  C123  1  0.07087488  0.28517477  0.20298960  1  0.001186  0  -0.019106  -0.037023  0  3.988567  0
C  C124  1  0.00293117  0.16023446  0.29698290  1  -0.119704  0  -0.076659  -0.079173  0  3.934807  0
C  C125  1  0.50293067  0.33976858  0.70301742  1  -0.119696  0  -0.076671  -0.079074  0  3.934723  0
C  C126  1  0.49707164  0.66023301  0.20301763  1  -0.1197  0  -0.076654  -0.079086  0  3.93483  0
C  C127  1  0.99706811  0.83976905  0.79698311  1  -0.119717  0  -0.076664  -0.079177  0  3.934755  0
C  C128  1  0.99706699  0.83976809  0.70301743  1  -0.119711  0  -0.07664  -0.079121  0  3.934705  0
C  C129  1  0.49706960  0.66023297  0.29698292  1  -0.119692  0  -0.076657  -0.079155  0  3.93478  0
C  C130  1  0.50292863  0.33976854  0.79698309  1  -0.119708  0  -0.076683  -0.079062  0  3.934639  0
C  C131  1  0.00293006  0.16023350  0.20301762  1  -0.119692  0  -0.076656  -0.079139  0  3.934831  0
C  C132  1  0.97245592  0.09661944  0.25000016  1  -0.004358  0  -0.088686  -0.089495  0  4.014023  0
C  C133  1  0.47245504  0.40338073  0.75000025  1  -0.004591  0  -0.088695  -0.089553  0  4.013996  0
C  C134  1  0.52754418  0.59662182  0.24999970  1  -0.004366  0  -0.088672  -0.089474  0  4.014002  0
C  C135  1  0.02754225  0.90338111  0.75000017  1  -0.004361  0  -0.088741  -0.089576  0  4.013964  0
C  C136  1  0.60052538  0.38492580  0.38726752  1  1.781834  0  0.305778  0.612797  0  4.250934  0
C  C137  1  0.10052632  0.11506726  0.61273243  1  1.781862  0  0.305781  0.612699  0  4.250975  0
C  C138  1  0.89947586  0.88492340  0.11273230  1  1.781838  0  0.305776  0.61283  0  4.250791  0
C  C139  1  0.39947508  0.61507863  0.88726725  1  1.781865  0  0.305772  0.612821  0  4.250756  0
C  C140  1  0.39947489  0.61507275  0.61273243  1  1.781848  0  0.305828  0.612821  0  4.250858  0
C  C141  1  0.89947500  0.88492527  0.38726829  1  1.781854  0  0.30579  0.612778  0  4.250885  0
C  C142  1  0.10052441  0.11507614  0.88726686  1  1.781843  0  0.305763  0.612805  0  4.250747  0
C  C143  1  0.60052624  0.38492392  0.11273270  1  1.781853  0  0.30575  0.612779  0  4.250757  0
C  C144  1  0.49476435  0.22985347  0.33174082  1  0.305119  0  -0.062182  -0.020498  0  3.899573  0
C  C145  1  0.99476377  0.27014370  0.66825881  1  0.305123  0  -0.062181  -0.020525  0  3.899494  0
C  C146  1  0.00523638  0.72985091  0.16825931  1  0.305112  0  -0.062171  -0.020495  0  3.899687  0
C  C147  1  0.50523604  0.77014900  0.83174055  1  0.305032  0  -0.062168  -0.020485  0  3.899661  0
C  C148  1  0.50523592  0.77014607  0.66825912  1  0.305184  0  -0.0622  -0.020527  0  3.899531  0
C  C149  1  0.00523650  0.72985184  0.33174113  1  0.305114  0  -0.062159  -0.020478  0  3.899601  0
C  C150  1  0.99476284  0.27014863  0.83174063  1  0.305145  0  -0.062204  -0.020606  0  3.899714  0
C  C151  1  0.49476529  0.22985054  0.16825939  1  0.305455  0  -0.062212  -0.020585  0  3.899708  0
C  C152  1  0.65242198  0.19760862  0.33637325  1  0.307656  0  -0.060207  -0.017572  0  3.901279  0
C  C153  1  0.15242095  0.30238846  0.66362632  1  0.307656  0  -0.06023  -0.017604  0  3.901192  0
C  C154  1  0.84757815  0.69760516  0.16362737  1  0.307751  0  -0.060119  -0.017497  0  3.901346  0
C  C155  1  0.34757841  0.80239385  0.83637295  1  0.307718  0  -0.060118  -0.017518  0  3.901395  0
C  C156  1  0.34757829  0.80239193  0.66362591  1  0.307684  0  -0.060224  -0.017613  0  3.901328  0
C  C157  1  0.84757827  0.69760608  0.33637324  1  0.307727  0  -0.060125  -0.017533  0  3.90141  0
C  C158  1  0.15242107  0.30239339  0.83637257  1  0.307847  0  -0.060148  -0.017543  0  3.90142  0
C  C159  1  0.65242291  0.19760569  0.16362739  1  0.307832  0  -0.060127  -0.01752  0  3.90143  0
N  N160  1  0.23155408  0.26105437  0.47006807  1  -1.260673  0  -0.358864  -0.313573  0  3.577945  0
N  N161  1  0.73155435  0.23894774  0.52993191  1  -1.260582  0  -0.358855  -0.313575  0  3.577954  0
N  N162  1  0.26844562  0.76105302  0.02993206  1  -1.260643  0  -0.358827  -0.313477  0  3.578012  0
N  N163  1  0.76844651  0.73894797  0.97006785  1  -1.260603  0  -0.358833  -0.313524  0  3.577947  0
N  N164  1  0.76844514  0.73894617  0.52993188  1  -1.260574  0  -0.358866  -0.31354  0  3.577888  0
N  N165  1  0.26844488  0.76105481  0.47006803  1  -1.260687  0  -0.358865  -0.313544  0  3.577916  0
N  N166  1  0.73155360  0.23894653  0.97006749  1  -1.260587  0  -0.358851  -0.313554  0  3.577907  0
N  N167  1  0.23155271  0.26105358  0.02993132  1  -1.260677  0  -0.358823  -0.313563  0  3.578061  0
N  N168  1  0.35470715  0.07440137  0.46674922  1  -0.801655  0  -0.260781  -0.191435  0  3.579129  0
N  N169  1  0.85470538  0.42560077  0.53325078  1  -0.801713  0  -0.260691  -0.191236  0  3.578925  0
N  N170  1  0.14529459  0.57439998  0.03325094  1  -0.801657  0  -0.26068  -0.191246  0  3.578921  0
N  N171  1  0.64529448  0.92560097  0.96674895  1  -0.801697  0  -0.260711  -0.191359  0  3.578969  0
N  N172  1  0.64529312  0.92560018  0.53325111  1  -0.801698  0  -0.260777  -0.191382  0  3.579111  0
N  N173  1  0.14529279  0.57440078  0.46674878  1  -0.801663  0  -0.260763  -0.191367  0  3.579134  0
N  N174  1  0.85470463  0.42560057  0.96674901  1  -0.801663  0  -0.260694  -0.191307  0  3.578988  0
N  N175  1  0.35470579  0.07439957  0.03325060  1  -0.801606  0  -0.260707  -0.191229  0  3.578936  0
N  N176  1  0.41470048  0.15646866  0.50321750  1  -0.801107  0  -0.257081  -0.186883  0  3.536779  0
N  N177  1  0.91470074  0.34353249  0.49678290  1  -0.801112  0  -0.257163  -0.187054  0  3.53668  0
N  N178  1  0.08529988  0.65646882  0.99678256  1  -0.801203  0  -0.257182  -0.187016  0  3.536736  0
N  N179  1  0.58530049  0.84353212  0.00321693  1  -0.801089  0  -0.257153  -0.186962  0  3.536678  0
N  N180  1  0.58529874  0.84353188  0.49678283  1  -0.801119  0  -0.257113  -0.186965  0  3.536741  0
N  N181  1  0.08530059  0.65646905  0.50321744  1  -0.801243  0  -0.257124  -0.186888  0  3.536821  0
N  N182  1  0.91469934  0.34353172  0.00321700  1  -0.801217  0  -0.257185  -0.18702  0  3.53674  0
N  N183  1  0.41469978  0.15646843  0.99678263  1  -0.801204  0  -0.257121  -0.187005  0  3.53668  0
N  N184  1  0.47489563  0.32241859  0.37519779  1  -1.183079  0  -0.452847  -0.439231  0  3.446136  0
N  N185  1  0.97489602  0.17757557  0.62480223  1  -1.183028  0  -0.452812  -0.439197  0  3.446044  0
N  N186  1  0.02510513  0.82241508  0.12480155  1  -1.183038  0  -0.452917  -0.439237  0  3.446242  0
N  N187  1  0.52510482  0.67758484  0.87519831  1  -1.18313  0  -0.45291  -0.439224  0  3.44626  0
N  N188  1  0.52510464  0.67757895  0.62480215  1  -1.183132  0  -0.452884  -0.439287  0  3.446063  0
N  N189  1  0.02510426  0.82241696  0.37519849  1  -1.183101  0  -0.452896  -0.439225  0  3.446198  0
N  N190  1  0.97489619  0.17758246  0.87519800  1  -1.183152  0  -0.452845  -0.439174  0  3.446215  0
N  N191  1  0.47489756  0.32241470  0.12480241  1  -1.183482  0  -0.452823  -0.439037  0  3.446023  0
N  N192  1  0.70586040  0.31967972  0.36076131  1  -1.201213  0  -0.444029  -0.431395  0  3.459569  0
N  N193  1  0.20586245  0.18031637  0.63923905  1  -1.201313  0  -0.444046  -0.431386  0  3.459406  0
N  N194  1  0.79413872  0.81967827  0.13923813  1  -1.201176  0  -0.44398  -0.431271  0  3.459486  0
N  N195  1  0.29413792  0.68032173  0.86076140  1  -1.20135  0  -0.443972  -0.431226  0  3.459546  0
N  N196  1  0.29413987  0.68031983  0.63923825  1  -1.201194  0  -0.444022  -0.4314  0  3.459452  0
N  N197  1  0.79413887  0.81967716  0.36076167  1  -1.201253  0  -0.444015  -0.431302  0  3.459666  0
N  N198  1  0.20586156  0.18032228  0.86076104  1  -1.201341  0  -0.443991  -0.431273  0  3.459536  0
N  N199  1  0.70586235  0.31967681  0.13923932  1  -1.201347  0  -0.444019  -0.431294  0  3.459589  0
O  O200  1  0.01249178  0.32696969  0.38479018  1  -1.173737  0  -0.327977  -0.543135  0  2.358888  0
O  O201  1  0.51249110  0.17303035  0.61521014  1  -1.173802  0  -0.327955  -0.543073  0  2.358987  0
O  O202  1  0.48751214  0.82697233  0.11520994  1  -1.173258  0  -0.32798  -0.543075  0  2.358954  0
O  O203  1  0.98750868  0.67303073  0.88479001  1  -1.173801  0  -0.32797  -0.543106  0  2.358936  0
O  O204  1  0.98750744  0.67302985  0.61521054  1  -1.173774  0  -0.328049  -0.543181  0  2.358869  0
O  O205  1  0.48750812  0.82696919  0.38479058  1  -1.173751  0  -0.32797  -0.543089  0  2.35895  0
O  O206  1  0.51248709  0.17302822  0.88479000  1  -1.173258  0  -0.327996  -0.54312  0  2.358936  0
O  O207  1  0.01248844  0.32697182  0.11521032  1  -1.173256  0  -0.327969  -0.543099  0  2.359031  0
O  O208  1  0.20246021  0.43287382  0.35235902  1  -1.187299  0  -0.315051  -0.556417  0  2.17402  0
O  O209  1  0.70245744  0.06712728  0.64764134  1  -1.18731  0  -0.315035  -0.556355  0  2.174087  0
O  O210  1  0.29754269  0.93287336  0.14764069  1  -1.187316  0  -0.31506  -0.556371  0  2.174067  0
O  O211  1  0.79754126  0.56712763  0.85235923  1  -1.187333  0  -0.314994  -0.556332  0  2.174208  0
O  O212  1  0.79754111  0.56712473  0.64764131  1  -1.187309  0  -0.315052  -0.556442  0  2.174029  0
O  O213  1  0.29754178  0.93287427  0.35235900  1  -1.187293  0  -0.315042  -0.556371  0  2.174078  0
O  O214  1  0.70245548  0.06712919  0.85235964  1  -1.187277  0  -0.315015  -0.556364  0  2.174094  0
O  O215  1  0.20245901  0.43287191  0.14764072  1  -1.187272  0  -0.315021  -0.556333  0  2.174013  0
O  O216  1  0.61457857  0.48352676  0.41665917  1  -1.209166  0  -0.352702  -0.598154  0  2.097071  0
O  O217  1  0.11457839  0.01646930  0.58334195  1  -1.209284  0  -0.352705  -0.598107  0  2.097189  0
O  O218  1  0.88542375  0.98352339  0.08334064  1  -1.209122  0  -0.352715  -0.598217  0  2.096993  0
O  O219  1  0.38542298  0.51647563  0.91665969  1  -1.20911  0  -0.352738  -0.598263  0  2.09686  0
O  O220  1  0.38542380  0.51647178  0.58334117  1  -1.209212  0  -0.352718  -0.59814  0  2.097065  0
O  O221  1  0.88542293  0.98352323  0.41665916  1  -1.209152  0  -0.352717  -0.598168  0  2.097006  0
O  O222  1  0.11457862  0.01647415  0.91665892  1  -1.209117  0  -0.352746  -0.598251  0  2.096889  0
O  O223  1  0.61457834  0.48352291  0.08334143  1  -1.209103  0  -0.352685  -0.598179  0  2.096948  0
