# generated using pymatgen
data_SmH9C9(NO3)3
_symmetry_space_group_name_H-M   'P 1'
_cell_length_a   6.17759518
_cell_length_b   7.69898985
_cell_length_c   13.43603679
_cell_angle_alpha   81.17770432
_cell_angle_beta   85.88233545
_cell_angle_gamma   77.01035150
_symmetry_Int_Tables_number   1
_chemical_formula_structural   SmH9C9(NO3)3
_chemical_formula_sum   'Sm2 H18 C18 N6 O18'
_cell_volume   614.85243614
_cell_formula_units_Z   2
loop_
 _symmetry_equiv_pos_site_id
 _symmetry_equiv_pos_as_xyz
  1  'x, y, z'
loop_
 _atom_site_type_symbol
 _atom_site_label
 _atom_site_symmetry_multiplicity
 _atom_site_fract_x
 _atom_site_fract_y
 _atom_site_fract_z
 _atom_site_occupancy
 _atom_site_hle17_bader_spin_density
 _atom_site_hle17_ddec_charge
 _atom_site_hle17_ddec_spin_density
 _atom_site_hle17_ddec_sum_bond_order
 _atom_site_hle17_magmom
 _atom_site_hse06_10hf_bader_spin_density
 _atom_site_hse06_10hf_ddec_charge
 _atom_site_hse06_10hf_ddec_spin_density
 _atom_site_hse06_10hf_ddec_sum_bond_order
 _atom_site_hse06_10hf_magmom
 _atom_site_hse06_bader_spin_density
 _atom_site_hse06_ddec_charge
 _atom_site_hse06_ddec_spin_density
 _atom_site_hse06_ddec_sum_bond_order
 _atom_site_hse06_magmom
 _atom_site_pbe_bader_spin_density
 _atom_site_pbe_cm5_charge
 _atom_site_pbe_ddec_charge
 _atom_site_pbe_ddec_spin_density
 _atom_site_pbe_ddec_sum_bond_order
 _atom_site_pbe_magmom
Sm  Sm0  1  0.27578149  0.29152397  0.26840550  1  0  2.274014  0  1.631024  0  0  2.100545  0  2.11542  0  0  2.213577  0  1.939904  0  0  1.483599  2.067943  0  2.146507  0
Sm  Sm1  1  0.72421824  0.70847945  0.73158982  1  0  2.273992  0  1.63102  0  0  2.100524  0  2.115412  0  0  2.213558  0  1.939902  0  0  1.483583  2.067917  0  2.146496  0
H  H2  1  0.40209861  0.40409168  0.00460698  1  0  0.10099  0  0.959597  0  0  0.102388  0  1.03317  0  0  0.106882  0  1.027939  0  0  0.129096  0.098967  0  1.037292  0
H  H3  1  0.59788740  0.59590331  0.99538943  1  0  0.100969  0  0.959612  0  0  0.102403  0  1.033142  0  0  0.106894  0  1.027913  0  0  0.12908  0.09898  0  1.037268  0
H  H4  1  0.61930992  0.61289960  0.33037877  1  0  0.1153  0  0.945566  0  0  0.117718  0  1.014207  0  0  0.121783  0  1.010344  0  0  0.132658  0.114798  0  1.016872  0
H  H5  1  0.38070634  0.38710808  0.66962091  1  0  0.11534  0  0.945562  0  0  0.117723  0  1.014242  0  0  0.121783  0  1.010385  0  0  0.132699  0.114802  0  1.016905  0
H  H6  1  0.65302590  0.20921171  0.95643849  1  0  0.099941  0  0.944515  0  0  0.105911  0  1.011478  0  0  0.109244  0  1.008855  0  0  0.123494  0.103529  0  1.013325  0
H  H7  1  0.34696736  0.79076990  0.04355874  1  0  0.099961  0  0.944461  0  0  0.105909  0  1.011456  0  0  0.109255  0  1.008818  0  0  0.12348  0.103528  0  1.013303  0
H  H8  1  0.00637992  0.66347692  0.30770118  1  0  0.43122  0  0.874731  0  0  0.399498  0  0.940497  0  0  0.409993  0  0.925484  0  0  0.295292  0.392097  0  0.951209  0
H  H9  1  0.99362988  0.33652525  0.69229764  1  0  0.431199  0  0.874764  0  0  0.399483  0  0.940519  0  0  0.409975  0  0.92551  0  0  0.295266  0.392084  0  0.951228  0
H  H10  1  0.06106630  0.70117510  0.19067583  1  0  0.404061  0  0.91105  0  0  0.363851  0  0.991231  0  0  0.375197  0  0.974994  0  0  0.287032  0.356027  0  1.002458  0
H  H11  1  0.93894511  0.29882166  0.80932412  1  0  0.404047  0  0.911067  0  0  0.363788  0  0.991331  0  0  0.375136  0  0.975093  0  0  0.286981  0.355961  0  1.002561  0
H  H12  1  0.34732415  0.89478333  0.26430794  1  0  0.431248  0  0.865892  0  0  0.399009  0  0.932206  0  0  0.410514  0  0.915397  0  0  0.29866  0.390757  0  0.944395  0
H  H13  1  0.65267840  0.10522144  0.73568942  1  0  0.431194  0  0.865954  0  0  0.398952  0  0.932273  0  0  0.410458  0  0.915463  0  0  0.298646  0.3907  0  0.944463  0
H  H14  1  0.13572210  0.91094544  0.34400576  1  0  0.457021  0  0.816521  0  0  0.427662  0  0.874437  0  0  0.438882  0  0.857908  0  0  0.312778  0.419897  0  0.885934  0
H  H15  1  0.86427803  0.08905661  0.65599040  1  0  0.456936  0  0.816642  0  0  0.427581  0  0.874547  0  0  0.438801  0  0.858022  0  0  0.312749  0.419817  0  0.886042  0
H  H16  1  0.68384528  0.99233744  0.36279425  1  0  0.444418  0  0.845002  0  0  0.416851  0  0.901368  0  0  0.426792  0  0.887041  0  0  0.304583  0.410073  0  0.911176  0
H  H17  1  0.31615566  0.00766729  0.63720316  1  0  0.444459  0  0.844945  0  0  0.416905  0  0.901292  0  0  0.426844  0  0.886967  0  0  0.304629  0.410129  0  0.911096  0
H  H18  1  0.73052322  0.18694628  0.33080487  1  0  0.435345  0  0.8661  0  0  0.407825  0  0.923669  0  0  0.419005  0  0.907522  0  0  0.301528  0.399804  0  0.935445  0
H  H19  1  0.26947046  0.81306098  0.66919331  1  0  0.435337  0  0.866096  0  0  0.407815  0  0.923671  0  0  0.418996  0  0.907522  0  0  0.301506  0.399793  0  0.935447  0
C  C20  1  0.75754708  0.40705461  0.18049083  1  0  0.672075  0  3.894499  0  0  0.616062  0  4.19526  0  0  0.651183  0  4.188765  0  0  0.23652  0.592197  0  4.202638  0
C  C21  1  0.24244417  0.59294440  0.81951031  1  0  0.67232  0  3.894317  0  0  0.616358  0  4.194937  0  0  0.651476  0  4.188447  0  0  0.236642  0.592509  0  4.202296  0
C  C22  1  0.88308690  0.46228376  0.08547739  1  0  0.071577  0  3.707029  0  0  0.074891  0  3.955595  0  0  0.073572  0  3.973302  0  0  0.135754  0.075397  0  3.945414  0
C  C23  1  0.11692210  0.53771030  0.91452061  1  0  0.071359  0  3.707189  0  0  0.074727  0  3.955659  0  0  0.073423  0  3.973334  0  0  0.135668  0.075227  0  3.945473  0
C  C24  1  0.22250998  0.44763843  0.00219856  1  0  0.119091  0  3.623791  0  0  0.080973  0  3.887161  0  0  0.08517  0  3.902216  0  0  0.080092  0.077994  0  3.879066  0
C  C25  1  0.77749297  0.55235962  0.99779782  1  0  0.118942  0  3.623451  0  0  0.080843  0  3.886772  0  0  0.08505  0  3.901828  0  0  0.080028  0.077859  0  3.878683  0
C  C26  1  0.17722077  0.28170640  0.51538815  1  0  0.659839  0  3.890691  0  0  0.602971  0  4.196357  0  0  0.636688  0  4.189717  0  0  0.232256  0.580275  0  4.201714  0
C  C27  1  0.82277894  0.71829662  0.48462060  1  0  0.659907  0  3.890593  0  0  0.602989  0  4.196262  0  0  0.636712  0  4.189612  0  0  0.232212  0.580289  0  4.201624  0
C  C28  1  0.34985914  0.39601967  0.50851171  1  0  0.061956  0  3.686483  0  0  0.066395  0  3.93456  0  0  0.064628  0  3.953792  0  0  0.131926  0.067151  0  3.923328  0
C  C29  1  0.65015026  0.60397845  0.49148670  1  0  0.061892  0  3.686564  0  0  0.066468  0  3.934466  0  0  0.064702  0  3.95369  0  0  0.132019  0.067221  0  3.923239  0
C  C30  1  0.56644713  0.56143609  0.40615847  1  0  0.112421  0  3.59927  0  0  0.07979  0  3.852707  0  0  0.084082  0  3.867911  0  0  0.078249  0.076887  0  3.84379  0
C  C31  1  0.43355945  0.43856599  0.59384121  1  0  0.112362  0  3.599087  0  0  0.079821  0  3.852526  0  0  0.084111  0  3.867742  0  0  0.078225  0.07692  0  3.843602  0
C  C32  1  0.61965335  0.97937554  0.13471084  1  0  0.633197  0  3.94107  0  0  0.582876  0  4.242326  0  0  0.61665  0  4.23617  0  0  0.214446  0.559996  0  4.247069  0
C  C33  1  0.38033024  0.02062193  0.86529140  1  0  0.632902  0  3.94127  0  0  0.582568  0  4.242407  0  0  0.616339  0  4.236269  0  0  0.214343  0.5597  0  4.247127  0
C  C34  1  0.82086563  0.98665314  0.06316640  1  0  0.078862  0  3.653745  0  0  0.08096  0  3.905028  0  0  0.080598  0  3.919913  0  0  0.128827  0.080887  0  3.894825  0
C  C35  1  0.17912480  0.01333213  0.93684180  1  0  0.079098  0  3.653451  0  0  0.081419  0  3.904363  0  0  0.081066  0  3.919253  0  0  0.128874  0.081328  0  3.894158  0
C  C36  1  0.80934921  0.11643890  0.97698329  1  0  0.082995  0  3.633148  0  0  0.046162  0  3.891314  0  0  0.049347  0  3.905806  0  0  0.063097  0.044027  0  3.881387  0
C  C37  1  0.19063921  0.88354771  0.02302412  1  0  0.082929  0  3.633048  0  0  0.046072  0  3.891121  0  0  0.049243  0  3.905622  0  0  0.063139  0.043946  0  3.8812  0
N  N38  1  0.10552546  0.41098889  0.08714200  1  0  -0.327358  0  3.208632  0  0  -0.284061  0  3.470078  0  0  -0.298412  0  3.48701  0  0  -0.337884  -0.278898  0  3.460187  0
N  N39  1  0.89449200  0.58900404  0.91285433  1  0  -0.327224  0  3.208227  0  0  -0.28394  0  3.469644  0  0  -0.298298  0  3.486572  0  0  -0.337818  -0.278774  0  3.45975  0
N  N40  1  0.41758471  0.45709289  0.41500982  1  0  -0.311994  0  3.175703  0  0  -0.266652  0  3.433925  0  0  -0.281122  0  3.451046  0  0  -0.310688  -0.260843  0  3.423442  0
N  N41  1  0.58242510  0.54290932  0.58498751  1  0  -0.312104  0  3.17568  0  0  -0.266807  0  3.433848  0  0  -0.281281  0  3.450972  0  0  -0.310812  -0.260995  0  3.423364  0
N  N42  1  0.98598990  0.13039251  0.91507647  1  0  -0.248103  0  3.121  0  0  -0.197545  0  3.365863  0  0  -0.205255  0  3.379894  0  0  -0.270382  -0.192014  0  3.356119  0
N  N43  1  0.01399610  0.86959669  0.08493305  1  0  -0.248055  0  3.121116  0  0  -0.197509  0  3.366146  0  0  -0.205208  0  3.380174  0  0  -0.270499  -0.191992  0  3.356404  0
O  O44  1  0.87623151  0.31363275  0.25188486  1  0  -0.7037  0  2.107333  0  0  -0.646072  0  2.353513  0  0  -0.680052  0  2.342448  0  0  -0.356449  -0.628199  0  2.360509  0
O  O45  1  0.12378999  0.68637376  0.74811252  1  0  -0.703709  0  2.107184  0  0  -0.646076  0  2.353319  0  0  -0.68006  0  2.342259  0  0  -0.356407  -0.62821  0  2.360307  0
O  O46  1  0.54839696  0.44966733  0.18166742  1  0  -0.666553  0  2.050581  0  0  -0.617273  0  2.313604  0  0  -0.650138  0  2.301634  0  0  -0.366366  -0.599858  0  2.319798  0
O  O47  1  0.45159148  0.55034670  0.81832667  1  0  -0.666691  0  2.050492  0  0  -0.617523  0  2.313637  0  0  -0.650351  0  2.301569  0  0  -0.366475  -0.600114  0  2.319826  0
O  O48  1  0.10567487  0.26079182  0.43317875  1  0  -0.674633  0  2.013995  0  0  -0.625741  0  2.266485  0  0  -0.658198  0  2.252902  0  0  -0.386019  -0.609046  0  2.273235  0
O  O49  1  0.89432203  0.73921538  0.56682381  1  0  -0.674575  0  2.014134  0  0  -0.625695  0  2.266678  0  0  -0.658151  0  2.25309  0  0  -0.385992  -0.609004  0  2.273436  0
O  O50  1  0.11479445  0.21504813  0.60240079  1  0  -0.634079  0  2.005637  0  0  -0.566516  0  2.218387  0  0  -0.590687  0  2.205365  0  0  -0.296533  -0.54915  0  2.226032  0
O  O51  1  0.88520769  0.78495246  0.39760063  1  0  -0.634189  0  2.005378  0  0  -0.56661  0  2.218131  0  0  -0.590786  0  2.205108  0  0  -0.296569  -0.549235  0  2.225772  0
O  O52  1  0.48146949  0.13052589  0.13446487  1  0  -0.752046  0  2.087352  0  0  -0.698661  0  2.347341  0  0  -0.735514  0  2.339622  0  0  -0.392759  -0.678028  0  2.350513  0
O  O53  1  0.51852903  0.86948156  0.86553017  1  0  -0.751955  0  2.087475  0  0  -0.698581  0  2.34746  0  0  -0.735446  0  2.339747  0  0  -0.392747  -0.677951  0  2.350622  0
O  O54  1  0.60343822  0.83250493  0.18679465  1  0  -0.586647  0  1.944767  0  0  -0.53756  0  2.167773  0  0  -0.561168  0  2.159061  0  0  -0.297701  -0.52043  0  2.172951  0
O  O55  1  0.39653206  0.16749894  0.81321048  1  0  -0.586477  0  1.944659  0  0  -0.537445  0  2.167731  0  0  -0.561016  0  2.158938  0  0  -0.297619  -0.520321  0  2.172905  0
O  O56  1  0.10028503  0.61022225  0.25213586  1  0  -0.941021  0  1.947563  0  0  -0.894848  0  2.166102  0  0  -0.92273  0  2.130507  0  0  -0.661948  -0.880965  0  2.18785  0
O  O57  1  0.89972397  0.38977713  0.74786545  1  0  -0.940996  0  1.94757  0  0  -0.894792  0  2.166141  0  0  -0.922689  0  2.13055  0  0  -0.661864  -0.880904  0  2.187883  0
O  O58  1  0.23202902  0.97792818  0.30002406  1  0  -0.915435  0  1.859199  0  0  -0.863064  0  2.049951  0  0  -0.88919  0  2.009545  0  0  -0.642761  -0.850386  0  2.074299  0
O  O59  1  0.76797191  0.02207648  0.69997559  1  0  -0.915295  0  1.85939  0  0  -0.862911  0  2.050134  0  0  -0.889047  0  2.009726  0  0  -0.642697  -0.850235  0  2.074483  0
O  O60  1  0.61023158  0.12099954  0.35419534  1  0  -0.923902  0  1.859997  0  0  -0.874367  0  2.041849  0  0  -0.90137  0  2.005714  0  0  -0.650315  -0.860895  0  2.06295  0
O  O61  1  0.38976814  0.87900374  0.64580446  1  0  -0.923972  0  1.859951  0  0  -0.874435  0  2.041801  0  0  -0.901442  0  2.00567  0  0  -0.650349  -0.860964  0  2.0629  0
