# generated using pymatgen
data_MnH4C6NClO3
_symmetry_space_group_name_H-M   'P 1'
_cell_length_a   6.41208514
_cell_length_b   12.99569469
_cell_length_c   16.56189336
_cell_angle_alpha   90.01148198
_cell_angle_beta   89.99875849
_cell_angle_gamma   90.04448867
_symmetry_Int_Tables_number   1
_chemical_formula_structural   MnH4C6NClO3
_chemical_formula_sum   'Mn8 H32 C48 N8 Cl8 O24'
_cell_volume   1380.09386126
_cell_formula_units_Z   8
loop_
 _symmetry_equiv_pos_site_id
 _symmetry_equiv_pos_as_xyz
  1  'x, y, z'
loop_
 _atom_site_type_symbol
 _atom_site_label
 _atom_site_symmetry_multiplicity
 _atom_site_fract_x
 _atom_site_fract_y
 _atom_site_fract_z
 _atom_site_occupancy
 _atom_site_hle17_ddec_charge
 _atom_site_hle17_ddec_spin_density
 _atom_site_hle17_ddec_sum_bond_order
 _atom_site_hle17_magmom
 _atom_site_hse06_10hf_bader_charge
 _atom_site_hse06_10hf_bader_spin_density
 _atom_site_hse06_10hf_ddec_charge
 _atom_site_hse06_10hf_ddec_spin_density
 _atom_site_hse06_10hf_ddec_sum_bond_order
 _atom_site_hse06_10hf_magmom
 _atom_site_hse06_ddec_charge
 _atom_site_hse06_ddec_spin_density
 _atom_site_hse06_ddec_sum_bond_order
 _atom_site_hse06_magmom
 _atom_site_pbe_cm5_charge
 _atom_site_pbe_ddec_charge
 _atom_site_pbe_ddec_spin_density
 _atom_site_pbe_ddec_sum_bond_order
 _atom_site_pbe_magmom
Mn  Mn0  1  0.45209910  0.82182878  0.01886768  1  1.139165  -4.764645  1.88707  -4.648  1.520051  -4.560097  1.00212  -4.657538  2.39284  -4.49  1.05841  -4.730546  2.31885  -4.574  0.519529  0.959028  -4.56417  2.449297  -4.388
Mn  Mn1  1  0.54765773  0.67835217  0.51853834  1  1.138741  4.760581  1.885375  4.649  1.520114  4.562125  1.001858  4.660155  2.389397  4.491  1.058475  4.727468  2.315656  4.575  0.518409  0.958156  4.575703  2.445534  4.393
Mn  Mn2  1  0.95311798  0.17859173  0.48072884  1  1.141641  4.763343  1.892114  4.65  1.525118  4.563398  1.006523  4.660595  2.396822  4.492  1.061124  4.728383  2.323582  4.576  0.524042  0.964775  4.577886  2.451926  4.395
Mn  Mn3  1  0.04740321  0.32159730  0.98135368  1  1.1394  4.762943  1.882002  4.65  1.519609  4.564764  1.001877  4.663393  2.386238  4.494  1.058826  4.729565  2.31256  4.576  0.517745  0.957795  4.581459  2.442203  4.398
Mn  Mn4  1  0.54726557  0.17834305  0.98142484  1  1.138252  -4.760851  1.889368  -4.648  1.520295  -4.559275  1.001774  -4.653257  2.394316  -4.489  1.058133  -4.726522  2.320281  -4.574  0.518877  0.958609  -4.559348  2.450904  -4.387
Mn  Mn5  1  0.45300250  0.32125883  0.48081462  1  1.14118  4.76322  1.89052  4.651  1.525751  4.564703  1.00625  4.661293  2.394776  4.493  1.060579  4.728587  2.321727  4.577  0.524035  0.965092  4.578995  2.449617  4.396
Mn  Mn6  1  0.04806048  0.82158725  0.51858190  1  1.138979  -4.760396  1.888426  -4.648  1.520498  -4.558762  1.001623  -4.652883  2.394186  -4.489  1.058236  -4.726263  2.320151  -4.574  0.518678  0.957819  -4.560064  2.450678  -4.387
Mn  Mn7  1  0.95178513  0.67843826  0.01861580  1  1.139067  4.761693  1.883012  4.649  1.519399  4.563104  1.00178  4.661673  2.387319  4.492  1.058429  4.728747  2.313654  4.575  0.518035  0.957887  4.577981  2.443449  4.394
H  H8  1  0.78800542  0.77978503  0.35420908  1  0.118207  1.5e-05  1.013965  0.0  0.184943  -0.000237  0.121504  -7.5e-05  1.082361  0.0  0.125939  -2.8e-05  1.080439  0.0  0.099749  0.117733  -0.000117  1.084283  0.0
H  H9  1  0.21271938  0.72012525  0.85428987  1  0.11781  -5.5e-05  1.013626  0.0  0.189201  0.000295  0.121122  9e-05  1.082199  0.0  0.125516  3e-05  1.080216  0.0  0.099419  0.117412  0.000147  1.084108  0.0
H  H10  1  0.28620815  0.22015035  0.14588830  1  0.117896  0.000308  1.013054  0.001  0.191764  -7.9e-05  0.121185  -0.000103  1.081556  0.0  0.125616  -3.1e-05  1.079618  0.0  0.099479  0.11739  -0.000153  1.083498  0.0
H  H11  1  0.71275195  0.27970373  0.64565915  1  0.119069  -0.000519  1.012266  0.0  0.189351  0.000583  0.121899  -0.000194  1.0811  0.0  0.126584  -0.00039  1.078777  0.0  0.099473  0.117981  9e-06  1.083217  0.0
H  H12  1  0.21262394  0.22024310  0.64570665  1  0.118998  -0.000522  1.012995  0.0  0.189737  0.000401  0.121699  -0.000283  1.081893  0.0  0.126324  -0.00044  1.079728  0.0  0.099435  0.117841  -0.000114  1.083907  0.0
H  H13  1  0.78642866  0.28022504  0.14584870  1  0.117857  0.00016  1.013074  0.001  0.193453  0.000398  0.121086  -6e-06  1.081505  0.0  0.125475  -2.7e-05  1.079596  0.0  0.099841  0.117373  2.9e-05  1.083358  0.0
H  H14  1  0.71245305  0.77987361  0.85440663  1  0.118334  6e-05  1.013148  0.0  0.189636  -0.000286  0.121444  -7.9e-05  1.081897  0.0  0.125903  -2.2e-05  1.079892  0.0  0.099439  0.117657  -0.000132  1.083895  0.0
H  H15  1  0.28783973  0.71999660  0.35430909  1  0.118063  -5.1e-05  1.013712  0.0  0.191991  0.000294  0.121281  9.3e-05  1.082366  0.0  0.125732  3.5e-05  1.080371  0.0  0.099541  0.11746  0.000145  1.084327  0.0
H  H16  1  0.72977918  0.69695985  0.21683881  1  0.118528  -0.000205  0.946813  0.0  0.168572  0.000105  0.125106  -0.000191  1.011779  0.0  0.128525  -0.000217  1.008936  0.0  0.130736  0.122531  -0.000164  1.014195  0.0
H  H17  1  0.27101610  0.80308631  0.71697779  1  0.118299  0.00029  0.946903  0.0  0.135917  0.00012  0.125135  0.000311  1.011524  0.0  0.128513  0.0003  1.008744  0.0  0.13078  0.122572  0.00033  1.013923  0.0
H  H18  1  0.22804794  0.30301501  0.28315368  1  0.118618  -0.00106  0.946305  -0.001  0.135451  -1.4e-05  0.124813  -0.000403  1.011524  0.0  0.128267  -0.000489  1.00863  0.0  0.130502  0.122137  -0.000307  1.014081  0.0
H  H19  1  0.77088873  0.19703330  0.78302664  1  0.118431  0.000253  0.946859  0.0  0.148823  4e-05  0.125382  0.000215  1.011384  0.0  0.12871  0.000225  1.008632  0.0  0.130846  0.122893  0.000215  1.013735  0.0
H  H20  1  0.27068008  0.30292898  0.78312703  1  0.118389  -0.000243  0.946972  0.0  0.148549  -2.2e-05  0.125313  -0.000278  1.011557  0.0  0.128609  -0.000274  1.00884  0.0  0.130874  0.122844  -0.000287  1.013856  0.0
H  H21  1  0.72806314  0.19704157  0.28299894  1  0.118101  -0.000948  0.94646  -0.001  0.135952  7.5e-05  0.124686  -0.000401  1.01136  0.0  0.128026  -0.000483  1.008639  0.0  0.130619  0.122228  -0.0003  1.013581  0.0
H  H22  1  0.77060378  0.69685658  0.71710078  1  0.118339  -0.000279  0.946472  0.0  0.148394  -3.3e-05  0.12525  -0.000249  1.011147  0.0  0.128577  -0.000255  1.008417  0.0  0.130838  0.12275  -0.00025  1.013474  0.0
H  H23  1  0.22980775  0.80306797  0.21708956  1  0.118065  0.000268  0.946702  0.0  0.16948  3.7e-05  0.125143  0.000229  1.01128  0.0  0.1284  0.000238  1.008606  0.0  0.130811  0.122703  0.000228  1.013531  0.0
H  H24  1  0.93418374  0.06138254  0.22797385  1  0.114158  -6.6e-05  0.95939  0.0  0.118379  0.000109  0.120914  -5.4e-05  1.024138  0.0  0.123682  -8.7e-05  1.024098  0.0  0.109657  0.118905  2e-06  1.024302  0.0
H  H25  1  0.06559026  0.43876653  0.72777525  1  0.114764  -0.000248  0.958558  0.0  0.117675  0.000266  0.121138  -0.000127  1.023583  0.0  0.124097  -0.00016  1.023268  0.0  0.109527  0.118939  -0.000113  1.024086  0.0
H  H26  1  0.43518692  0.93898893  0.27220073  1  0.114427  0.000503  0.958339  0.001  0.11922  9e-05  0.120811  0.000117  1.023542  0.0  0.123836  0.000151  1.02312  0.0  0.109438  0.118499  0.000123  1.024172  0.0
H  H27  1  0.56554626  0.56111357  0.77186354  1  0.114419  -0.000187  0.958552  0.0  0.119241  2.5e-05  0.121057  -0.000163  1.023543  0.0  0.12392  -0.000161  1.023333  0.0  0.109655  0.118993  -0.000176  1.023796  0.0
H  H28  1  0.06610245  0.93855239  0.77177100  1  0.11453  0.000112  0.958822  0.0  0.11754  6.5e-05  0.121078  0.000206  1.023796  0.0  0.123942  0.000177  1.023601  0.0  0.109687  0.11901  0.000249  1.024067  0.0
H  H29  1  0.93450891  0.56132927  0.27256314  1  0.114588  0.000123  0.958472  0.0  0.116627  0.000178  0.121159  -0.000176  1.023413  0.0  0.124161  -0.000143  1.023051  0.0  0.109467  0.11891  -0.000194  1.02394  0.0
H  H30  1  0.56617552  0.06114555  0.72787924  1  0.114933  0.000185  0.958517  0.0  0.118835  0.000249  0.121251  0.000223  1.02378  0.0  0.124135  0.000171  1.023581  0.0  0.109622  0.119104  0.000289  1.02416  0.0
H  H31  1  0.43385867  0.43868343  0.22762047  1  0.114558  -0.000162  0.958631  0.0  0.116184  0.00019  0.121142  1.9e-05  1.023453  0.0  0.123935  -5.8e-05  1.023379  0.0  0.109518  0.119116  0.000118  1.023665  0.0
H  H32  1  0.87297868  0.96729128  0.09691095  1  0.139255  0.000432  0.92665  0.0  0.228786  0.000471  0.143017  0.000661  0.991118  0.0  0.148  0.000618  0.986364  0.0  0.131729  0.138697  0.000674  0.995391  0.0
H  H33  1  0.12645201  0.53304878  0.59680512  1  0.139193  -0.000165  0.927061  0.0  0.230215  0.000873  0.143085  5.7e-05  0.991205  0.0  0.148129  -9.8e-05  0.986329  0.0  0.131497  0.138715  0.000215  0.995662  0.0
H  H34  1  0.37463603  0.03317790  0.40317749  1  0.139513  -0.000647  0.926729  -0.001  0.23046  0.000511  0.143231  0.000182  0.99108  0.0  0.14848  1e-06  0.985892  0.0  0.131463  0.138619  0.000345  0.995833  0.0
H  H35  1  0.62642523  0.46718913  0.90296816  1  0.138929  -0.000422  0.927522  0.0  0.229899  -0.000463  0.14304  -0.000662  0.991483  0.0  0.147936  -0.000619  0.986769  0.0  0.131828  0.138837  -0.000664  0.995708  0.0
H  H36  1  0.12695340  0.03252741  0.90292870  1  0.139059  0.000494  0.92687  0.0  0.221573  0.000559  0.143236  0.000705  0.991051  0.0  0.148066  0.000653  0.98642  0.0  0.131856  0.139038  0.000728  0.995284  0.0
H  H37  1  0.87388402  0.46680696  0.40342820  1  0.138875  -0.00129  0.926868  -0.001  0.226789  -0.000437  0.1424  -0.000992  0.991456  0.0  0.147593  -0.001025  0.986345  0.0  0.131273  0.137875  -0.000919  0.996104  0.0
H  H38  1  0.62708346  0.96684892  0.59691998  1  0.139627  -9.8e-05  0.927016  0.0  0.230483  0.000732  0.143222  0.000163  0.991571  0.0  0.148226  7.2e-05  0.98673  0.0  0.131549  0.138867  0.000231  0.996012  0.0
H  H39  1  0.37276174  0.53307493  0.09674413  1  0.139232  -0.000399  0.926608  0.0  0.229258  -0.000466  0.142884  -0.000667  0.991123  0.0  0.147748  -0.000623  0.98647  0.0  0.131813  0.138667  -0.00067  0.995334  0.0
C  C40  1  0.88874288  0.97975320  0.38258931  1  0.668033  -0.007133  3.871691  -0.007  1.644176  -0.008771  0.618676  -0.008153  4.16278  -0.008  0.65443  -0.006431  4.153504  -0.007  0.2265  0.593358  -0.009765  4.168909  -0.01
C  C41  1  0.11145879  0.52015494  0.88251731  1  0.66821  0.012606  3.873517  0.013  1.644217  0.019403  0.618958  0.019048  4.164925  0.018  0.654794  0.01499  4.155521  0.015  0.226374  0.593532  0.022556  4.171351  0.02
C  C42  1  0.38820988  0.02034219  0.11756653  1  0.668215  -0.013155  3.871417  -0.014  1.639407  -0.017778  0.61874  -0.017867  4.163689  -0.018  0.654721  -0.014971  4.153692  -0.016  0.225979  0.593063  -0.019255  4.170773  -0.02
C  C43  1  0.61129056  0.47957479  0.61726337  1  0.669878  0.012658  3.871075  0.013  1.640674  0.019524  0.6205  0.019182  4.16247  0.018  0.656105  0.015162  4.153279  0.015  0.227361  0.59541  0.022488  4.168529  0.02
C  C44  1  0.11155118  0.02027254  0.61720506  1  0.669819  0.007249  3.871395  0.007  1.641802  0.009215  0.62031  0.008661  4.162593  0.008  0.655979  0.006785  4.15342  0.007  0.22715  0.595156  0.010466  4.168515  0.009
C  C45  1  0.88834419  0.48010237  0.11772510  1  0.668125  0.012267  3.872545  0.011  1.646922  0.021188  0.618267  0.02035  4.165225  0.017  0.653891  0.015221  4.155793  0.014  0.226121  0.593238  0.025606  4.171325  0.02
C  C46  1  0.61162893  0.97986203  0.88260946  1  0.667427  -0.012698  3.873246  -0.013  1.644205  -0.019485  0.618209  -0.019126  4.164569  -0.018  0.654043  -0.01508  4.15521  -0.015  0.225924  0.592875  -0.022497  4.170786  -0.02
C  C47  1  0.38847134  0.52001300  0.38242350  1  0.667284  0.012959  3.87288  0.013  1.645906  0.019961  0.617784  0.019655  4.164928  0.018  0.653392  0.015438  4.155719  0.015  0.225995  0.592606  0.02333  4.171113  0.02
C  C48  1  0.80752161  0.82395862  0.29885705  1  -0.102163  -0.000872  3.73612  -0.001  -0.005394  -0.000915  -0.121294  -0.000769  3.985132  -0.001  -0.125251  -0.000645  4.001703  0.0  -0.075652  -0.119633  -0.000938  3.976838  -0.001
C  C49  1  0.19293325  0.67605523  0.79888163  1  -0.101552  0.002371  3.73534  0.002  -0.012582  0.003598  -0.120481  0.002796  3.984028  0.002  -0.124472  0.002361  4.000703  0.002  -0.07527  -0.118783  0.00337  3.975738  0.003
C  C50  1  0.30627668  0.17608275  0.20124733  1  -0.101515  -0.015136  3.734973  -0.014  0.028886  -0.011636  -0.120656  -0.008531  3.984637  -0.008  -0.124421  -0.010322  4.000417  -0.009  -0.076033  -0.119329  -0.006943  3.977356  -0.008
C  C51  1  0.69293792  0.32385626  0.70102358  1  -0.101259  0.002034  3.735126  0.002  -0.014384  0.003557  -0.120165  0.002543  3.984162  0.002  -0.124107  0.001992  4.000449  0.002  -0.074863  -0.118467  0.003194  3.976161  0.002
C  C52  1  0.19309678  0.17600101  0.70103211  1  -0.101783  0.000288  3.736777  0.0  0.055648  0.000747  -0.120546  0.00035  3.985726  0.0  -0.124519  0.000128  4.002108  0.0  -0.075099  -0.118784  0.000687  3.977451  0.0
C  C53  1  0.80618042  0.32421349  0.20127928  1  -0.101457  -0.010685  3.736617  -0.01  0.034618  -0.004963  -0.119899  -0.003345  3.985084  -0.005  -0.12386  -0.005886  4.001443  -0.006  -0.075385  -0.118222  -0.000959  3.976841  -0.003
C  C54  1  0.69293192  0.82393207  0.79899688  1  -0.101853  -0.002477  3.73537  -0.002  0.054647  -0.003629  -0.120608  -0.002839  3.98411  -0.002  -0.124695  -0.002419  4.000748  -0.002  -0.075129  -0.118828  -0.003378  3.975836  -0.003
C  C55  1  0.30737623  0.67593865  0.29889153  1  -0.102379  0.00263  3.736398  0.002  -0.014032  0.003854  -0.121356  0.003001  3.985304  0.002  -0.12535  0.00252  4.001952  0.002  -0.075377  -0.119556  0.003667  3.976972  0.003
C  C56  1  0.77392814  0.77690964  0.22543382  1  0.010046  0.000622  3.590693  0.001  0.305673  0.000487  -0.032251  0.000259  3.85726  0.0  -0.024665  0.00022  3.867212  0.0  0.041224  -0.038247  0.000362  3.852605  0.0
C  C57  1  0.22648020  0.72318171  0.72549738  1  0.009503  -0.001329  3.591022  -0.001  0.337052  -0.001193  -0.0329  -0.000835  3.857393  -0.001  -0.025298  -0.000874  3.867419  -0.001  0.041316  -0.038924  -0.000878  3.852812  -0.001
C  C58  1  0.27275315  0.22315902  0.27462632  1  0.009494  0.022741  3.589546  0.02  0.348957  0.029217  -0.033225  0.022915  3.857353  0.019  -0.025021  0.01929  3.866505  0.016  0.039991  -0.039838  0.027991  3.853676  0.022
C  C59  1  0.72640050  0.27689023  0.77446778  1  0.009466  -0.001253  3.590971  -0.001  0.325845  -0.001155  -0.033122  -0.000855  3.857617  -0.001  -0.02545  -0.000866  3.867605  -0.001  0.040887  -0.039225  -0.000849  3.852975  -0.001
C  C60  1  0.22656856  0.22298996  0.77449157  1  0.009648  -0.000497  3.591724  0.0  0.329088  0.000196  -0.032711  -5.7e-05  3.857933  0.0  -0.025157  -0.0003  3.868123  0.0  0.041386  -0.038579  0.000201  3.852992  0.0
C  C61  1  0.77271757  0.27695082  0.27459951  1  0.009795  0.020066  3.589753  0.018  0.360152  0.027012  -0.032971  0.021187  3.856868  0.017  -0.025137  0.0173  3.866645  0.014  0.040609  -0.038979  0.026507  3.852107  0.02
C  C62  1  0.72641795  0.77677654  0.72561184  1  0.009193  0.001451  3.590945  0.001  0.324157  0.001386  -0.033353  0.000998  3.857481  0.001  -0.025776  0.000981  3.86759  0.001  0.040876  -0.039304  0.001209  3.852746  0.001
C  C63  1  0.27393254  0.72313323  0.22554396  1  0.010742  -0.00157  3.590631  -0.001  0.30483  -0.001368  -0.031959  -0.001007  3.857237  -0.001  -0.024384  -0.001031  3.867442  -0.001  0.041501  -0.037878  -0.001088  3.852347  -0.001
C  C64  1  0.86492252  0.92788280  0.30207465  1  -0.029794  0.002088  3.715001  0.002  0.001145  0.001693  -0.019787  0.001254  3.954014  0.001  -0.019083  0.001131  3.969325  0.001  -0.005585  -0.021945  0.001422  3.946123  0.001
C  C65  1  0.13528587  0.57214721  0.80201475  1  -0.02966  -0.000514  3.71244  0.0  0.008004  0.000551  -0.019783  -8e-05  3.951544  0.0  -0.019164  -0.00047  3.966867  0.0  -0.005857  -0.022126  0.00029  3.944147  0.0
C  C66  1  0.36462292  0.07226669  0.19798369  1  -0.029947  0.022771  3.710879  0.019  -0.061772  0.031937  -0.020792  0.025458  3.951126  0.02  -0.019446  0.020246  3.965523  0.016  -0.006766  -0.024031  0.03286  3.945027  0.026
C  C67  1  0.63518595  0.42768314  0.69779520  1  -0.031005  -0.000269  3.713808  0.0  0.004904  0.001022  -0.020964  0.000236  3.952908  0.0  -0.020097  -0.000228  3.968021  0.0  -0.006322  -0.023473  0.0007  3.9455  0.0
C  C68  1  0.13569121  0.07209222  0.69779036  1  -0.029951  -0.001487  3.714496  -0.001  -0.067828  -0.000342  -0.019893  -0.000398  3.953485  -0.001  -0.019101  -0.00083  3.968657  -0.001  -0.005807  -0.022216  0.000207  3.945829  0.0
C  C69  1  0.86409602  0.42809617  0.19819686  1  -0.029812  0.022287  3.712756  0.019  -0.06167  0.033966  -0.020192  0.025959  3.952067  0.02  -0.019081  0.019623  3.966994  0.016  -0.006306  -0.022807  0.034692  3.944635  0.027
C  C70  1  0.63542789  0.92782368  0.80212044  1  -0.029906  0.000605  3.713109  0.0  -0.063757  -0.000426  -0.019708  0.000183  3.952  0.0  -0.019091  0.000535  3.967328  0.0  -0.005524  -0.022013  5e-05  3.9444  0.0
C  C71  1  0.36467431  0.57203241  0.30195568  1  -0.029453  -0.000825  3.713629  -0.001  0.00389  0.000395  -0.019211  -0.000242  3.952537  0.0  -0.018472  -0.000679  3.967859  0.0  -0.005714  -0.021438  0.000167  3.944658  0.0
C  C72  1  0.89075720  0.98055583  0.22884969  1  -0.102614  -0.001487  3.730265  -0.001  0.062155  -0.001333  -0.122769  -0.001102  3.986201  -0.001  -0.127342  -0.000984  4.004846  -0.001  -0.074086  -0.120301  -0.001225  3.97575  -0.001
C  C73  1  0.10917077  0.51958860  0.72873293  1  -0.102574  0.002083  3.729134  0.002  0.059472  0.003465  -0.122789  0.002428  3.985232  0.002  -0.127075  0.002018  4.003287  0.002  -0.074356  -0.12069  0.002934  3.975616  0.003
C  C74  1  0.39131261  0.01973291  0.27127957  1  -0.101266  -0.015671  3.727964  -0.014  0.059844  -0.012454  -0.12189  -0.009163  3.985307  -0.009  -0.125962  -0.010762  4.00249  -0.01  -0.07463  -0.120127  -0.007705  3.976655  -0.009
C  C75  1  0.60917612  0.48034113  0.77101881  1  -0.101608  0.001927  3.730012  0.002  0.063433  0.003167  -0.122084  0.00221  3.986111  0.002  -0.12651  0.001845  4.00445  0.002  -0.073856  -0.119751  0.002611  3.976093  0.002
C  C76  1  0.10972705  0.01937454  0.77097788  1  -0.102741  0.001491  3.730983  0.001  0.061551  0.001763  -0.122899  0.001627  3.987347  0.001  -0.12733  0.00127  4.005736  0.001  -0.073964  -0.120575  0.002152  3.977259  0.002
C  C77  1  0.89070541  0.48053715  0.27151249  1  -0.102474  -0.011419  3.730359  -0.011  0.050935  -0.005679  -0.123188  -0.00434  3.987099  -0.005  -0.12742  -0.00674  4.004663  -0.006  -0.074337  -0.121148  -0.00204  3.977803  -0.004
C  C78  1  0.60957723  0.98034223  0.72883180  1  -0.102708  -0.002225  3.730447  -0.002  0.061089  -0.003043  -0.12316  -0.002201  3.986812  -0.002  -0.127393  -0.001912  4.004816  -0.002  -0.074569  -0.121082  -0.002588  3.977204  -0.002
C  C79  1  0.39050801  0.51950442  0.22865600  1  -0.102646  0.002349  3.730346  0.002  0.064389  0.003695  -0.122751  0.002665  3.985845  0.002  -0.127263  0.002119  4.004323  0.002  -0.07388  -0.120431  0.003428  3.975737  0.003
C  C80  1  0.85839389  0.93113174  0.15595217  1  0.033552  0.001233  3.542712  0.001  0.345971  0.0007  -0.009506  0.000941  3.808207  0.0  -0.000649  0.001036  3.815679  0.001  0.051664  -0.016665  0.000847  3.805981  0.0
C  C81  1  0.14146261  0.56910570  0.65587659  1  0.033078  -0.001429  3.54453  -0.001  0.32206  -8.4e-05  -0.010112  -0.000457  3.809889  0.0  -0.001  -0.000862  3.816879  0.0  0.051577  -0.017588  -8e-05  3.808277  0.0
C  C82  1  0.35926787  0.06918017  0.34413103  1  0.032879  0.021529  3.544672  0.019  0.317327  0.027448  -0.011159  0.020947  3.811666  0.017  -0.001429  0.018029  3.817689  0.015  0.050411  -0.019207  0.025058  3.811077  0.02
C  C83  1  0.64146094  0.43102711  0.84394116  1  0.032341  -0.001648  3.544752  -0.001  0.34189  -0.000988  -0.010705  -0.001143  3.810075  -0.001  -0.001821  -0.001438  3.817568  -0.001  0.051079  -0.01795  -0.000825  3.807897  -0.001
C  C84  1  0.14188602  0.06875011  0.84391526  1  0.033361  -0.000268  3.543663  0.0  0.356893  -0.000291  -0.010077  9.4e-05  3.809216  0.0  -0.001185  0.000112  3.816783  0.0  0.051176  -0.017307  1.4e-05  3.806989  0.0
C  C85  1  0.85867702  0.43088851  0.34431628  1  0.034055  0.018229  3.54479  0.016  0.349521  0.024323  -0.009255  0.018391  3.810685  0.015  0.000271  0.015169  3.817118  0.013  0.051195  -0.016988  0.022905  3.809438  0.018
C  C86  1  0.64189951  0.93081268  0.65597731  1  0.032674  0.001955  3.544553  0.002  0.323478  0.00155  -0.010165  0.001446  3.809871  0.001  -0.001025  0.001603  3.816864  0.001  0.051462  -0.017617  0.001389  3.808164  0.001
C  C87  1  0.35815633  0.56907314  0.15584115  1  0.033072  -0.002237  3.545236  -0.002  0.320524  -0.001581  -0.00949  -0.001576  3.81003  -0.001  -0.000492  -0.0018  3.817503  -0.001  0.051772  -0.016836  -0.001406  3.807915  -0.001
N  N88  1  0.79632983  0.83107603  0.15565425  1  0.289288  4e-06  3.646895  0.0  -0.712359  -0.00015  0.3357  0.000219  3.908938  0.0  0.337371  0.000298  3.929227  0.0  -0.108319  0.333016  0.000103  3.894768  0.0
N  N89  1  0.20375278  0.66912369  0.65566188  1  0.289519  0.000878  3.647566  0.001  -0.692315  0.002079  0.335567  0.001301  3.909877  0.001  0.337261  0.000984  3.930061  0.001  -0.109256  0.332838  0.001849  3.895803  0.002
N  N90  1  0.29638029  0.16913295  0.34447201  1  0.288423  -0.009443  3.643408  -0.01  -0.680926  0.003135  0.334001  -0.000744  3.905725  0.0  0.335974  -0.006522  3.925842  -0.006  -0.110347  0.330871  0.005872  3.891788  0.007
N  N91  1  0.70364200  0.33102427  0.84426797  1  0.289638  0.000751  3.646986  0.001  -0.711178  0.001767  0.335924  0.001106  3.90911  0.001  0.337591  0.000814  3.929432  0.001  -0.108383  0.333275  0.001553  3.894928  0.001
N  N92  1  0.20394385  0.16881660  0.84425966  1  0.288943  0.001734  3.648197  0.002  -0.713309  0.002042  0.335417  0.001995  3.910498  0.002  0.337078  0.001672  3.930788  0.002  -0.108487  0.332833  0.002492  3.896291  0.003
N  N93  1  0.79605469  0.33089200  0.34448572  1  0.288236  -0.005848  3.645722  -0.006  -0.716415  0.008493  0.334052  0.003642  3.90791  0.004  0.335862  -0.002713  3.928096  -0.002  -0.109824  0.33126  0.010986  3.893826  0.012
N  N94  1  0.70388094  0.83079512  0.65576252  1  0.289706  -0.00078  3.648124  -0.001  -0.691846  -0.001508  0.335993  -0.000892  3.910259  -0.001  0.337733  -0.000714  3.930464  -0.001  -0.108664  0.33326  -0.001186  3.896136  -0.001
N  N95  1  0.29625290  0.66911299  0.15568522  1  0.288904  0.001041  3.648053  0.001  -0.691292  0.002087  0.335224  0.001351  3.910152  0.001  0.336887  0.001006  3.930428  0.001  -0.108844  0.332528  0.00201  3.895938  0.002
Cl  Cl96  1  0.60862873  0.65968057  0.95345534  1  -0.556548  0.012023  1.019122  0.009  -0.711345  0.018627  -0.49847  0.013243  1.324319  0.009  -0.52752  0.010408  1.297643  0.006  -0.215727  -0.470507  0.016652  1.341961  0.012
Cl  Cl97  1  0.39100679  0.84036323  0.45326976  1  -0.556382  -0.012037  1.019898  -0.009  -0.711699  -0.017752  -0.498055  -0.012936  1.325146  -0.008  -0.527273  -0.010442  1.298454  -0.006  -0.215376  -0.469968  -0.015813  1.34279  -0.011
Cl  Cl98  1  0.10973577  0.34083559  0.54691231  1  -0.557912  0.075374  1.012749  0.042  -0.712982  0.121188  -0.499181  0.097519  1.315785  0.048  -0.52853  0.086671  1.289778  0.04  -0.216311  -0.471344  0.107511  1.332664  0.056
Cl  Cl99  1  0.89014276  0.15975833  0.04666990  1  -0.556278  -0.011808  1.020438  -0.009  -0.711984  -0.018147  -0.498041  -0.012957  1.325708  -0.008  -0.527214  -0.010355  1.299022  -0.006  -0.215415  -0.469932  -0.016008  1.343304  -0.012
Cl  Cl100  1  0.39100402  0.34027044  0.04657873  1  -0.556959  0.011333  1.019401  0.009  -0.712397  0.017773  -0.498827  0.012551  1.324325  0.008  -0.527876  0.009743  1.297675  0.006  -0.215859  -0.470828  0.01594  1.341887  0.011
Cl  Cl101  1  0.60970003  0.15900704  0.54690254  1  -0.558225  0.07549  1.011778  0.042  -0.713415  0.12111  -0.49964  0.097656  1.314725  0.048  -0.528949  0.086826  1.288771  0.04  -0.216598  -0.471712  0.107489  1.331506  0.056
Cl  Cl102  1  0.89079879  0.65961808  0.45332045  1  -0.556344  0.011767  1.020049  0.009  -0.711983  0.018391  -0.497992  0.013039  1.325145  0.009  -0.527106  0.010247  1.298437  0.006  -0.215444  -0.470122  0.016306  1.342871  0.012
Cl  Cl103  1  0.10924842  0.84039654  0.95334910  1  -0.556376  -0.01174  1.01939  -0.009  -0.711639  -0.017896  -0.498093  -0.01281  1.324253  -0.008  -0.527061  -0.010212  1.297522  -0.006  -0.215639  -0.470372  -0.015832  1.342025  -0.011
O  O104  1  0.89920326  0.07788483  0.38207854  1  -0.639615  0.02648  2.081768  0.014  -1.203162  0.039518  -0.581689  0.027955  2.355034  0.012  -0.612598  0.026442  2.34326  0.011  -0.307922  -0.557475  0.029678  2.36192  0.015
O  O105  1  0.10137781  0.42203968  0.88189497  1  -0.638516  0.039012  2.077741  0.029  -1.204828  0.064224  -0.580914  0.046839  2.350454  0.034  -0.611541  0.04141  2.33847  0.028  -0.307507  -0.557183  0.051972  2.357809  0.039
O  O106  1  0.39885183  0.92220226  0.11813755  1  -0.638821  -0.03761  2.077717  -0.027  -1.200647  -0.060955  -0.581671  -0.044389  2.351401  -0.031  -0.612085  -0.039963  2.339155  -0.026  -0.308452  -0.558036  -0.047896  2.359004  -0.035
O  O107  1  0.60104895  0.57765233  0.61778742  1  -0.638861  0.039128  2.078137  0.029  -1.198436  0.064203  -0.580702  0.046909  2.350765  0.034  -0.611643  0.041514  2.339045  0.028  -0.307194  -0.55654  0.051926  2.357743  0.039
O  O108  1  0.10159456  0.92216869  0.61758843  1  -0.639062  -0.026345  2.080194  -0.014  -1.201487  -0.037715  -0.58077  -0.027464  2.353631  -0.012  -0.611947  -0.026207  2.341874  -0.01  -0.307025  -0.556315  -0.028562  2.360616  -0.013
O  O109  1  0.89841425  0.57821302  0.11836737  1  -0.638212  0.040646  2.075737  0.031  -1.20884  0.067742  -0.580702  0.049483  2.349361  0.037  -0.611337  0.043144  2.337557  0.03  -0.307129  -0.55677  0.056015  2.356348  0.044
O  O110  1  0.60128794  0.07796277  0.88198651  1  -0.638138  -0.03911  2.078697  -0.029  -1.204408  -0.064213  -0.580456  -0.046856  2.351249  -0.034  -0.611169  -0.041542  2.339284  -0.028  -0.30703  -0.556506  -0.051686  2.358503  -0.039
O  O111  1  0.39881429  0.42188929  0.38173400  1  -0.638864  0.039072  2.077985  0.029  -1.20873  0.065915  -0.581007  0.047205  2.350915  0.034  -0.611802  0.041627  2.339343  0.029  -0.307232  -0.556964  0.052718  2.357682  0.04
O  O112  1  0.89096982  0.92367992  0.44503486  1  -0.627568  -0.031004  2.130795  -0.014  -1.229548  -0.050119  -0.569447  -0.036479  2.415931  -0.016  -0.598527  -0.032872  2.399322  -0.012  -0.304898  -0.547917  -0.040854  2.427262  -0.021
O  O113  1  0.10893715  0.57624022  0.94497354  1  -0.628594  0.034038  2.131283  0.018  -1.226832  0.059351  -0.570522  0.043076  2.416542  0.024  -0.599782  0.03781  2.399959  0.018  -0.305228  -0.548895  0.048969  2.428032  0.03
O  O114  1  0.38999715  0.07630850  0.05501408  1  -0.628395  -0.032265  2.130044  -0.016  -1.228183  -0.055651  -0.571002  -0.04026  2.416021  -0.02  -0.599844  -0.035934  2.399054  -0.016  -0.306106  -0.549711  -0.044805  2.427704  -0.025
O  O115  1  0.60871396  0.42342391  0.55481501  1  -0.629842  0.033975  2.131498  0.019  -1.231202  0.06066  -0.572065  0.043286  2.416733  0.024  -0.601115  0.037734  2.400331  0.019  -0.305987  -0.550519  0.049655  2.427699  0.031
O  O116  1  0.10828726  0.07651108  0.55485674  1  -0.629201  0.031221  2.13181  0.015  -1.230064  0.052497  -0.571159  0.037508  2.416665  0.018  -0.600436  0.033249  2.400679  0.013  -0.305332  -0.549483  0.042791  2.427512  0.024
O  O117  1  0.89176891  0.42414038  0.05523204  1  -0.62851  0.035942  2.132003  0.021  -1.224091  0.063489  -0.570705  0.046347  2.41782  0.027  -0.59971  0.039915  2.401279  0.021  -0.305417  -0.549363  0.05399  2.429157  0.036
O  O118  1  0.60922403  0.92383789  0.94508523  1  -0.628519  -0.034103  2.131067  -0.018  -1.227825  -0.059306  -0.570483  -0.043083  2.416523  -0.024  -0.599815  -0.037886  2.399955  -0.018  -0.305102  -0.54868  -0.048843  2.427762  -0.03
O  O119  1  0.39068595  0.57594375  0.44495516  1  -0.62724  0.034055  2.131587  0.018  -1.22445  0.059885  -0.569727  0.043433  2.417443  0.024  -0.598701  0.038018  2.400789  0.018  -0.304811  -0.548328  0.04952  2.428852  0.031
O  O120  1  0.74683175  0.78570354  0.08616015  1  -0.572108  -0.000886  1.986406  -0.002  -0.717096  -0.003834  -0.511381  -0.002873  2.275239  -0.005  -0.540954  -0.001676  2.266424  -0.003  -0.217105  -0.488788  -0.004214  2.281197  -0.006
O  O121  1  0.25306078  0.71458233  0.58619422  1  -0.572067  0.001308  1.985358  0.003  -0.716153  0.005297  -0.511425  0.00406  2.274476  0.006  -0.540971  0.002348  2.265548  0.004  -0.217058  -0.488813  0.006111  2.280535  0.008
O  O122  1  0.24721924  0.21437209  0.41406155  1  -0.572434  0.040456  1.995515  0.016  -0.714733  0.058799  -0.511109  0.04685  2.28604  0.015  -0.540464  0.046719  2.276646  0.017  -0.216896  -0.488948  0.047849  2.292461  0.015
O  O123  1  0.75261102  0.28568584  0.91377243  1  -0.572043  0.001406  1.985731  0.003  -0.715616  0.005393  -0.511217  0.004089  2.274492  0.006  -0.54113  0.002394  2.265891  0.004  -0.216525  -0.488291  0.006067  2.280235  0.008
O  O124  1  0.25301463  0.21420978  0.91376705  1  -0.571664  -0.000293  1.985297  -0.001  -0.715777  -0.002687  -0.510986  -0.001992  2.274  -0.004  -0.540862  -0.001146  2.265344  -0.003  -0.21665  -0.488224  -0.002907  2.28  -0.005
O  O125  1  0.74684338  0.28543646  0.41398538  1  -0.57275  0.042194  1.99429  0.018  -0.716251  0.063035  -0.511779  0.050172  2.284514  0.019  -0.541099  0.048864  2.275414  0.02  -0.217328  -0.489787  0.052583  2.290803  0.021
O  O126  1  0.75302775  0.78530514  0.58631727  1  -0.57212  -0.001065  1.984928  -0.003  -0.715728  -0.004625  -0.511826  -0.003566  2.274092  -0.006  -0.541534  -0.002034  2.265365  -0.004  -0.217182  -0.489107  -0.005451  2.280011  -0.008
O  O127  1  0.24686605  0.71461218  0.08627678  1  -0.571751  0.001276  1.985505  0.003  -0.71596  0.005359  -0.510968  0.004168  2.274209  0.006  -0.540606  0.002298  2.265451  0.004  -0.216869  -0.488263  0.006548  2.280263  0.009
