# generated using pymatgen
data_PrH21C13O7
_symmetry_space_group_name_H-M   'P 1'
_cell_length_a   6.88717076
_cell_length_b   10.39712371
_cell_length_c   12.19211615
_cell_angle_alpha   72.26213175
_cell_angle_beta   87.09092004
_cell_angle_gamma   76.35173464
_symmetry_Int_Tables_number   1
_chemical_formula_structural   PrH21C13O7
_chemical_formula_sum   'Pr2 H42 C26 O14'
_cell_volume   807.84295153
_cell_formula_units_Z   2
loop_
 _symmetry_equiv_pos_site_id
 _symmetry_equiv_pos_as_xyz
  1  'x, y, z'
loop_
 _atom_site_type_symbol
 _atom_site_label
 _atom_site_symmetry_multiplicity
 _atom_site_fract_x
 _atom_site_fract_y
 _atom_site_fract_z
 _atom_site_occupancy
 _atom_site_hle17_bader_spin_density
 _atom_site_hle17_ddec_charge
 _atom_site_hle17_ddec_spin_density
 _atom_site_hle17_ddec_sum_bond_order
 _atom_site_hle17_magmom
 _atom_site_hse06_10hf_bader_spin_density
 _atom_site_hse06_10hf_ddec_charge
 _atom_site_hse06_10hf_ddec_spin_density
 _atom_site_hse06_10hf_ddec_sum_bond_order
 _atom_site_hse06_10hf_magmom
 _atom_site_hse06_bader_spin_density
 _atom_site_hse06_ddec_charge
 _atom_site_hse06_ddec_spin_density
 _atom_site_hse06_ddec_sum_bond_order
 _atom_site_hse06_magmom
 _atom_site_pbe_bader_spin_density
 _atom_site_pbe_cm5_charge
 _atom_site_pbe_ddec_charge
 _atom_site_pbe_ddec_spin_density
 _atom_site_pbe_ddec_sum_bond_order
 _atom_site_pbe_magmom
Pr  Pr0  1  0.24415463  0.03656299  0.38351698  1  0  2.287859  0  1.658052  0  0  2.112617  0  2.128546  0  0  2.208124  0  1.984864  0  0  1.506102  2.080701  0  2.161495  0
Pr  Pr1  1  0.75584109  0.96343747  0.61648223  1  0  2.28786  0  1.65807  0  0  2.112604  0  2.128559  0  0  2.208107  0  1.984879  0  0  1.506106  2.080685  0  2.161513  0
H  H2  1  0.15828391  0.75589709  0.54245929  1  0  0.376829  0  0.910059  0  0  0.352456  0  0.980126  0  0  0.363032  0  0.96932  0  0  0.304702  0.344801  0  0.988629  0
H  H3  1  0.84171652  0.24410233  0.45754088  1  0  0.376836  0  0.910034  0  0  0.352465  0  0.9801  0  0  0.363042  0  0.969294  0  0  0.304703  0.344811  0  0.988603  0
H  H4  1  0.88651053  0.34824336  0.01088476  1  0  0.120673  0  0.95938  0  0  0.140994  0  1.022031  0  0  0.142928  0  1.021465  0  0  0.095046  0.139612  0  1.022347  0
H  H5  1  0.11348989  0.65175606  0.98911623  1  0  0.120687  0  0.959395  0  0  0.141012  0  1.022034  0  0  0.142946  0  1.021468  0  0  0.095051  0.139632  0  1.022349  0
H  H6  1  0.06092281  0.28897818  0.91234153  1  0  0.109364  0  0.963434  0  0  0.130312  0  1.024933  0  0  0.132161  0  1.024471  0  0  0.088024  0.129036  0  1.025156  0
H  H7  1  0.93907726  0.71102228  0.08765838  1  0  0.109343  0  0.9634  0  0  0.130289  0  1.024906  0  0  0.13214  0  1.024444  0  0  0.08801  0.129013  0  1.025128  0
H  H8  1  0.12967334  0.37697462  0.00389351  1  0  0.127405  0  0.93382  0  0  0.150357  0  0.990242  0  0  0.152324  0  0.989899  0  0  0.09911  0.149052  0  0.990301  0
H  H9  1  0.87032383  0.62302584  0.99610648  1  0  0.12745  0  0.933865  0  0  0.150402  0  0.99029  0  0  0.15237  0  0.989948  0  0  0.099136  0.149096  0  0.990349  0
H  H10  1  0.23205724  0.05836887  0.97241877  1  0  0.114941  0  1.007497  0  0  0.125745  0  1.071607  0  0  0.127895  0  1.075224  0  0  0.089662  0.124274  0  1.069089  0
H  H11  1  0.76794830  0.94163264  0.02757990  1  0  0.11491  0  1.007374  0  0  0.125735  0  1.071475  0  0  0.127875  0  1.075099  0  0  0.089618  0.124265  0  1.068957  0
H  H12  1  0.54469405  0.74545202  0.13999725  1  0  0.116299  0  0.951911  0  0  0.137675  0  1.013572  0  0  0.139993  0  1.012089  0  0  0.093612  0.135976  0  1.014557  0
H  H13  1  0.45530929  0.25454741  0.86000120  1  0  0.116319  0  0.951852  0  0  0.137671  0  1.013561  0  0  0.139991  0  1.012077  0  0  0.093603  0.135967  0  1.01455  0
H  H14  1  0.41205059  0.82975462  0.00500770  1  0  0.117853  0  0.96121  0  0  0.138236  0  1.02203  0  0  0.140128  0  1.021988  0  0  0.091685  0.136825  0  1.022029  0
H  H15  1  0.58795239  0.17024584  0.99499131  1  0  0.117825  0  0.961171  0  0  0.138207  0  1.022002  0  0  0.140099  0  1.021962  0  0  0.091682  0.136799  0  1.021997  0
H  H16  1  0.30004966  0.72607194  0.12427251  1  0  0.116776  0  0.965259  0  0  0.139173  0  1.026294  0  0  0.14138  0  1.025195  0  0  0.094028  0.13768  0  1.026994  0
H  H17  1  0.69995151  0.27392956  0.87572791  1  0  0.116745  0  0.965263  0  0  0.139179  0  1.026261  0  0  0.141388  0  1.025161  0  0  0.094028  0.137687  0  1.02696  0
H  H18  1  0.78240123  0.51843705  0.30078050  1  0  0.124337  0  0.9426  0  0  0.14867  0  0.999424  0  0  0.150606  0  0.998899  0  0  0.09941  0.147269  0  0.999754  0
H  H19  1  0.21759955  0.48156134  0.69921993  1  0  0.124313  0  0.942634  0  0  0.148649  0  0.999448  0  0  0.150586  0  0.998923  0  0  0.099401  0.147248  0  0.999778  0
H  H20  1  0.95576495  0.61558488  0.31584361  1  0  0.121168  0  0.947652  0  0  0.144258  0  1.003411  0  0  0.146334  0  1.002457  0  0  0.094252  0.142731  0  1.004112  0
H  H21  1  0.04423151  0.38441765  0.68415832  1  0  0.121139  0  0.947658  0  0  0.144219  0  1.003432  0  0  0.146295  0  1.002478  0  0  0.094242  0.142693  0  1.004134  0
H  H22  1  0.87120555  0.49984693  0.43945195  1  0  0.125983  0  0.951749  0  0  0.149849  0  1.008079  0  0  0.151805  0  1.007843  0  0  0.099663  0.148483  0  1.00811  0
H  H23  1  0.12879487  0.50015250  0.56054822  1  0  0.125969  0  0.951718  0  0  0.149829  0  1.008061  0  0  0.151785  0  1.007825  0  0  0.099653  0.148464  0  1.008092  0
H  H24  1  0.24186599  0.53609221  0.23313717  1  0  0.098868  0  1.021761  0  0  0.106946  0  1.090473  0  0  0.109199  0  1.093421  0  0  0.085055  0.105213  0  1.088867  0
H  H25  1  0.75813584  0.46390306  0.76686075  1  0  0.098882  0  1.021695  0  0  0.106961  0  1.090422  0  0  0.1092  0  1.093383  0  0  0.08507  0.105226  0  1.088815  0
H  H26  1  0.71757984  0.32758238  0.20233699  1  0  0.152249  0  0.93286  0  0  0.170356  0  0.990775  0  0  0.174276  0  0.988137  0  0  0.106625  0.167604  0  0.992479  0
H  H27  1  0.28241947  0.67241600  0.79766594  1  0  0.152256  0  0.932882  0  0  0.170358  0  0.9908  0  0  0.174274  0  0.988158  0  0  0.106615  0.167607  0  0.992502  0
H  H28  1  0.55321395  0.49752060  0.14982986  1  0  0.10633  0  0.973848  0  0  0.125998  0  1.039052  0  0  0.127676  0  1.038561  0  0  0.086316  0.124784  0  1.039365  0
H  H29  1  0.44678717  0.50247674  0.85017083  1  0  0.106336  0  0.973863  0  0  0.125999  0  1.039067  0  0  0.127678  0  1.038575  0  0  0.086306  0.124785  0  1.039379  0
H  H30  1  0.55340923  0.36686334  0.08359578  1  0  0.117287  0  0.950259  0  0  0.140302  0  1.009882  0  0  0.142073  0  1.009467  0  0  0.095437  0.138974  0  1.010198  0
H  H31  1  0.44659375  0.63313712  0.91640404  1  0  0.117309  0  0.950237  0  0  0.140322  0  1.009862  0  0  0.142091  0  1.00945  0  0  0.095443  0.138995  0  1.01018  0
H  H32  1  0.70988374  0.86087646  0.24013495  1  0  0.134975  0  0.959387  0  0  0.154113  0  1.019953  0  0  0.156101  0  1.019141  0  0  0.101357  0.152651  0  1.020464  0
H  H33  1  0.29011453  0.13912503  0.75986474  1  0  0.134938  0  0.959377  0  0  0.154079  0  1.019953  0  0  0.156078  0  1.019129  0  0  0.101353  0.152617  0  1.020463  0
H  H34  1  0.93818256  0.92274260  0.22053488  1  0  0.139443  0  0.970313  0  0  0.155235  0  1.033043  0  0  0.157146  0  1.033441  0  0  0.102889  0.153636  0  1.033223  0
H  H35  1  0.06181425  0.07725889  0.77946485  1  0  0.139402  0  0.970297  0  0  0.155194  0  1.033044  0  0  0.157105  0  1.033441  0  0  0.102888  0.153596  0  1.033222  0
H  H36  1  0.70024360  0.04127038  0.19032186  1  0  0.153142  0  0.932433  0  0  0.172391  0  0.992202  0  0  0.175222  0  0.990449  0  0  0.113136  0.170324  0  0.993462  0
H  H37  1  0.29975287  0.95873215  0.80967597  1  0  0.153075  0  0.932479  0  0  0.172328  0  0.992259  0  0  0.17516  0  0.990509  0  0  0.113092  0.17026  0  0.99352  0
H  H38  1  0.34615383  0.63436943  0.41686607  1  0  0.058206  0  0.95  0  0  0.074403  0  1.020877  0  0  0.075408  0  1.019638  0  0  0.087784  0.073413  0  1.022119  0
H  H39  1  0.65384368  0.36562998  0.58313500  1  0  0.058273  0  0.949972  0  0  0.074441  0  1.020873  0  0  0.075446  0  1.019636  0  0  0.08779  0.07345  0  1.022115  0
H  H40  1  0.45554163  0.58232575  0.55954290  1  0  0.050956  0  0.980191  0  0  0.068766  0  1.051882  0  0  0.068075  0  1.05367  0  0  0.086063  0.069122  0  1.050662  0
H  H41  1  0.54445588  0.41767366  0.44045818  1  0  0.050977  0  0.980204  0  0  0.068793  0  1.05188  0  0  0.068103  0  1.053669  0  0  0.086075  0.069153  0  1.050662  0
H  H42  1  0.54800180  0.70225911  0.44335320  1  0  0.087063  0  0.947201  0  0  0.10554  0  1.009901  0  0  0.106273  0  1.010007  0  0  0.10456  0.104877  0  1.010042  0
H  H43  1  0.45199862  0.29774031  0.55664779  1  0  0.087061  0  0.947278  0  0  0.105553  0  1.009952  0  0  0.106283  0  1.010063  0  0  0.104552  0.104892  0  1.010093  0
C  C44  1  0.04348658  0.30238925  0.99833921  1  0  -0.407011  0  3.678546  0  0  -0.485599  0  3.907967  0  0  -0.490671  0  3.911561  0  0  -0.243074  -0.481717  0  3.904746  0
C  C45  1  0.95651419  0.69760913  0.00166122  1  0  -0.407063  0  3.678542  0  0  -0.485647  0  3.907972  0  0  -0.490725  0  3.911565  0  0  -0.243105  -0.481766  0  3.904758  0
C  C46  1  0.11620759  0.16828379  0.09359292  1  0  0.538281  0  3.778627  0  0  0.533515  0  4.034164  0  0  0.55997  0  4.039636  0  0  0.128761  0.515817  0  4.030898  0
C  C47  1  0.88379829  0.83171667  0.90640600  1  0  0.538324  0  3.778571  0  0  0.533529  0  4.034156  0  0  0.559993  0  4.039613  0  0  0.128771  0.515832  0  4.030893  0
C  C48  1  0.22215105  0.05033032  0.06339907  1  0  -0.485728  0  3.720833  0  0  -0.506132  0  3.973143  0  0  -0.532048  0  3.995294  0  0  -0.1611  -0.488658  0  3.957728  0
C  C49  1  0.77786030  0.94967120  0.93659943  1  0  -0.485731  0  3.720756  0  0  -0.506147  0  3.973093  0  0  -0.532058  0  3.995246  0  0  -0.161044  -0.488671  0  3.957679  0
C  C50  1  0.30948168  0.92191577  0.14249957  1  0  0.528039  0  3.801383  0  0  0.52125  0  4.061607  0  0  0.54713  0  4.068093  0  0  0.121684  0.503903  0  4.05788  0
C  C51  1  0.69052601  0.07808366  0.85749957  1  0  0.528079  0  3.801377  0  0  0.521281  0  4.061612  0  0  0.547169  0  4.068084  0  0  0.121664  0.503935  0  4.057889  0
C  C52  1  0.39750582  0.79972143  0.09878279  1  0  -0.405316  0  3.6826  0  0  -0.485358  0  3.91496  0  0  -0.490222  0  3.917854  0  0  -0.24505  -0.481634  0  3.91242  0
C  C53  1  0.60249751  0.20027800  0.90121647  1  0  -0.405252  0  3.682499  0  0  -0.48532  0  3.914865  0  0  -0.49019  0  3.917759  0  0  -0.24502  -0.481594  0  3.912326  0
C  C54  1  0.91477220  0.51531656  0.34935341  1  0  -0.409964  0  3.671614  0  0  -0.489756  0  3.897462  0  0  -0.494915  0  3.900745  0  0  -0.241384  -0.485805  0  3.894598  0
C  C55  1  0.08522897  0.48468494  0.65064702  1  0  -0.40989  0  3.671594  0  0  -0.489689  0  3.897425  0  0  -0.494848  0  3.90071  0  0  -0.241358  -0.485738  0  3.894561  0
C  C56  1  0.08080864  0.39539595  0.33901265  1  0  0.538629  0  3.757373  0  0  0.529144  0  4.020619  0  0  0.555876  0  4.026283  0  0  0.129788  0.511266  0  4.017307  0
C  C57  1  0.91918672  0.60460554  0.66098548  1  0  0.538593  0  3.757458  0  0  0.529163  0  4.02062  0  0  0.555897  0  4.026281  0  0  0.129766  0.511285  0  4.017306  0
C  C58  1  0.24419145  0.42646228  0.27091866  1  0  -0.47906  0  3.715079  0  0  -0.50117  0  3.97428  0  0  -0.527536  0  3.995852  0  0  -0.156641  -0.483708  0  3.960009  0
C  C59  1  0.75580497  0.57353609  0.72908108  1  0  -0.479051  0  3.71498  0  0  -0.501193  0  3.974151  0  0  -0.527548  0  3.995734  0  0  -0.156642  -0.48373  0  3.959877  0
C  C60  1  0.41022162  0.33122875  0.24562763  1  0  0.562989  0  3.748392  0  0  0.555351  0  4.006421  0  0  0.583045  0  4.010361  0  0  0.138289  0.53673  0  4.004382  0
C  C61  1  0.58977660  0.66876859  0.75437396  1  0  0.562917  0  3.748327  0  0  0.555303  0  4.006318  0  0  0.582998  0  4.010257  0  0  0.138259  0.536682  0  4.004278  0
C  C62  1  0.56798401  0.38586986  0.16655971  1  0  -0.416531  0  3.658757  0  0  -0.49277  0  3.885906  0  0  -0.498176  0  3.887637  0  0  -0.242794  -0.488635  0  3.88419  0
C  C63  1  0.43201530  0.61412852  0.83344076  1  0  -0.41653  0  3.658808  0  0  -0.492774  0  3.885958  0  0  -0.498171  0  3.887684  0  0  -0.242745  -0.488641  0  3.884242  0
C  C64  1  0.76698669  0.95175879  0.36715531  1  0  0.825661  0  3.77808  0  0  0.787466  0  4.064112  0  0  0.822421  0  4.057287  0  0  0.241373  0.763185  0  4.072764  0
C  C65  1  0.23300832  0.04824374  0.63284420  1  0  0.82562  0  3.778124  0  0  0.787299  0  4.064349  0  0  0.822244  0  4.057545  0  0  0.241276  0.763031  0  4.072983  0
C  C66  1  0.78267527  0.94105210  0.24709601  1  0  -0.470705  0  3.640616  0  0  -0.54787  0  3.871548  0  0  -0.554237  0  3.872363  0  0  -0.236128  -0.543206  0  3.871077  0
C  C67  1  0.21732230  0.05895147  0.75290234  1  0  -0.470533  0  3.640515  0  0  -0.547684  0  3.871484  0  0  -0.554059  0  3.872299  0  0  -0.236074  -0.543022  0  3.871009  0
C  C68  1  0.41329204  0.66865134  0.47995062  1  0  -0.007225  0  3.692675  0  0  -0.103539  0  3.969228  0  0  -0.097155  0  3.97496  0  0  -0.150071  -0.107674  0  3.966566  0
C  C69  1  0.58670512  0.33134912  0.52005101  1  0  -0.007322  0  3.692791  0  0  -0.103632  0  3.969343  0  0  -0.097248  0  3.975078  0  0  -0.150095  -0.10777  0  3.966688  0
O  O70  1  0.07766041  0.17156200  0.19615517  1  0  -0.663729  0  2.024203  0  0  -0.611296  0  2.261903  0  0  -0.640942  0  2.255195  0  0  -0.381528  -0.594774  0  2.264725  0
O  O71  1  0.92233856  0.82843742  0.80384340  1  0  -0.663745  0  2.024185  0  0  -0.611291  0  2.261869  0  0  -0.640938  0  2.255156  0  0  -0.381522  -0.594769  0  2.264693  0
O  O72  1  0.31905648  0.89796934  0.25188707  1  0  -0.693016  0  2.018394  0  0  -0.634781  0  2.263697  0  0  -0.665164  0  2.254596  0  0  -0.401442  -0.618266  0  2.268166  0
O  O73  1  0.68094319  0.10202800  0.74811284  1  0  -0.693088  0  2.018411  0  0  -0.634809  0  2.263671  0  0  -0.665191  0  2.254564  0  0  -0.401467  -0.618295  0  2.268145  0
O  O74  1  0.05807189  0.27274782  0.39304909  1  0  -0.665125  0  2.043992  0  0  -0.599115  0  2.269553  0  0  -0.629227  0  2.260914  0  0  -0.358219  -0.582268  0  2.274017  0
O  O75  1  0.94192673  0.72725264  0.60695168  1  0  -0.665094  0  2.044069  0  0  -0.599069  0  2.269558  0  0  -0.629179  0  2.260919  0  0  -0.358187  -0.582225  0  2.274024  0
O  O76  1  0.43779410  0.19981698  0.28286058  1  0  -0.664231  0  2.028505  0  0  -0.606894  0  2.269431  0  0  -0.637244  0  2.260531  0  0  -0.387264  -0.590607  0  2.273932  0
O  O77  1  0.56220632  0.80018244  0.71714041  1  0  -0.664213  0  2.028424  0  0  -0.606895  0  2.269352  0  0  -0.637245  0  2.260453  0  0  -0.387292  -0.590606  0  2.273852  0
O  O78  1  0.61372932  0.92979170  0.42687223  1  0  -0.786371  0  2.038171  0  0  -0.731059  0  2.293953  0  0  -0.765896  0  2.281099  0  0  -0.399913  -0.71404  0  2.302073  0
O  O79  1  0.38626716  0.07021083  0.57312478  1  0  -0.786405  0  2.038133  0  0  -0.731055  0  2.293976  0  0  -0.765886  0  2.281128  0  0  -0.399913  -0.714037  0  2.302092  0
O  O80  1  0.90750826  0.98304433  0.41071524  1  0  -0.793256  0  2.076018  0  0  -0.735327  0  2.336425  0  0  -0.770456  0  2.322239  0  0  -0.420133  -0.718242  0  2.344811  0
O  O81  1  0.09248821  0.01695820  0.58928423  1  0  -0.793169  0  2.076037  0  0  -0.735188  0  2.336473  0  0  -0.770327  0  2.322329  0  0  -0.420017  -0.718109  0  2.344855  0
O  O82  1  0.28063709  0.78415004  0.50434133  1  0  -0.604336  0  2.202909  0  0  -0.540466  0  2.454578  0  0  -0.562726  0  2.442394  0  0  -0.459675  -0.528728  0  2.462453  0
O  O83  1  0.71936188  0.21584938  0.49565888  1  0  -0.60435  0  2.202931  0  0  -0.540454  0  2.454549  0  0  -0.562716  0  2.442364  0  0  -0.459671  -0.528713  0  2.462421  0
