# generated using pymatgen
data_SrH18(C6O7)2
_symmetry_space_group_name_H-M   'P 1'
_cell_length_a   6.36463857
_cell_length_b   8.27511304
_cell_length_c   16.29642551
_cell_angle_alpha   90.00018758
_cell_angle_beta   89.99983073
_cell_angle_gamma   108.89564673
_symmetry_Int_Tables_number   1
_chemical_formula_structural   SrH18(C6O7)2
_chemical_formula_sum   'Sr2 H36 C24 O28'
_cell_volume   812.04791339
_cell_formula_units_Z   2
loop_
 _symmetry_equiv_pos_site_id
 _symmetry_equiv_pos_as_xyz
  1  'x, y, z'
loop_
 _atom_site_type_symbol
 _atom_site_label
 _atom_site_symmetry_multiplicity
 _atom_site_fract_x
 _atom_site_fract_y
 _atom_site_fract_z
 _atom_site_occupancy
 _atom_site_hle17_bader_spin_density
 _atom_site_hle17_ddec_charge
 _atom_site_hle17_ddec_spin_density
 _atom_site_hle17_ddec_sum_bond_order
 _atom_site_hle17_magmom
 _atom_site_hse06_10hf_bader_spin_density
 _atom_site_hse06_10hf_ddec_charge
 _atom_site_hse06_10hf_ddec_spin_density
 _atom_site_hse06_10hf_ddec_sum_bond_order
 _atom_site_hse06_10hf_magmom
 _atom_site_hse06_bader_spin_density
 _atom_site_hse06_ddec_charge
 _atom_site_hse06_ddec_spin_density
 _atom_site_hse06_ddec_sum_bond_order
 _atom_site_hse06_magmom
 _atom_site_pbe_bader_spin_density
 _atom_site_pbe_cm5_charge
 _atom_site_pbe_ddec_charge
 _atom_site_pbe_ddec_spin_density
 _atom_site_pbe_ddec_sum_bond_order
 _atom_site_pbe_magmom
Sr  Sr0  1  0.97114660  0.22522579  0.11014648  1  0  1.597536  0  1.084345  0  0  1.451009  0  1.448157  0  0  1.486811  0  1.404354  0  0  0.93735  1.424522  0  1.479459  0
Sr  Sr1  1  0.02885364  0.77477281  0.61014668  1  0  1.597531  0  1.084361  0  0  1.451013  0  1.448171  0  0  1.486815  0  1.404368  0  0  0.937332  1.424512  0  1.479476  0
H  H2  1  0.38026254  0.53741501  0.17839516  1  0  0.415737  0  0.894168  0  0  0.382766  0  0.961619  0  0  0.39386  0  0.945588  0  0  0.292187  0.374944  0  0.972908  0
H  H3  1  0.61973627  0.46258521  0.67839541  1  0  0.415728  0  0.894174  0  0  0.382767  0  0.961609  0  0  0.39386  0  0.945578  0  0  0.292207  0.374941  0  0.972903  0
H  H4  1  0.39654440  0.56599751  0.08076395  1  0  0.417962  0  0.890416  0  0  0.38633  0  0.954946  0  0  0.397134  0  0.939176  0  0  0.294839  0.378724  0  0.966039  0
H  H5  1  0.60345546  0.43400347  0.58076417  1  0  0.417912  0  0.890473  0  0  0.386275  0  0.955015  0  0  0.397077  0  0.939248  0  0  0.294841  0.378672  0  0.9661  0
H  H6  1  0.50944154  0.01122728  0.20166296  1  0  0.424311  0  0.87221  0  0  0.391176  0  0.940132  0  0  0.402225  0  0.923628  0  0  0.296687  0.383289  0  0.951903  0
H  H7  1  0.49055401  0.98876922  0.70166604  1  0  0.424286  0  0.872222  0  0  0.391155  0  0.940139  0  0  0.402203  0  0.923638  0  0  0.296708  0.38327  0  0.951905  0
H  H8  1  0.44461653  0.07017663  0.11632592  1  0  0.422362  0  0.872704  0  0  0.39135  0  0.937143  0  0  0.402043  0  0.921266  0  0  0.30224  0.383743  0  0.948428  0
H  H9  1  0.55538261  0.92982708  0.61632823  1  0  0.422356  0  0.872726  0  0  0.391351  0  0.937155  0  0  0.402045  0  0.921277  0  0  0.302259  0.38374  0  0.948444  0
H  H10  1  0.41317902  0.79040699  0.29754418  1  0  0.372313  0  0.936179  0  0  0.339564  0  1.019636  0  0  0.351121  0  1.004278  0  0  0.2927  0.331511  0  1.028704  0
H  H11  1  0.58681919  0.20958622  0.79754712  1  0  0.372294  0  0.936246  0  0  0.339554  0  1.01972  0  0  0.351117  0  1.004307  0  0  0.292668  0.331499  0  1.028788  0
H  H12  1  0.59693102  0.76001999  0.50566760  1  0  0.37151  0  0.921988  0  0  0.344184  0  0.994978  0  0  0.354549  0  0.984037  0  0  0.308343  0.336928  0  1.002622  0
H  H13  1  0.40307028  0.23998315  0.00566685  1  0  0.371472  0  0.922011  0  0  0.344161  0  0.994976  0  0  0.35453  0  0.984029  0  0  0.308339  0.336907  0  1.002614  0
H  H14  1  0.28248006  0.15431752  0.53787067  1  0  0.383818  0  0.908371  0  0  0.358324  0  0.981444  0  0  0.367901  0  0.969154  0  0  0.306583  0.351577  0  0.989134  0
H  H15  1  0.71751951  0.84568196  0.03786931  1  0  0.383787  0  0.908393  0  0  0.358294  0  0.981464  0  0  0.367872  0  0.96919  0  0  0.306583  0.351545  0  0.989163  0
H  H16  1  0.73565126  0.78543750  0.37634225  1  0  0.065435  0  0.961912  0  0  0.07116  0  1.033739  0  0  0.072376  0  1.033354  0  0  0.115258  0.070172  0  1.034244  0
H  H17  1  0.26434442  0.21455866  0.87634005  1  0  0.065374  0  0.961855  0  0  0.071124  0  1.033709  0  0  0.07234  0  1.033327  0  0  0.115231  0.070133  0  1.034218  0
H  H18  1  0.66406124  0.02841797  0.44230400  1  0  0.069002  0  0.912406  0  0  0.072011  0  0.983656  0  0  0.074362  0  0.980791  0  0  0.113366  0.070195  0  0.985861  0
H  H19  1  0.33594090  0.97158369  0.94230355  1  0  0.068976  0  0.912412  0  0  0.071972  0  0.983657  0  0  0.074323  0  0.980788  0  0  0.113363  0.070159  0  0.985862  0
H  H20  1  0.06105238  0.22477253  0.45358857  1  0  0.056955  0  0.928391  0  0  0.068417  0  0.997861  0  0  0.068377  0  0.997809  0  0  0.103218  0.068327  0  0.998052  0
H  H21  1  0.93895129  0.77522539  0.95358834  1  0  0.05694  0  0.928371  0  0  0.068431  0  0.99784  0  0  0.068385  0  0.997794  0  0  0.103212  0.06834  0  0.998027  0
H  H22  1  0.89474653  0.20608946  0.54284323  1  0  0.067215  0  0.918677  0  0  0.078819  0  0.984312  0  0  0.080237  0  0.982415  0  0  0.104886  0.077669  0  0.985874  0
H  H23  1  0.10525721  0.79391263  0.04284495  1  0  0.067171  0  0.918677  0  0  0.078804  0  0.984309  0  0  0.080221  0  0.982411  0  0  0.104878  0.077649  0  0.985877  0
H  H24  1  0.27789859  0.65397998  0.44629456  1  0  0.387402  0  0.909419  0  0  0.354694  0  0.989067  0  0  0.367537  0  0.974706  0  0  0.300579  0.345697  0  0.999034  0
H  H25  1  0.72210562  0.34602299  0.94629511  1  0  0.3874  0  0.909411  0  0  0.354655  0  0.98912  0  0  0.367499  0  0.974763  0  0  0.30056  0.345661  0  0.999085  0
H  H26  1  0.88858190  0.25271060  0.30076933  1  0  0.386963  0  0.867277  0  0  0.359217  0  0.944901  0  0  0.369471  0  0.932051  0  0  0.319698  0.351855  0  0.954159  0
H  H27  1  0.11142100  0.74729031  0.80077001  1  0  0.386943  0  0.867285  0  0  0.359186  0  0.944928  0  0  0.369441  0  0.932076  0  0  0.319688  0.351823  0  0.954188  0
H  H28  1  0.64660168  0.46504045  0.11402808  1  0  0.373467  0  0.897812  0  0  0.348979  0  0.972009  0  0  0.359455  0  0.959642  0  0  0.304113  0.3414  0  0.980933  0
H  H29  1  0.35340010  0.53496200  0.61402813  1  0  0.37344  0  0.897859  0  0  0.348975  0  0.972018  0  0  0.359443  0  0.959653  0  0  0.304122  0.341398  0  0.980937  0
H  H30  1  0.49903874  0.30132499  0.24688416  1  0  0.101655  0  0.926712  0  0  0.106368  0  0.990862  0  0  0.109399  0  0.988262  0  0  0.129535  0.104091  0  0.992923  0
H  H31  1  0.50096392  0.69867436  0.74688492  1  0  0.101609  0  0.926726  0  0  0.106368  0  0.990883  0  0  0.109398  0  0.988285  0  0  0.129552  0.104091  0  0.992943  0
H  H32  1  0.91970229  0.55276126  0.32416548  1  0  0.039821  0  0.933073  0  0  0.047214  0  1.002997  0  0  0.047362  0  1.00343  0  0  0.10377  0.046972  0  1.002906  0
H  H33  1  0.08029996  0.44723850  0.82416571  1  0  0.039863  0  0.933035  0  0  0.047251  0  1.002934  0  0  0.047396  0  1.00337  0  0  0.103777  0.047005  0  1.002853  0
H  H34  1  0.80159958  0.68118545  0.19969173  1  0  0.073797  0  0.92906  0  0  0.084806  0  0.993283  0  0  0.086054  0  0.992136  0  0  0.109049  0.083766  0  0.994293  0
H  H35  1  0.19839860  0.31881360  0.69968978  1  0  0.073736  0  0.92907  0  0  0.084802  0  0.993216  0  0  0.086044  0  0.992082  0  0  0.109032  0.083761  0  0.994221  0
H  H36  1  0.05939969  0.64283331  0.18861731  1  0  0.07355  0  0.918404  0  0  0.08685  0  0.981137  0  0  0.08764  0  0.980479  0  0  0.113761  0.086165  0  0.981763  0
H  H37  1  0.94060115  0.35717208  0.68861701  1  0  0.073545  0  0.918386  0  0  0.086839  0  0.981129  0  0  0.087631  0  0.98047  0  0  0.113751  0.08615  0  0.98176  0
C  C38  1  0.10235464  0.01553917  0.28366523  1  0  0.524052  0  3.908178  0  0  0.473076  0  4.211051  0  0  0.505793  0  4.207373  0  0  0.205333  0.450895  0  4.213128  0
C  C39  1  0.89763577  0.98445009  0.78366907  1  0  0.524271  0  3.908195  0  0  0.473223  0  4.21113  0  0  0.505942  0  4.207448  0  0  0.205365  0.451047  0  4.213199  0
C  C40  1  0.21250007  0.92038907  0.32991469  1  0  -0.045592  0  3.902099  0  0  -0.059131  0  4.191884  0  0  -0.068534  0  4.20919  0  0  0.016826  -0.053368  0  4.180469  0
C  C41  1  0.78749639  0.07960430  0.82991780  1  0  -0.045715  0  3.902253  0  0  -0.059258  0  4.192091  0  0  -0.068658  0  4.209391  0  0  0.016786  -0.053505  0  4.180678  0
C  C42  1  0.08362036  0.84894628  0.39762526  1  0  0.253252  0  3.886177  0  0  0.219262  0  4.183343  0  0  0.239509  0  4.193412  0  0  0.08487  0.205599  0  4.176409  0
C  C43  1  0.91637835  0.15105002  0.89762466  1  0  0.253248  0  3.88622  0  0  0.219271  0  4.18343  0  0  0.239518  0  4.193498  0  0  0.084894  0.205615  0  4.176489  0
C  C44  1  0.87482489  0.90027220  0.39241450  1  0  0.048737  0  3.608653  0  0  0.018028  0  3.869657  0  0  0.020334  0  3.879376  0  0  0.001731  0.016342  0  3.863264  0
C  C45  1  0.12517543  0.09972408  0.89241473  1  0  0.04885  0  3.608435  0  0  0.017964  0  3.869628  0  0  0.02026  0  3.879364  0  0  0.001713  0.016281  0  3.863233  0
C  C46  1  0.79906457  0.98472260  0.46557114  1  0  0.173819  0  3.593933  0  0  0.139981  0  3.861817  0  0  0.146318  0  3.868741  0  0  -0.00316  0.135625  0  3.857234  0
C  C47  1  0.20093850  0.01527792  0.96557054  1  0  0.173834  0  3.593891  0  0  0.140093  0  3.86172  0  0  0.146442  0  3.868624  0  0  -0.003143  0.135731  0  3.857138  0
C  C48  1  0.97561925  0.13674579  0.50281227  1  0  0.098567  0  3.623315  0  0  0.033926  0  3.904061  0  0  0.041104  0  3.908328  0  0  -0.072251  0.029044  0  3.90119  0
C  C49  1  0.02438260  0.86325480  0.00281296  1  0  0.098652  0  3.623192  0  0  0.033903  0  3.904026  0  0  0.041084  0  3.908293  0  0  -0.072241  0.029036  0  3.901139  0
C  C50  1  0.52705818  0.36038397  0.43327107  1  0  0.515431  0  3.894248  0  0  0.458065  0  4.206977  0  0  0.490565  0  4.203523  0  0  0.203764  0.436221  0  4.208816  0
C  C51  1  0.47294453  0.63961891  0.93327178  1  0  0.515378  0  3.894503  0  0  0.458014  0  4.207211  0  0  0.490516  0  4.203753  0  0  0.203751  0.436171  0  4.209052  0
C  C52  1  0.46180471  0.50207109  0.40745023  1  0  -0.049835  0  3.894406  0  0  -0.067388  0  4.188289  0  0  -0.07646  0  4.204626  0  0  0.017768  -0.061817  0  4.177483  0
C  C53  1  0.53819604  0.49793037  0.90744940  1  0  -0.049667  0  3.894218  0  0  -0.067194  0  4.188069  0  0  -0.076262  0  4.204406  0  0  0.017878  -0.06163  0  4.177266  0
C  C54  1  0.48349103  0.51689604  0.32272428  1  0  0.258915  0  3.889665  0  0  0.22163  0  4.187232  0  0  0.242665  0  4.196533  0  0  0.087758  0.207566  0  4.180668  0
C  C55  1  0.51650860  0.48310114  0.82272284  1  0  0.258863  0  3.889733  0  0  0.221611  0  4.187339  0  0  0.242645  0  4.19664  0  0  0.087772  0.207555  0  4.180763  0
C  C56  1  0.59180879  0.38817230  0.29506161  1  0  0.031019  0  3.595041  0  0  0.002971  0  3.849216  0  0  0.004656  0  3.857841  0  0  0.000103  0.001884  0  3.843382  0
C  C57  1  0.40819204  0.61182728  0.79506111  1  0  0.031241  0  3.59483  0  0  0.00298  0  3.849257  0  0  0.004664  0  3.857881  0  0  8.2e-05  0.001894  0  3.843417  0
C  C58  1  0.83749971  0.47143416  0.27201047  1  0  0.179328  0  3.626798  0  0  0.149464  0  3.889557  0  0  0.155155  0  3.89908  0  0  -0.004853  0.145485  0  3.883239  0
C  C59  1  0.16250176  0.52856659  0.77201074  1  0  0.179123  0  3.626933  0  0  0.149354  0  3.889635  0  0  0.155048  0  3.899156  0  0  -0.00491  0.145372  0  3.88333  0
C  C60  1  0.87931241  0.58077164  0.19474144  1  0  0.068917  0  3.637507  0  0  0.007263  0  3.914057  0  0  0.012886  0  3.919823  0  0  -0.075109  0.003509  0  3.910186  0
C  C61  1  0.12068684  0.41922995  0.69474097  1  0  0.068989  0  3.637385  0  0  0.007311  0  3.913901  0  0  0.012931  0  3.919665  0  0  -0.075073  0.003563  0  3.910032  0
O  O62  1  0.35748817  0.47588143  0.12427774  1  0  -0.879749  0  1.816441  0  0  -0.816341  0  1.994122  0  0  -0.838001  0  1.963235  0  0  -0.609742  -0.800815  0  2.015633  0
O  O63  1  0.64251146  0.52411978  0.62427867  1  0  -0.879682  0  1.816467  0  0  -0.816293  0  1.994148  0  0  -0.837949  0  1.963263  0  0  -0.609771  -0.80077  0  2.015661  0
O  O64  1  0.56907627  0.05313862  0.14684296  1  0  -0.876194  0  1.800099  0  0  -0.821803  0  1.974649  0  0  -0.839579  0  1.94071  0  0  -0.636168  -0.80913  0  1.998574  0
O  O65  1  0.43092112  0.94686524  0.64684543  1  0  -0.876166  0  1.800128  0  0  -0.821789  0  1.974679  0  0  -0.839565  0  1.94074  0  0  -0.63622  -0.809118  0  1.99861  0
O  O66  1  0.15514518  0.09254951  0.21751824  1  0  -0.599755  0  2.041989  0  0  -0.544785  0  2.281049  0  0  -0.567434  0  2.271545  0  0  -0.342724  -0.528925  0  2.287189  0
O  O67  1  0.84484296  0.90743683  0.71752324  1  0  -0.599826  0  2.041981  0  0  -0.544845  0  2.281057  0  0  -0.567494  0  2.27155  0  0  -0.342731  -0.528983  0  2.287195  0
O  O68  1  0.41399508  0.91363058  0.30486061  1  0  -0.496364  0  2.229815  0  0  -0.444636  0  2.464881  0  0  -0.459665  0  2.453524  0  0  -0.363046  -0.433735  0  2.471199  0
O  O69  1  0.58599940  0.08636519  0.80486519  1  0  -0.496292  0  2.229844  0  0  -0.444565  0  2.464859  0  0  -0.459598  0  2.453464  0  0  -0.362985  -0.433656  0  2.471173  0
O  O70  1  0.10784251  0.74400429  0.45315636  1  0  -0.615558  0  2.048837  0  0  -0.557518  0  2.290329  0  0  -0.581128  0  2.281936  0  0  -0.361892  -0.540813  0  2.295582  0
O  O71  1  0.89215905  0.25599615  0.95315595  1  0  -0.615545  0  2.048772  0  0  -0.557467  0  2.290266  0  0  -0.581078  0  2.281876  0  0  -0.361896  -0.540775  0  2.295525  0
O  O72  1  0.90850174  0.01422881  0.32236957  1  0  -0.333312  0  2.251657  0  0  -0.267559  0  2.488729  0  0  -0.28604  0  2.486739  0  0  -0.162911  -0.254636  0  2.4897  0
O  O73  1  0.09149528  0.98576580  0.82237004  1  0  -0.333451  0  2.251676  0  0  -0.267561  0  2.488723  0  0  -0.286041  0  2.486737  0  0  -0.16291  -0.25464  0  2.489691  0
O  O74  1  0.71722125  0.85998998  0.52957224  1  0  -0.6113  0  2.105549  0  0  -0.54303  0  2.329119  0  0  -0.56265  0  2.318103  0  0  -0.413864  -0.529064  0  2.336565  0
O  O75  1  0.28277940  0.14001201  0.02957024  1  0  -0.611225  0  2.105562  0  0  -0.542963  0  2.329087  0  0  -0.562584  0  2.318065  0  0  -0.413834  -0.529006  0  2.336539  0
O  O76  1  0.12906292  0.07939165  0.54915293  1  0  -0.610696  0  2.12829  0  0  -0.547835  0  2.36486  0  0  -0.56674  0  2.353547  0  0  -0.446383  -0.534309  0  2.371581  0
O  O77  1  0.87093553  0.92060916  0.04915335  1  0  -0.610674  0  2.128209  0  0  -0.547784  0  2.364798  0  0  -0.56669  0  2.353499  0  0  -0.446387  -0.534256  0  2.371518  0
O  O78  1  0.52961357  0.29744810  0.50312254  1  0  -0.566269  0  2.059563  0  0  -0.508959  0  2.279476  0  0  -0.529683  0  2.267167  0  0  -0.290054  -0.494669  0  2.287511  0
O  O79  1  0.47038775  0.70255502  0.00312245  1  0  -0.566247  0  2.059777  0  0  -0.508954  0  2.279693  0  0  -0.529679  0  2.267383  0  0  -0.290067  -0.494666  0  2.287732  0
O  O80  1  0.40037568  0.60192108  0.46300977  1  0  -0.506324  0  2.282604  0  0  -0.440801  0  2.50748  0  0  -0.458093  0  2.49928  0  0  -0.348875  -0.4285  0  2.513033  0
O  O81  1  0.59962686  0.39808197  0.96300932  1  0  -0.50645  0  2.282448  0  0  -0.440928  0  2.50737  0  0  -0.458237  0  2.499191  0  0  -0.348947  -0.428626  0  2.512922  0
O  O82  1  0.43539351  0.61956225  0.27239189  1  0  -0.548278  0  2.094205  0  0  -0.483905  0  2.317076  0  0  -0.507683  0  2.309378  0  0  -0.30475  -0.467432  0  2.321704  0
O  O83  1  0.56460745  0.38043340  0.77239268  1  0  -0.548247  0  2.094305  0  0  -0.483897  0  2.317192  0  0  -0.507673  0  2.309477  0  0  -0.304754  -0.467423  0  2.321815  0
O  O84  1  0.59414181  0.28602689  0.36763081  1  0  -0.313362  0  2.246156  0  0  -0.250872  0  2.487555  0  0  -0.26978  0  2.486997  0  0  -0.164017  -0.237922  0  2.487656  0
O  O85  1  0.40586073  0.71397437  0.86763049  1  0  -0.313433  0  2.246143  0  0  -0.250893  0  2.48759  0  0  -0.269798  0  2.487031  0  0  -0.164012  -0.237942  0  2.487689  0
O  O86  1  0.93744786  0.34157966  0.25858773  1  0  -0.607793  0  2.117326  0  0  -0.556545  0  2.359449  0  0  -0.572823  0  2.346881  0  0  -0.42748  -0.544821  0  2.368097  0
O  O87  1  0.06255578  0.65842230  0.75858771  1  0  -0.607728  0  2.117393  0  0  -0.556471  0  2.359454  0  0  -0.572751  0  2.346886  0  0  -0.427455  -0.544746  0  2.368108  0
O  O88  1  0.80619170  0.48013885  0.12233104  1  0  -0.592475  0  2.103363  0  0  -0.535809  0  2.339165  0  0  -0.552619  0  2.326864  0  0  -0.439007  -0.523761  0  2.347788  0
O  O89  1  0.19380898  0.51986491  0.62233003  1  0  -0.592451  0  2.103333  0  0  -0.535822  0  2.339147  0  0  -0.552619  0  2.326864  0  0  -0.439032  -0.523778  0  2.347755  0
