# generated using pymatgen
data_ZnH14C24(NO)4
_symmetry_space_group_name_H-M   'P 1'
_cell_length_a   7.88885852
_cell_length_b   11.37260505
_cell_length_c   11.60296405
_cell_angle_alpha   66.88163097
_cell_angle_beta   88.75414742
_cell_angle_gamma   81.38550711
_symmetry_Int_Tables_number   1
_chemical_formula_structural   ZnH14C24(NO)4
_chemical_formula_sum   'Zn2 H28 C48 N8 O8'
_cell_volume   945.79875533
_cell_formula_units_Z   2
loop_
 _symmetry_equiv_pos_site_id
 _symmetry_equiv_pos_as_xyz
  1  'x, y, z'
loop_
 _atom_site_type_symbol
 _atom_site_label
 _atom_site_symmetry_multiplicity
 _atom_site_fract_x
 _atom_site_fract_y
 _atom_site_fract_z
 _atom_site_occupancy
 _atom_site_hle17_bader_spin_density
 _atom_site_hle17_ddec_charge
 _atom_site_hle17_ddec_spin_density
 _atom_site_hle17_ddec_sum_bond_order
 _atom_site_hle17_magmom
 _atom_site_hse06_10hf_bader_spin_density
 _atom_site_hse06_10hf_ddec_charge
 _atom_site_hse06_10hf_ddec_spin_density
 _atom_site_hse06_10hf_ddec_sum_bond_order
 _atom_site_hse06_10hf_magmom
 _atom_site_hse06_bader_spin_density
 _atom_site_hse06_ddec_charge
 _atom_site_hse06_ddec_spin_density
 _atom_site_hse06_ddec_sum_bond_order
 _atom_site_hse06_magmom
 _atom_site_pbe_bader_spin_density
 _atom_site_pbe_cm5_charge
 _atom_site_pbe_ddec_charge
 _atom_site_pbe_ddec_spin_density
 _atom_site_pbe_ddec_sum_bond_order
 _atom_site_pbe_magmom
Zn  Zn0  1  0.36008782  0.37142895  0.03661952  1  0  1.097249  0  1.829278  0  0  0.917447  0  2.319554  0  0  0.964116  0  2.258459  0  0  0.718093  0.884655  0  2.361632  0
Zn  Zn1  1  0.63991236  0.62857220  0.96337991  1  0  1.097236  0  1.829271  0  0  0.917448  0  2.31952  0  0  0.964124  0  2.258429  0  0  0.718096  0.884648  0  2.361637  0
H  H2  1  0.06386709  0.41715764  0.18050934  1  0  0.274348  0  0.938745  0  0  0.245228  0  1.022338  0  0  0.255511  0  1.0127  0  0  0.307593  0.237953  0  1.02919  0
H  H3  1  0.93613347  0.58284158  0.81948996  1  0  0.274348  0  0.938717  0  0  0.245238  0  1.022297  0  0  0.255518  0  1.012662  0  0  0.307591  0.237965  0  1.02914  0
H  H4  1  0.74690995  0.35444854  0.16679253  1  0  0.304594  0  0.890587  0  0  0.286877  0  0.949517  0  0  0.295166  0  0.942829  0  0  0.327429  0.280987  0  0.95437  0
H  H5  1  0.25309423  0.64555163  0.83320808  1  0  0.304506  0  0.890582  0  0  0.28682  0  0.949499  0  0  0.295108  0  0.942812  0  0  0.327415  0.28093  0  0.954347  0
H  H6  1  0.20354403  0.73860014  0.58449540  1  0  0.091956  0  0.944764  0  0  0.103094  0  1.005539  0  0  0.106761  0  1.003256  0  0  0.099861  0.10043  0  1.007293  0
H  H7  1  0.79645527  0.26139907  0.41550565  1  0  0.091948  0  0.94477  0  0  0.103081  0  1.005548  0  0  0.106754  0  1.003259  0  0  0.099863  0.100414  0  1.007303  0
H  H8  1  0.44291669  0.82417098  0.64655388  1  0  0.091258  0  0.960155  0  0  0.101898  0  1.021  0  0  0.105192  0  1.019272  0  0  0.096322  0.099502  0  1.022329  0
H  H9  1  0.55708425  0.17582630  0.35344701  1  0  0.091285  0  0.96014  0  0  0.101915  0  1.020997  0  0  0.105202  0  1.019269  0  0  0.096342  0.099522  0  1.022327  0
H  H10  1  0.72854221  0.81100710  0.55035722  1  0  0.080362  0  0.958096  0  0  0.094293  0  1.01473  0  0  0.09697  0  1.013566  0  0  0.096356  0.092324  0  1.015675  0
H  H11  1  0.27145834  0.18899212  0.44964209  1  0  0.080357  0  0.958059  0  0  0.094281  0  1.014704  0  0  0.096957  0  1.013541  0  0  0.09635  0.092316  0  1.015639  0
H  H12  1  0.77523146  0.71026723  0.39481635  1  0  0.103105  0  0.951454  0  0  0.112966  0  1.015278  0  0  0.116271  0  1.013428  0  0  0.104554  0.110575  0  1.016703  0
H  H13  1  0.22476745  0.28973392  0.60518310  1  0  0.103123  0  0.951413  0  0  0.112966  0  1.015267  0  0  0.116272  0  1.013417  0  0  0.104555  0.110575  0  1.016688  0
H  H14  1  0.09375340  0.62815137  0.46090126  1  0  0.115285  0  0.95526  0  0  0.121925  0  1.022249  0  0  0.126087  0  1.018997  0  0  0.108071  0.118964  0  1.024538  0
H  H15  1  0.90624696  0.37184881  0.53909854  1  0  0.115276  0  0.955279  0  0  0.121912  0  1.022275  0  0  0.126075  0  1.019017  0  0  0.108057  0.118955  0  1.024559  0
H  H16  1  0.66439742  0.60755678  0.26723163  1  0  0.127134  0  0.949952  0  0  0.133397  0  1.017058  0  0  0.138227  0  1.012841  0  0  0.109093  0.129904  0  1.020132  0
H  H17  1  0.33560129  0.39244535  0.73276660  1  0  0.127141  0  0.94996  0  0  0.133391  0  1.017073  0  0  0.138219  0  1.012859  0  0  0.109096  0.129903  0  1.020143  0
H  H18  1  0.55037056  0.99848001  0.81845065  1  0  0.098632  0  0.946103  0  0  0.109383  0  1.007617  0  0  0.112423  0  1.006009  0  0  0.102771  0.107196  0  1.008817  0
H  H19  1  0.44962911  0.00151727  0.18155027  1  0  0.098643  0  0.946106  0  0  0.109412  0  1.007596  0  0  0.112455  0  1.005985  0  0  0.102781  0.107219  0  1.008807  0
H  H20  1  0.69005664  0.91635717  0.66774731  1  0  0.084767  0  0.966311  0  0  0.098577  0  1.023837  0  0  0.100865  0  1.023087  0  0  0.10059  0.096925  0  1.024484  0
H  H21  1  0.30994558  0.08364010  0.33225529  1  0  0.084755  0  0.966332  0  0  0.098558  0  1.023859  0  0  0.100845  0  1.023109  0  0  0.100577  0.096905  0  1.024509  0
H  H22  1  0.99373585  0.94312969  0.61158163  1  0  0.080608  0  0.953194  0  0  0.094191  0  1.011426  0  0  0.096872  0  1.009872  0  0  0.098467  0.092264  0  1.012549  0
H  H23  1  0.00626325  0.05687050  0.38841819  1  0  0.080602  0  0.953177  0  0  0.094181  0  1.011419  0  0  0.096862  0  1.009866  0  0  0.098467  0.092252  0  1.012544  0
H  H24  1  0.15677327  0.05603600  0.70554560  1  0  0.093685  0  0.949052  0  0  0.106214  0  1.008198  0  0  0.1089  0  1.007779  0  0  0.101128  0.104303  0  1.008584  0
H  H25  1  0.84322526  0.94396709  0.29445312  1  0  0.093737  0  0.949027  0  0  0.10624  0  1.008189  0  0  0.108925  0  1.007769  0  0  0.101137  0.104329  0  1.008578  0
H  H26  1  0.56309456  0.11394122  0.96201296  1  0  0.10866  0  0.938517  0  0  0.120146  0  0.999565  0  0  0.12377  0  0.996868  0  0  0.109922  0.11744  0  1.001659  0
H  H27  1  0.43690124  0.88606285  0.03798457  1  0  0.108654  0  0.938504  0  0  0.120136  0  0.999551  0  0  0.123759  0  0.996854  0  0  0.109921  0.117435  0  1.00164  0
H  H28  1  0.16885788  0.17197780  0.84769503  1  0  0.111132  0  0.935148  0  0  0.12259  0  0.995396  0  0  0.126232  0  0.993037  0  0  0.110308  0.119978  0  0.997153  0
H  H29  1  0.83114103  0.82802336  0.15230442  1  0  0.111106  0  0.935222  0  0  0.122591  0  0.995432  0  0  0.126234  0  0.993072  0  0  0.110314  0.119979  0  0.99719  0
C  C30  1  0.32773080  0.73588819  0.54157652  1  0  -0.101338  0  3.727458  0  0  -0.122525  0  3.9807  0  0  -0.125336  0  4.001947  0  0  -0.086249  -0.120541  0  3.966267  0
C  C31  1  0.67226956  0.26411199  0.45842328  1  0  -0.101307  0  3.727402  0  0  -0.122465  0  3.980657  0  0  -0.12528  0  4.001899  0  0  -0.086239  -0.120478  0  3.96622  0
C  C32  1  0.46072571  0.78341896  0.57538460  1  0  -0.071915  0  3.769327  0  0  -0.088965  0  4.028949  0  0  -0.090607  0  4.05015  0  0  -0.097104  -0.087711  0  4.014402  0
C  C33  1  0.53927484  0.21658026  0.42461470  1  0  -0.07202  0  3.769405  0  0  -0.089068  0  4.029035  0  0  -0.090698  0  4.050225  0  0  -0.097156  -0.087815  0  4.014487  0
C  C34  1  0.62283131  0.77591754  0.52098401  1  0  -0.072474  0  3.785691  0  0  -0.091084  0  4.0454  0  0  -0.092889  0  4.06697  0  0  -0.098021  -0.089707  0  4.03058  0
C  C35  1  0.37717032  0.22408264  0.47901577  1  0  -0.072436  0  3.785721  0  0  -0.091034  0  4.045432  0  0  -0.092838  0  4.066998  0  0  -0.098  -0.089661  0  4.030599  0
C  C36  1  0.64955970  0.72138505  0.43379817  1  0  -0.109914  0  3.727135  0  0  -0.129573  0  3.977379  0  0  -0.132016  0  3.99832  0  0  -0.085316  -0.127847  0  3.963153  0
C  C37  1  0.35044085  0.27861417  0.56620113  1  0  -0.109932  0  3.727133  0  0  -0.129583  0  3.97738  0  0  -0.132026  0  3.998322  0  0  -0.085324  -0.127852  0  3.96314  0
C  C38  1  0.51435479  0.67277674  0.39603745  1  0  0.061449  0  3.771434  0  0  0.0786  0  3.997291  0  0  0.077795  0  4.021856  0  0  -0.00116  0.079117  0  3.980613  0
C  C39  1  0.48564596  0.32722151  0.60396394  1  0  0.061497  0  3.771477  0  0  0.078657  0  3.997344  0  0  0.077851  0  4.021911  0  0  -0.001123  0.079175  0  3.980663  0
C  C40  1  0.34984711  0.67960674  0.45137814  1  0  0.062407  0  3.760964  0  0  0.079128  0  3.987156  0  0  0.078732  0  4.011817  0  0  0.001654  0.079394  0  3.97042  0
C  C41  1  0.65015200  0.32039344  0.54862255  1  0  0.062446  0  3.760952  0  0  0.079101  0  3.987235  0  0  0.078706  0  4.011893  0  0  0.001618  0.079366  0  3.970502  0
C  C42  1  0.21664444  0.62847655  0.41621957  1  0  -0.084448  0  3.654785  0  0  -0.116124  0  3.906274  0  0  -0.115639  0  3.923396  0  0  -0.067923  -0.116304  0  3.894681  0
C  C43  1  0.78335612  0.37152266  0.58378060  1  0  -0.084533  0  3.654834  0  0  -0.116166  0  3.906316  0  0  -0.115691  0  3.923458  0  0  -0.06793  -0.116348  0  3.894723  0
C  C44  1  0.24305101  0.57234004  0.32956867  1  0  -0.067571  0  3.770127  0  0  -0.054042  0  4.005609  0  0  -0.060145  0  4.029658  0  0  -0.011288  -0.050122  0  3.989467  0
C  C45  1  0.75694954  0.42765918  0.67043064  1  0  -0.067491  0  3.77004  0  0  -0.053977  0  4.005522  0  0  -0.060075  0  4.029565  0  0  -0.01123  -0.050058  0  3.989398  0
C  C46  1  0.40599903  0.56689942  0.27428447  1  0  -0.062084  0  3.803766  0  0  -0.047758  0  4.038977  0  0  -0.053983  0  4.063881  0  0  -0.015288  -0.043748  0  4.022271  0
C  C47  1  0.59400262  0.43310075  0.72571618  1  0  -0.062103  0  3.803805  0  0  -0.047782  0  4.039012  0  0  -0.054006  0  4.063917  0  0  -0.015303  -0.043772  0  4.022324  0
C  C48  1  0.53922320  0.61591605  0.30752672  1  0  -0.090982  0  3.638269  0  0  -0.122617  0  3.887766  0  0  -0.121969  0  3.904264  0  0  -0.070745  -0.122902  0  3.876629  0
C  C49  1  0.46077590  0.38408413  0.69247397  1  0  -0.091023  0  3.638288  0  0  -0.122632  0  3.887778  0  0  -0.121986  0  3.904278  0  0  -0.070751  -0.122923  0  3.876647  0
C  C50  1  0.43036581  0.50818287  0.18307331  1  0  0.463845  0  3.910334  0  0  0.419996  0  4.191539  0  0  0.444982  0  4.198331  0  0  0.209373  0.403225  0  4.186359  0
C  C51  1  0.56963329  0.49181732  0.81692651  1  0  0.463853  0  3.91043  0  0  0.420026  0  4.191617  0  0  0.445009  0  4.198408  0  0  0.209362  0.403238  0  4.186467  0
C  C52  1  0.10521865  0.51586862  0.29551563  1  0  0.491016  0  3.890407  0  0  0.44549  0  4.179646  0  0  0.473532  0  4.182269  0  0  0.224936  0.426753  0  4.177119  0
C  C53  1  0.89478190  0.48413060  0.70448367  1  0  0.490962  0  3.890472  0  0  0.445447  0  4.17971  0  0  0.473487  0  4.182335  0  0  0.224905  0.426707  0  4.17719  0
C  C54  1  0.68193886  0.01252690  0.79318694  1  0  -0.085712  0  3.703341  0  0  -0.107875  0  3.953731  0  0  -0.10929  0  3.973658  0  0  -0.079638  -0.106862  0  3.940296  0
C  C55  1  0.31806044  0.98747232  0.20681497  1  0  -0.085719  0  3.703428  0  0  -0.107928  0  3.95378  0  0  -0.109345  0  3.973707  0  0  -0.079642  -0.106917  0  3.94034  0
C  C56  1  0.76066283  0.96615211  0.70936955  1  0  -0.056902  0  3.75719  0  0  -0.07361  0  4.012694  0  0  -0.075419  0  4.033607  0  0  -0.087627  -0.072381  0  3.998468  0
C  C57  1  0.23933900  0.03384710  0.29063146  1  0  -0.05688  0  3.757268  0  0  -0.073576  0  4.01277  0  0  -0.07539  0  4.033695  0  0  -0.087595  -0.072343  0  3.998536  0
C  C58  1  0.93282255  0.98185661  0.67731874  1  0  -0.056065  0  3.773744  0  0  -0.07513  0  4.033917  0  0  -0.07506  0  4.054152  0  0  -0.08963  -0.074958  0  4.020009  0
C  C59  1  0.06717782  0.01814357  0.32268106  1  0  -0.056042  0  3.773653  0  0  -0.075105  0  4.033811  0  0  -0.075036  0  4.054042  0  0  -0.089651  -0.074929  0  4.019897  0
C  C60  1  0.02398852  0.04427592  0.72939542  1  0  -0.117383  0  3.731791  0  0  -0.138495  0  3.983504  0  0  -0.142494  0  4.005461  0  0  -0.089735  -0.135825  0  3.968591  0
C  C61  1  0.97600805  0.95572428  0.27060444  1  0  -0.117519  0  3.731786  0  0  -0.138588  0  3.983526  0  0  -0.142586  0  4.005482  0  0  -0.089766  -0.135921  0  3.968616  0
C  C62  1  0.94700575  0.09362802  0.81660636  1  0  0.062371  0  3.775964  0  0  0.079859  0  4.002569  0  0  0.08007  0  4.027242  0  0  0.000889  0.079786  0  3.98585  0
C  C63  1  0.05299208  0.90637218  0.18339348  1  0  0.062458  0  3.775982  0  0  0.079832  0  4.002661  0  0  0.080043  0  4.027334  0  0  0.000885  0.079761  0  3.985937  0
C  C64  1  0.77200254  0.07698995  0.84951090  1  0  0.058277  0  3.767705  0  0  0.075588  0  3.994045  0  0  0.074543  0  4.01831  0  0  0.001483  0.076213  0  3.9776  0
C  C65  1  0.22799529  0.92301024  0.15048893  1  0  0.058267  0  3.767726  0  0  0.075712  0  3.993929  0  0  0.074667  0  4.018195  0  0  0.00152  0.076345  0  3.977474  0
C  C66  1  0.69574750  0.12413161  0.93690889  1  0  -0.093253  0  3.670939  0  0  -0.125128  0  3.921277  0  0  -0.123861  0  3.938677  0  0  -0.070844  -0.125727  0  3.909521  0
C  C67  1  0.30425211  0.87587244  0.06308859  1  0  -0.093253  0  3.670895  0  0  -0.125158  0  3.921206  0  0  -0.123893  0  3.938604  0  0  -0.070857  -0.125766  0  3.909449  0
C  C68  1  0.78808145  0.18573632  0.99083424  1  0  -0.079453  0  3.829019  0  0  -0.067521  0  4.070381  0  0  -0.074972  0  4.094553  0  0  -0.017172  -0.062746  0  4.054131  0
C  C69  1  0.21191600  0.81426581  0.00916400  1  0  -0.079543  0  3.829125  0  0  -0.067603  0  4.070474  0  0  -0.075052  0  4.094644  0  0  -0.017178  -0.062828  0  4.054228  0
C  C70  1  0.95987877  0.20373779  0.95740271  1  0  -0.047308  0  3.770884  0  0  -0.033862  0  4.005607  0  0  -0.037319  0  4.027676  0  0  -0.009459  -0.031612  0  3.99078  0
C  C71  1  0.04012034  0.79626239  0.04259797  1  0  -0.047255  0  3.770882  0  0  -0.033841  0  4.005623  0  0  -0.037297  0  4.027692  0  0  -0.009478  -0.03159  0  3.9908  0
C  C72  1  0.03715938  0.15746339  0.87179846  1  0  -0.09224  0  3.664695  0  0  -0.125916  0  3.917965  0  0  -0.126372  0  3.935531  0  0  -0.071137  -0.12563  0  3.906188  0
C  C73  1  0.96283972  0.84253680  0.12820049  1  0  -0.092222  0  3.664716  0  0  -0.125877  0  3.917985  0  0  -0.126337  0  3.93555  0  0  -0.07112  -0.125596  0  3.906211  0
C  C74  1  0.71160396  0.23850043  0.07815727  1  0  0.483854  0  3.871489  0  0  0.432544  0  4.159095  0  0  0.460533  0  4.161749  0  0  0.223044  0.413823  0  4.156715  0
C  C75  1  0.28839603  0.76150169  0.92184180  1  0  0.483756  0  3.871549  0  0  0.432477  0  4.159152  0  0  0.460466  0  4.161807  0  0  0.223035  0.413759  0  4.156765  0
C  C76  1  0.05102740  0.27242612  0.01356678  1  0  0.464246  0  3.916741  0  0  0.422303  0  4.208564  0  0  0.446382  0  4.215891  0  0  0.210229  0.406101  0  4.202936  0
C  C77  1  0.94897316  0.72757310  0.98643338  1  0  0.464215  0  3.916783  0  0  0.422291  0  4.208566  0  0  0.44637  0  4.215892  0  0  0.210214  0.406084  0  4.202948  0
N  N78  1  0.30445812  0.45727051  0.15530213  1  0  -0.371316  0  3.273073  0  0  -0.311559  0  3.585289  0  0  -0.332144  0  3.596088  0  0  -0.273894  -0.297734  0  3.577748  0
N  N79  1  0.69554117  0.54272871  0.84469805  1  0  -0.371369  0  3.273057  0  0  -0.311639  0  3.585285  0  0  -0.332226  0  3.596091  0  0  -0.273929  -0.29781  0  3.577755  0
N  N80  1  0.15006962  0.45946602  0.21195582  1  0  -0.270096  0  3.413832  0  0  -0.218062  0  3.661013  0  0  -0.237243  0  3.675801  0  0  -0.297714  -0.205124  0  3.650769  0
N  N81  1  0.84993094  0.54053319  0.78804435  1  0  -0.270002  0  3.413737  0  0  -0.217979  0  3.660934  0  0  -0.237157  0  3.675724  0  0  -0.29764  -0.205032  0  3.65067  0
N  N82  1  0.81028146  0.30013141  0.12136200  1  0  -0.249277  0  3.467802  0  0  -0.191347  0  3.715304  0  0  -0.207968  0  3.729635  0  0  -0.28516  -0.180462  0  3.705687  0
N  N83  1  0.18971853  0.69987071  0.87863793  1  0  -0.24897  0  3.467518  0  0  -0.191115  0  3.715055  0  0  -0.207737  0  3.729396  0  0  -0.285138  -0.180229  0  3.705429  0
N  N84  1  0.97601224  0.32079513  0.09268698  1  0  -0.348381  0  2.972025  0  0  -0.328047  0  3.257661  0  0  -0.34282  0  3.269017  0  0  -0.247056  -0.318001  0  3.249883  0
N  N85  1  0.02398958  0.67920408  0.90731316  1  0  -0.348501  0  2.971956  0  0  -0.328139  0  3.257591  0  0  -0.342913  0  3.268948  0  0  -0.247065  -0.31809  0  3.249809  0
O  O86  1  0.57508094  0.50195244  0.12749597  1  0  -0.677681  0  2.138293  0  0  -0.605634  0  2.42393  0  0  -0.630263  0  2.407192  0  0  -0.340348  -0.588153  0  2.434911  0
O  O87  1  0.42492051  0.49804870  0.87250344  1  0  -0.677693  0  2.138393  0  0  -0.605654  0  2.424028  0  0  -0.630272  0  2.407276  0  0  -0.34036  -0.588166  0  2.435015  0
O  O88  1  0.95842604  0.51559784  0.33731738  1  0  -0.548175  0  1.916729  0  0  -0.509553  0  2.14174  0  0  -0.530876  0  2.13646  0  0  -0.306689  -0.494594  0  2.144778  0
O  O89  1  0.04157452  0.48440138  0.66268192  1  0  -0.548155  0  1.916813  0  0  -0.50953  0  2.141802  0  0  -0.530851  0  2.136522  0  0  -0.306681  -0.494568  0  2.144842  0
O  O90  1  0.55672158  0.22991627  0.11359227  1  0  -0.635335  0  2.077798  0  0  -0.568386  0  2.360642  0  0  -0.592658  0  2.344994  0  0  -0.333251  -0.551175  0  2.370549  0
O  O91  1  0.44327987  0.77008487  0.88640801  1  0  -0.635332  0  2.077799  0  0  -0.568392  0  2.360624  0  0  -0.592667  0  2.344979  0  0  -0.333265  -0.551187  0  2.370542  0
O  O92  1  0.20712459  0.28588250  0.98160590  1  0  -0.620933  0  2.110927  0  0  -0.548923  0  2.399622  0  0  -0.57859  0  2.387398  0  0  -0.329721  -0.527948  0  2.407183  0
O  O93  1  0.79287744  0.71411574  0.01839547  1  0  -0.620877  0  2.110966  0  0  -0.54888  0  2.399677  0  0  -0.578549  0  2.387455  0  0  -0.329676  -0.527902  0  2.407246  0
