# generated using pymatgen
data_Zn4P4H24C17(N2O3)4
_symmetry_space_group_name_H-M   'P 1'
_cell_length_a   9.69006973
_cell_length_b   12.03933008
_cell_length_c   15.15562444
_cell_angle_alpha   69.69358830
_cell_angle_beta   71.33930561
_cell_angle_gamma   66.24194501
_symmetry_Int_Tables_number   1
_chemical_formula_structural   Zn4P4H24C17(N2O3)4
_chemical_formula_sum   'Zn8 P8 H48 C34 N16 O24'
_cell_volume   1483.87350310
_cell_formula_units_Z   2
loop_
 _symmetry_equiv_pos_site_id
 _symmetry_equiv_pos_as_xyz
  1  'x, y, z'
loop_
 _atom_site_type_symbol
 _atom_site_label
 _atom_site_symmetry_multiplicity
 _atom_site_fract_x
 _atom_site_fract_y
 _atom_site_fract_z
 _atom_site_occupancy
 _atom_site_hle17_bader_spin_density
 _atom_site_hle17_ddec_charge
 _atom_site_hle17_ddec_spin_density
 _atom_site_hle17_ddec_sum_bond_order
 _atom_site_hle17_magmom
 _atom_site_hse06_10hf_bader_spin_density
 _atom_site_hse06_10hf_ddec_charge
 _atom_site_hse06_10hf_ddec_spin_density
 _atom_site_hse06_10hf_ddec_sum_bond_order
 _atom_site_hse06_10hf_magmom
 _atom_site_hse06_bader_spin_density
 _atom_site_hse06_ddec_charge
 _atom_site_hse06_ddec_spin_density
 _atom_site_hse06_ddec_sum_bond_order
 _atom_site_hse06_magmom
 _atom_site_pbe_bader_spin_density
 _atom_site_pbe_cm5_charge
 _atom_site_pbe_ddec_charge
 _atom_site_pbe_ddec_spin_density
 _atom_site_pbe_ddec_sum_bond_order
 _atom_site_pbe_magmom
Zn  Zn0  1  0.09548854  0.18672498  0.33574744  1  0  1.153903  0  1.847547  0  0  0.981087  0  2.331581  0  0  1.022576  0  2.273811  0  0  0.715542  0.953061  0  2.36995  0
Zn  Zn1  1  0.61843055  0.31334860  0.16403879  1  0  1.154269  0  1.846676  0  0  0.981154  0  2.330606  0  0  1.022629  0  2.272862  0  0  0.715846  0.95314  0  2.369024  0
Zn  Zn2  1  0.90451043  0.81327351  0.66425393  1  0  1.153907  0  1.847565  0  0  0.981078  0  2.331596  0  0  1.022566  0  2.273826  0  0  0.715546  0.953047  0  2.369961  0
Zn  Zn3  1  0.38157168  0.68665266  0.83595981  1  0  1.154269  0  1.846588  0  0  0.98117  0  2.330508  0  0  1.022645  0  2.272762  0  0  0.71584  0.953148  0  2.368927  0
Zn  Zn4  1  0.49836339  0.18174041  0.46870022  1  0  1.153235  0  1.837866  0  0  0.984441  0  2.318515  0  0  1.026594  0  2.259903  0  0  0.710097  0.954506  0  2.359238  0
Zn  Zn5  1  0.14907207  0.31817519  0.03117145  1  0  1.152438  0  1.838378  0  0  0.983747  0  2.318869  0  0  1.0259  0  2.260271  0  0  0.709328  0.953896  0  2.359449  0
Zn  Zn6  1  0.50163542  0.81825904  0.53130184  1  0  1.153216  0  1.837861  0  0  0.984418  0  2.3185  0  0  1.02657  0  2.259894  0  0  0.710086  0.954477  0  2.359227  0
Zn  Zn7  1  0.85093083  0.68182606  0.96882650  1  0  1.152489  0  1.838329  0  0  0.983806  0  2.318798  0  0  1.025954  0  2.260205  0  0  0.70937  0.953953  0  2.359379  0
P  P8  1  0.43727141  0.02742804  0.35141694  1  0  1.424251  0  4.964079  0  0  1.239101  0  5.46867  0  0  1.289431  0  5.431443  0  0  0.266161  1.20411  0  5.493286  0
P  P9  1  0.81629446  0.47245768  0.14859511  1  0  1.426923  0  4.963382  0  0  1.24134  0  5.468155  0  0  1.291679  0  5.430901  0  0  0.266554  1.206343  0  5.492957  0
P  P10  1  0.56272855  0.97257234  0.64858449  1  0  1.424196  0  4.964069  0  0  1.239065  0  5.468634  0  0  1.289387  0  5.431413  0  0  0.266185  1.204069  0  5.493262  0
P  P11  1  0.18370636  0.52754547  0.85140377  1  0  1.426868  0  4.963496  0  0  1.241266  0  5.468283  0  0  1.291607  0  5.431032  0  0  0.266554  1.20627  0  5.493085  0
P  P12  1  0.81367524  0.11657058  0.32233107  1  0  1.429557  0  5.003735  0  0  1.249894  0  5.504915  0  0  1.301045  0  5.467204  0  0  0.264472  1.214483  0  5.530418  0
P  P13  1  0.25282156  0.38328537  0.17748368  1  0  1.432332  0  5.00011  0  0  1.252374  0  5.501591  0  0  1.303553  0  5.463768  0  0  0.265675  1.216955  0  5.527092  0
P  P14  1  0.18632426  0.88343260  0.67766912  1  0  1.429557  0  5.003765  0  0  1.249882  0  5.504949  0  0  1.301048  0  5.467195  0  0  0.264429  1.214473  0  5.530446  0
P  P15  1  0.74718217  0.61671491  0.82251293  1  0  1.432178  0  5.000273  0  0  1.252214  0  5.501762  0  0  1.303392  0  5.463944  0  0  0.265624  1.216793  0  5.527257  0
H  H16  1  0.14877147  0.32598578  0.45550966  1  0  0.117295  0  0.949268  0  0  0.125349  0  1.008381  0  0  0.128002  0  1.007246  0  0  0.124122  0.123456  0  1.00926  0
H  H17  1  0.93070351  0.17385086  0.04416871  1  0  0.116961  0  0.948793  0  0  0.12575  0  1.007091  0  0  0.128394  0  1.006  0  0  0.124269  0.123839  0  1.007998  0
H  H18  1  0.85122564  0.67401741  0.54449075  1  0  0.1173  0  0.949285  0  0  0.125339  0  1.008429  0  0  0.127985  0  1.007299  0  0  0.124126  0.123444  0  1.009306  0
H  H19  1  0.06929596  0.82615134  0.95582992  1  0  0.116956  0  0.948758  0  0  0.125721  0  1.007099  0  0  0.128364  0  1.00601  0  0  0.124271  0.123813  0  1.008003  0
H  H20  1  0.00986484  0.30891776  0.64943235  1  0  0.114253  0  0.948248  0  0  0.12849  0  1.001399  0  0  0.131318  0  0.999716  0  0  0.126052  0.126499  0  1.002641  0
H  H21  1  0.96860011  0.19083421  0.85031482  1  0  0.11427  0  0.948532  0  0  0.128861  0  1.001249  0  0  0.131644  0  0.99962  0  0  0.125948  0.126866  0  1.002479  0
H  H22  1  0.99013517  0.69107979  0.35056856  1  0  0.114273  0  0.948254  0  0  0.128506  0  1.001407  0  0  0.131335  0  0.999722  0  0  0.126062  0.126518  0  1.002648  0
H  H23  1  0.03140019  0.80916426  0.14968523  1  0  0.114232  0  0.948575  0  0  0.128846  0  1.001267  0  0  0.131629  0  0.999637  0  0  0.125928  0.126851  0  1.002495  0
H  H24  1  0.86053674  0.10503297  0.54131573  1  0  0.116573  0  0.938214  0  0  0.122956  0  1.004625  0  0  0.126057  0  1.000979  0  0  0.141695  0.120814  0  1.006937  0
H  H25  1  0.50709489  0.39501807  0.95851897  1  0  0.117084  0  0.938337  0  0  0.123705  0  1.004378  0  0  0.126793  0  1.000707  0  0  0.141955  0.121553  0  1.006741  0
H  H26  1  0.13946356  0.89496827  0.45868156  1  0  0.116599  0  0.938199  0  0  0.122982  0  1.004606  0  0  0.126084  0  1.000955  0  0  0.141703  0.120838  0  1.006919  0
H  H27  1  0.49290635  0.60498131  0.04147958  1  0  0.117083  0  0.938261  0  0  0.123701  0  1.004313  0  0  0.12679  0  1.00064  0  0  0.141946  0.121544  0  1.006676  0
H  H28  1  0.88913590  0.11130216  0.76880236  1  0  0.089148  0  0.925766  0  0  0.102737  0  0.987722  0  0  0.103755  0  0.986895  0  0  0.113643  0.101871  0  0.988523  0
H  H29  1  0.76927546  0.38874854  0.73094047  1  0  0.090788  0  0.925308  0  0  0.104197  0  0.986749  0  0  0.105214  0  0.985948  0  0  0.114431  0.103406  0  0.98745  0
H  H30  1  0.11086410  0.88869815  0.23119577  1  0  0.089169  0  0.925719  0  0  0.102735  0  0.987714  0  0  0.10375  0  0.986885  0  0  0.113635  0.101866  0  0.988516  0
H  H31  1  0.23072178  0.61125272  0.26905770  1  0  0.090815  0  0.925259  0  0  0.104214  0  0.986703  0  0  0.105225  0  0.985915  0  0  0.114411  0.103417  0  0.987399  0
H  H32  1  0.79118358  0.07614242  0.70749842  1  0  0.11441  0  0.977055  0  0  0.125309  0  1.042396  0  0  0.126789  0  1.041874  0  0  0.121471  0.124159  0  1.042795  0
H  H33  1  0.57481339  0.42396064  0.79242717  1  0  0.114018  0  0.976993  0  0  0.124694  0  1.041928  0  0  0.126152  0  1.04151  0  0  0.12157  0.123565  0  1.042314  0
H  H34  1  0.20881461  0.92385698  0.29250101  1  0  0.114376  0  0.977031  0  0  0.125285  0  1.042388  0  0  0.126763  0  1.041861  0  0  0.121481  0.124136  0  1.042787  0
H  H35  1  0.42518616  0.57603971  0.20757250  1  0  0.114027  0  0.977006  0  0  0.124691  0  1.041948  0  0  0.12615  0  1.041531  0  0  0.12158  0.12356  0  1.042331  0
H  H36  1  0.57541095  0.25953034  0.62989070  1  0  0.113209  0  0.924127  0  0  0.124573  0  0.988361  0  0  0.126174  0  0.987402  0  0  0.120574  0.123319  0  0.989121  0
H  H37  1  0.46482773  0.24064683  0.87014344  1  0  0.112004  0  0.925157  0  0  0.124029  0  0.988672  0  0  0.125652  0  0.987697  0  0  0.120551  0.122866  0  0.989289  0
H  H38  1  0.42458972  0.74046720  0.37010954  1  0  0.113181  0  0.924152  0  0  0.124517  0  0.988404  0  0  0.126121  0  0.987439  0  0  0.120551  0.123267  0  0.989163  0
H  H39  1  0.53517177  0.75935358  0.12985952  1  0  0.111986  0  0.92519  0  0  0.124023  0  0.988696  0  0  0.125644  0  0.987724  0  0  0.120553  0.122859  0  0.989314  0
H  H40  1  0.44522643  0.35703010  0.70625557  1  0  0.0963  0  0.916416  0  0  0.112759  0  0.975495  0  0  0.113413  0  0.975384  0  0  0.121754  0.112142  0  0.975749  0
H  H41  1  0.50850544  0.14317731  0.79381368  1  0  0.097672  0  0.916907  0  0  0.113684  0  0.976369  0  0  0.114346  0  0.976262  0  0  0.121849  0.113051  0  0.976678  0
H  H42  1  0.55476945  0.64296744  0.29374512  1  0  0.096347  0  0.916376  0  0  0.112803  0  0.97545  0  0  0.113456  0  0.97534  0  0  0.121769  0.11219  0  0.975701  0
H  H43  1  0.49149336  0.85682214  0.20618837  1  0  0.097652  0  0.916913  0  0  0.113687  0  0.976362  0  0  0.114346  0  0.976258  0  0  0.121857  0.113054  0  0.976672  0
H  H44  1  0.46334435  0.57016909  0.68405682  1  0  0.10904  0  0.987475  0  0  0.114821  0  1.053869  0  0  0.118075  0  1.049699  0  0  0.136673  0.112227  0  1.057198  0
H  H45  1  0.71776830  0.92994804  0.81600551  1  0  0.107177  0  0.988074  0  0  0.113371  0  1.054097  0  0  0.116652  0  1.049882  0  0  0.135905  0.110769  0  1.057388  0
H  H46  1  0.53665165  0.42983033  0.31594371  1  0  0.108973  0  0.987533  0  0  0.11479  0  1.05392  0  0  0.118046  0  1.049748  0  0  0.136644  0.112195  0  1.057254  0
H  H47  1  0.28223282  0.07005327  0.18399528  1  0  0.107158  0  0.988036  0  0  0.113373  0  1.054031  0  0  0.116659  0  1.049819  0  0  0.135886  0.110769  0  1.057327  0
H  H48  1  0.74718537  0.36425244  0.47711439  1  0  0.124156  0  0.967171  0  0  0.133938  0  1.027199  0  0  0.136148  0  1.026587  0  0  0.126038  0.132163  0  1.027988  0
H  H49  1  0.58828412  0.13593689  0.02289692  1  0  0.122627  0  0.96832  0  0  0.132569  0  1.028353  0  0  0.134777  0  1.02775  0  0  0.125494  0.130899  0  1.028947  0
H  H50  1  0.25280910  0.63574699  0.52288657  1  0  0.124167  0  0.967195  0  0  0.133965  0  1.027213  0  0  0.136171  0  1.026608  0  0  0.126032  0.132189  0  1.028005  0
H  H51  1  0.41171729  0.86406534  0.97710303  1  0  0.122672  0  0.968247  0  0  0.132604  0  1.028295  0  0  0.134811  0  1.027693  0  0  0.125524  0.130938  0  1.028891  0
H  H52  1  0.74189483  0.61150216  0.40388868  1  0  0.107971  0  0.936591  0  0  0.123885  0  0.984838  0  0  0.125979  0  0.984418  0  0  0.123827  0.122299  0  0.985282  0
H  H53  1  0.75666082  0.88856990  0.09632280  1  0  0.107495  0  0.937088  0  0  0.123548  0  0.985153  0  0  0.125654  0  0.984721  0  0  0.123636  0.121961  0  0.985623  0
H  H54  1  0.25810154  0.38849633  0.59611203  1  0  0.107961  0  0.9366  0  0  0.12387  0  0.98486  0  0  0.125964  0  0.98444  0  0  0.123831  0.122304  0  0.985281  0
H  H55  1  0.24333963  0.11143142  0.90367865  1  0  0.107516  0  0.937083  0  0  0.123575  0  0.985143  0  0  0.12568  0  0.984708  0  0  0.123634  0.121954  0  0.985658  0
H  H56  1  0.53300552  0.06648058  0.26349448  1  0  -0.147273  0  0.910768  0  0  -0.112796  0  0.99161  0  0  -0.116323  0  0.986426  0  0  0.082698  -0.110081  0  0.994418  0
H  H57  1  0.86300463  0.43335745  0.23656164  1  0  -0.147917  0  0.910518  0  0  -0.112835  0  0.99078  0  0  -0.116391  0  0.985635  0  0  0.082818  -0.110092  0  0.99359  0
H  H58  1  0.46699225  0.93351983  0.73650804  1  0  -0.147237  0  0.910742  0  0  -0.112771  0  0.991595  0  0  -0.116299  0  0.986414  0  0  0.082691  -0.110055  0  0.994404  0
H  H59  1  0.13699972  0.56664289  0.76343759  1  0  -0.14792  0  0.910576  0  0  -0.112835  0  0.990837  0  0  -0.116389  0  0.985689  0  0  0.082809  -0.110085  0  0.993643  0
H  H60  1  0.83659113  0.98674746  0.35791429  1  0  -0.164253  0  0.922202  0  0  -0.132475  0  1.007917  0  0  -0.137159  0  1.005152  0  0  0.076145  -0.129683  0  1.010221  0
H  H61  1  0.18123514  0.51308077  0.14198788  1  0  -0.164487  0  0.92177  0  0  -0.132725  0  1.007597  0  0  -0.137419  0  1.004829  0  0  0.076012  -0.129787  0  1.009633  0
H  H62  1  0.16341028  0.01325478  0.64208565  1  0  -0.164208  0  0.922201  0  0  -0.132412  0  1.007899  0  0  -0.137095  0  1.005129  0  0  0.076186  -0.129627  0  1.010206  0
H  H63  1  0.81876346  0.48691867  0.85801330  1  0  -0.16446  0  0.921771  0  0  -0.1327  0  1.0076  0  0  -0.137393  0  1.004833  0  0  0.076012  -0.129761  0  1.009635  0
C  C64  1  0.06807520  0.27816305  0.50251865  1  0  0.031563  0  3.731748  0  0  -0.002233  0  3.999587  0  0  0.000409  0  4.019062  0  0  0.010373  -0.003978  0  3.986562  0
C  C65  1  0.84916297  0.22179727  0.99718347  1  0  0.031629  0  3.728514  0  0  -0.002772  0  3.996363  0  0  -0.000169  0  4.015819  0  0  0.009535  -0.004519  0  3.983254  0
C  C66  1  0.93192294  0.72183919  0.49748130  1  0  0.031534  0  3.731808  0  0  -0.00226  0  3.999651  0  0  0.00039  0  4.019117  0  0  0.010358  -0.004005  0  3.986622  0
C  C67  1  0.15083964  0.77820305  0.00281533  1  0  0.031673  0  3.728526  0  0  -0.002709  0  3.99639  0  0  -0.000105  0  4.015849  0  0  0.009565  -0.004457  0  3.983282  0
C  C68  1  0.99972333  0.27029510  0.59798283  1  0  -0.076363  0  3.684391  0  0  -0.119278  0  3.948631  0  0  -0.1188  0  3.967611  0  0  0.001026  -0.119577  0  3.935962  0
C  C69  1  0.86835315  0.22960347  0.90173645  1  0  -0.079223  0  3.683834  0  0  -0.122708  0  3.948962  0  0  -0.122172  0  3.967865  0  0  -0.000609  -0.12295  0  3.935974  0
C  C70  1  0.00027478  0.72970339  0.40201832  1  0  -0.0764  0  3.684397  0  0  -0.119311  0  3.948623  0  0  -0.118835  0  3.967601  0  0  0.000965  -0.119617  0  3.935958  0
C  C71  1  0.13164839  0.77039683  0.09826125  1  0  -0.079225  0  3.683867  0  0  -0.122728  0  3.948988  0  0  -0.122192  0  3.96789  0  0  -0.000619  -0.122967  0  3.936002  0
C  C72  1  0.92267409  0.16162811  0.54290951  1  0  0.167613  0  3.634386  0  0  0.106218  0  3.904678  0  0  0.119668  0  3.91638  0  0  0.150618  0.097604  0  3.896511  0
C  C73  1  0.62748603  0.33839635  0.95689866  1  0  0.167518  0  3.63303  0  0  0.10613  0  3.903133  0  0  0.119576  0  3.914859  0  0  0.150923  0.097442  0  3.895002  0
C  C74  1  0.07732678  0.83837221  0.45708885  1  0  0.167553  0  3.634386  0  0  0.106159  0  3.904677  0  0  0.119611  0  3.916377  0  0  0.150589  0.097542  0  3.896511  0
C  C75  1  0.37251344  0.66160585  0.04309997  1  0  0.16754  0  3.633089  0  0  0.106161  0  3.903187  0  0  0.119608  0  3.914911  0  0  0.150944  0.097484  0  3.895052  0
C  C76  1  0.81616381  0.15275960  0.71550361  1  0  -0.081567  0  3.607104  0  0  -0.150114  0  3.860753  0  0  -0.146625  0  3.872208  0  0  -0.059652  -0.152281  0  3.85303  0
C  C77  1  0.68449853  0.34732833  0.78432753  1  0  -0.084545  0  3.607651  0  0  -0.151029  0  3.858167  0  0  -0.147651  0  3.869795  0  0  -0.060308  -0.153223  0  3.850411  0
C  C78  1  0.18383322  0.84723887  0.28449644  1  0  -0.081498  0  3.606904  0  0  -0.150092  0  3.860569  0  0  -0.146589  0  3.871997  0  0  -0.05966  -0.152261  0  3.85285  0
C  C79  1  0.31550053  0.65267107  0.21567211  1  0  -0.084552  0  3.607609  0  0  -0.151016  0  3.858041  0  0  -0.147643  0  3.869673  0  0  -0.06027  -0.153184  0  3.850257  0
C  C80  1  0.66352593  0.25006857  0.74994845  1  0  0.080913  0  3.502093  0  0  0.094699  0  3.754586  0  0  0.09266  0  3.772282  0  0  -0.006635  0.095944  0  3.742867  0
C  C81  1  0.33647676  0.74993266  0.25004862  1  0  0.080906  0  3.502071  0  0  0.094797  0  3.754397  0  0  0.09277  0  3.772049  0  0  -0.006607  0.096037  0  3.742676  0
C  C82  1  0.56670040  0.32320485  0.67012349  1  0  -0.065454  0  3.552412  0  0  -0.128702  0  3.800587  0  0  -0.125358  0  3.812669  0  0  -0.044843  -0.130696  0  3.792365  0
C  C83  1  0.56007863  0.17695752  0.82989485  1  0  -0.065488  0  3.553459  0  0  -0.128951  0  3.801337  0  0  -0.125689  0  3.813611  0  0  -0.044624  -0.130965  0  3.793022  0
C  C84  1  0.43329493  0.67679735  0.32987492  1  0  -0.065471  0  3.552342  0  0  -0.128667  0  3.800368  0  0  -0.125323  0  3.81245  0  0  -0.044851  -0.130664  0  3.792152  0
C  C85  1  0.43992100  0.82304096  0.17010586  1  0  -0.06541  0  3.55355  0  0  -0.128928  0  3.801419  0  0  -0.125664  0  3.813687  0  0  -0.044624  -0.130944  0  3.793108  0
C  C86  1  0.54368890  0.54960516  0.61835055  1  0  0.175104  0  3.629865  0  0  0.114701  0  3.893565  0  0  0.128582  0  3.905809  0  0  0.145933  0.105695  0  3.88533  0
C  C87  1  0.71161626  0.95050247  0.88174947  1  0  0.177038  0  3.630677  0  0  0.11632  0  3.894142  0  0  0.130233  0  3.906356  0  0  0.147064  0.107304  0  3.88574  0
C  C88  1  0.45630536  0.45039426  0.38164953  1  0  0.175175  0  3.629851  0  0  0.114701  0  3.893581  0  0  0.128579  0  3.905828  0  0  0.145913  0.105694  0  3.885347  0
C  C89  1  0.28838751  0.04949602  0.11825147  1  0  0.17706  0  3.630693  0  0  0.116357  0  3.894109  0  0  0.130261  0  3.906333  0  0  0.147079  0.107339  0  3.885707  0
C  C90  1  0.69261170  0.44297732  0.50946185  1  0  -0.055907  0  3.675642  0  0  -0.10182  0  3.942476  0  0  -0.099926  0  3.962879  0  0  0.001136  -0.10305  0  3.92895  0
C  C91  1  0.64483243  0.05716411  0.99060647  1  0  -0.052975  0  3.673879  0  0  -0.099136  0  3.940772  0  0  -0.097237  0  3.961189  0  0  0.001698  -0.100361  0  3.927014  0
C  C92  1  0.30738326  0.55702305  0.49053914  1  0  -0.056028  0  3.675683  0  0  -0.101975  0  3.942538  0  0  -0.100078  0  3.96294  0  0  0.001059  -0.103206  0  3.929017  0
C  C93  1  0.35517134  0.94283438  0.00939446  1  0  -0.052977  0  3.673786  0  0  -0.099138  0  3.940706  0  0  -0.097239  0  3.961119  0  0  0.001674  -0.100362  0  3.92694  0
C  C94  1  0.68790907  0.56556085  0.47382872  1  0  -0.005501  0  3.751698  0  0  -0.039275  0  4.02118  0  0  -0.038315  0  4.041919  0  0  -0.004414  -0.039759  0  4.00695  0
C  C95  1  0.72685885  0.93451131  0.02634881  1  0  -0.004719  0  3.749005  0  0  -0.038508  0  4.018044  0  0  -0.037564  0  4.038817  0  0  -0.003606  -0.039007  0  4.003832  0
C  C96  1  0.31208548  0.43443672  0.52617328  1  0  -0.005347  0  3.751462  0  0  -0.039104  0  4.02092  0  0  -0.038144  0  4.041661  0  0  -0.004322  -0.039603  0  4.006685  0
C  C97  1  0.27314520  0.06548810  0.97365127  1  0  -0.004694  0  3.748947  0  0  -0.038483  0  4.017977  0  0  -0.037533  0  4.038744  0  0  -0.003558  -0.038949  0  4.003775  0
N  N98  1  0.01892498  0.21008559  0.46938165  1  0  -0.395003  0  3.321846  0  0  -0.31697  0  3.62523  0  0  -0.336632  0  3.63658  0  0  -0.356979  -0.303831  0  3.617631  0
N  N99  1  0.69875962  0.28995272  0.03037037  1  0  -0.395203  0  3.319266  0  0  -0.317055  0  3.622611  0  0  -0.336699  0  3.633985  0  0  -0.356813  -0.303944  0  3.615052  0
N  N100  1  0.98107411  0.78991756  0.53061679  1  0  -0.394942  0  3.321813  0  0  -0.316895  0  3.625172  0  0  -0.336558  0  3.636519  0  0  -0.356937  -0.303755  0  3.617565  0
N  N101  1  0.30124158  0.71004950  0.96962870  1  0  -0.395239  0  3.319443  0  0  -0.317101  0  3.622791  0  0  -0.336746  0  3.634165  0  0  -0.356846  -0.303981  0  3.615224  0
N  N102  1  0.90712500  0.19701757  0.62226679  1  0  -0.056921  0  3.592989  0  0  0.036316  0  3.813757  0  0  0.021996  0  3.840787  0  0  -0.249479  0.045748  0  3.795535  0
N  N103  1  0.72665453  0.30294643  0.87752072  1  0  -0.053026  0  3.589903  0  0  0.039495  0  3.810515  0  0  0.025227  0  3.837535  0  0  -0.247794  0.049005  0  3.792049  0
N  N104  1  0.09287178  0.80298372  0.37773291  1  0  -0.056925  0  3.59297  0  0  0.036314  0  3.813753  0  0  0.021991  0  3.840779  0  0  -0.249445  0.045749  0  3.795531  0
N  N105  1  0.27334676  0.69705669  0.12247662  1  0  -0.053046  0  3.589881  0  0  0.039459  0  3.810495  0  0  0.025193  0  3.837511  0  0  -0.247799  0.048957  0  3.792043  0
N  N106  1  0.60231076  0.43369893  0.60174986  1  0  -0.068749  0  3.563068  0  0  0.026012  0  3.78037  0  0  0.010528  0  3.808224  0  0  -0.244269  0.036174  0  3.761475  0
N  N107  1  0.63780940  0.06646268  0.89826619  1  0  -0.070348  0  3.565451  0  0  0.024459  0  3.783307  0  0  0.008958  0  3.811185  0  0  -0.245046  0.034673  0  3.764335  0
N  N108  1  0.39768524  0.56630049  0.39825066  1  0  -0.068807  0  3.563011  0  0  0.025971  0  3.780308  0  0  0.010482  0  3.808172  0  0  -0.24426  0.036133  0  3.761414  0
N  N109  1  0.36219581  0.93353766  0.10173326  1  0  -0.07041  0  3.565495  0  0  0.024383  0  3.7834  0  0  0.008885  0  3.811268  0  0  -0.24503  0.0346  0  3.764426  0
N  N110  1  0.59448254  0.63105936  0.54251874  1  0  -0.391308  0  3.286176  0  0  -0.314174  0  3.587127  0  0  -0.33371  0  3.598987  0  0  -0.356376  -0.300857  0  3.578902  0
N  N111  1  0.76777627  0.86900137  0.95765965  1  0  -0.392365  0  3.286053  0  0  -0.315214  0  3.587424  0  0  -0.334773  0  3.59926  0  0  -0.356936  -0.301967  0  3.579133  0
N  N112  1  0.40551457  0.36893724  0.45748236  1  0  -0.391366  0  3.286133  0  0  -0.314235  0  3.587138  0  0  -0.333766  0  3.598987  0  0  -0.356371  -0.300917  0  3.578922  0
N  N113  1  0.23222749  0.13099712  0.04234128  1  0  -0.392385  0  3.286043  0  0  -0.315242  0  3.587421  0  0  -0.334808  0  3.599264  0  0  -0.356953  -0.301992  0  3.579117  0
O  O114  1  0.40281024  0.11214831  0.41661124  1  0  -0.863367  0  2.095893  0  0  -0.763227  0  2.41166  0  0  -0.791106  0  2.384183  0  0  -0.38585  -0.743249  0  2.430208  0
O  O115  1  0.93170901  0.38767647  0.08342528  1  0  -0.864432  0  2.095678  0  0  -0.764633  0  2.411851  0  0  -0.792507  0  2.384353  0  0  -0.386449  -0.744771  0  2.430487  0
O  O116  1  0.59719010  0.88785113  0.58339038  1  0  -0.863349  0  2.095915  0  0  -0.763218  0  2.411681  0  0  -0.791095  0  2.384204  0  0  -0.385844  -0.743242  0  2.43023  0
O  O117  1  0.06829277  0.61232482  0.91657486  1  0  -0.86442  0  2.095737  0  0  -0.764613  0  2.411912  0  0  -0.792489  0  2.384419  0  0  -0.386437  -0.744758  0  2.430553  0
O  O118  1  0.28680087  0.04091033  0.32723651  1  0  -0.86306  0  2.075288  0  0  -0.761484  0  2.372701  0  0  -0.789591  0  2.347982  0  0  -0.390566  -0.742234  0  2.388775  0
O  O119  1  0.65504005  0.45917198  0.17264552  1  0  -0.863976  0  2.077464  0  0  -0.762165  0  2.37541  0  0  -0.790138  0  2.350349  0  0  -0.390605  -0.743057  0  2.391814  0
O  O120  1  0.71320058  0.95908630  0.67276568  1  0  -0.863033  0  2.075252  0  0  -0.761446  0  2.372636  0  0  -0.789546  0  2.347913  0  0  -0.390575  -0.742199  0  2.388711  0
O  O121  1  0.34496223  0.54082369  0.82735533  1  0  -0.863986  0  2.07749  0  0  -0.762171  0  2.375425  0  0  -0.790146  0  2.350364  0  0  -0.39059  -0.74307  0  2.391832  0
O  O122  1  0.52544857  0.88817007  0.39119291  1  0  -0.856225  0  1.991535  0  0  -0.763653  0  2.288564  0  0  -0.790972  0  2.26305  0  0  -0.40179  -0.744303  0  2.305226  0
O  O123  1  0.80512351  0.61167628  0.10890038  1  0  -0.856215  0  1.990413  0  0  -0.763728  0  2.287737  0  0  -0.791099  0  2.262295  0  0  -0.401354  -0.744313  0  2.304112  0
O  O124  1  0.47455102  0.11183125  0.60880833  1  0  -0.856276  0  1.991565  0  0  -0.763706  0  2.288595  0  0  -0.791023  0  2.263081  0  0  -0.401839  -0.744357  0  2.305261  0
O  O125  1  0.19487782  0.38832401  0.89109644  1  0  -0.856176  0  1.990388  0  0  -0.763668  0  2.287699  0  0  -0.791042  0  2.262257  0  0  -0.40136  -0.744256  0  2.304075  0
O  O126  1  0.71220042  0.17760065  0.40588932  1  0  -0.875116  0  2.037892  0  0  -0.779053  0  2.339637  0  0  -0.807134  0  2.314314  0  0  -0.394861  -0.759135  0  2.357126  0
O  O127  1  0.29597281  0.32231862  0.09390457  1  0  -0.875268  0  2.038336  0  0  -0.779167  0  2.340396  0  0  -0.807182  0  2.314897  0  0  -0.394884  -0.759336  0  2.357718  0
O  O128  1  0.28779962  0.82240064  0.59411038  1  0  -0.875129  0  2.037842  0  0  -0.779063  0  2.339585  0  0  -0.807146  0  2.314258  0  0  -0.394852  -0.759138  0  2.357068  0
O  O129  1  0.70402847  0.67768450  0.90609278  1  0  -0.875247  0  2.038256  0  0  -0.779127  0  2.340297  0  0  -0.807141  0  2.314796  0  0  -0.394888  -0.759294  0  2.357613  0
O  O130  1  0.97327085  0.13222600  0.29057862  1  0  -0.852769  0  2.059866  0  0  -0.755176  0  2.373916  0  0  -0.783704  0  2.348099  0  0  -0.393193  -0.735529  0  2.390547  0
O  O131  1  0.39639944  0.36766878  0.20910195  1  0  -0.853366  0  2.058602  0  0  -0.755588  0  2.372597  0  0  -0.784122  0  2.34677  0  0  -0.393352  -0.735911  0  2.389175  0
O  O132  1  0.02672741  0.86777811  0.70942116  1  0  -0.852754  0  2.059904  0  0  -0.755138  0  2.373921  0  0  -0.783668  0  2.3481  0  0  -0.39316  -0.735493  0  2.390553  0
O  O133  1  0.60360392  0.63233244  0.79089446  1  0  -0.853247  0  2.058598  0  0  -0.755491  0  2.372604  0  0  -0.784025  0  2.346777  0  0  -0.393293  -0.735817  0  2.389188  0
O  O134  1  0.73702275  0.15470067  0.23724811  1  0  -0.858075  0  2.062004  0  0  -0.758969  0  2.363684  0  0  -0.786955  0  2.33646  0  0  -0.394308  -0.739609  0  2.380782  0
O  O135  1  0.12930697  0.34508713  0.26263269  1  0  -0.860281  0  2.061216  0  0  -0.761138  0  2.36329  0  0  -0.789154  0  2.336028  0  0  -0.395553  -0.741783  0  2.380478  0
O  O136  1  0.26297783  0.84529873  0.76275110  1  0  -0.85813  0  2.062106  0  0  -0.759033  0  2.363807  0  0  -0.787021  0  2.336574  0  0  -0.39433  -0.739668  0  2.380903  0
O  O137  1  0.87069610  0.65491039  0.73736734  1  0  -0.860263  0  2.061376  0  0  -0.761111  0  2.363447  0  0  -0.789128  0  2.336185  0  0  -0.395545  -0.741754  0  2.380632  0
