# generated using pymatgen
data_H14PbC10(N2O3)2
_symmetry_space_group_name_H-M   'P 1'
_cell_length_a   8.19094732
_cell_length_b   8.44483434
_cell_length_c   11.29067196
_cell_angle_alpha   81.53240020
_cell_angle_beta   77.98279814
_cell_angle_gamma   66.43752547
_symmetry_Int_Tables_number   1
_chemical_formula_structural   H14PbC10(N2O3)2
_chemical_formula_sum   'H28 Pb2 C20 N8 O12'
_cell_volume   698.39832446
_cell_formula_units_Z   2
loop_
 _symmetry_equiv_pos_site_id
 _symmetry_equiv_pos_as_xyz
  1  'x, y, z'
loop_
 _atom_site_type_symbol
 _atom_site_label
 _atom_site_symmetry_multiplicity
 _atom_site_fract_x
 _atom_site_fract_y
 _atom_site_fract_z
 _atom_site_occupancy
 _atom_site_hle17_bader_spin_density
 _atom_site_hle17_ddec_charge
 _atom_site_hle17_ddec_spin_density
 _atom_site_hle17_ddec_sum_bond_order
 _atom_site_hle17_magmom
 _atom_site_hse06_10hf_bader_spin_density
 _atom_site_hse06_10hf_ddec_charge
 _atom_site_hse06_10hf_ddec_spin_density
 _atom_site_hse06_10hf_ddec_sum_bond_order
 _atom_site_hse06_10hf_magmom
 _atom_site_hse06_bader_spin_density
 _atom_site_hse06_ddec_charge
 _atom_site_hse06_ddec_spin_density
 _atom_site_hse06_ddec_sum_bond_order
 _atom_site_hse06_magmom
 _atom_site_pbe_bader_spin_density
 _atom_site_pbe_cm5_charge
 _atom_site_pbe_ddec_charge
 _atom_site_pbe_ddec_spin_density
 _atom_site_pbe_ddec_sum_bond_order
 _atom_site_pbe_magmom
H  H0  1  0.92320652  0.99895195  0.78385809  1  0  0.133953  0  0.946225  0  0  0.152059  0  1.005393  0  0  0.154578  0  1.004297  0  0  0.099151  0.150223  0  1.006221  0
H  H1  1  0.07679192  0.00104498  0.21614166  1  0  0.13395  0  0.94621  0  0  0.152037  0  1.005412  0  0  0.154558  0  1.004315  0  0  0.099142  0.150205  0  1.006239  0
H  H2  1  0.92140160  0.21124663  0.77278540  1  0  0.129235  0  0.959344  0  0  0.145392  0  1.026166  0  0  0.147267  0  1.025753  0  0  0.098331  0.143997  0  1.026555  0
H  H3  1  0.07859982  0.78874620  0.22721867  1  0  0.129221  0  0.959269  0  0  0.145382  0  1.026098  0  0  0.147256  0  1.025685  0  0  0.098321  0.143988  0  1.026486  0
H  H4  1  0.98414171  0.07097066  0.90262827  1  0  0.103604  0  0.954094  0  0  0.124243  0  1.015352  0  0  0.125662  0  1.014807  0  0  0.089362  0.123234  0  1.015715  0
H  H5  1  0.01585372  0.92902474  0.09737743  1  0  0.103565  0  0.954173  0  0  0.124232  0  1.015384  0  0  0.12565  0  1.014839  0  0  0.089357  0.123224  0  1.015746  0
H  H6  1  0.30846740  0.18458762  0.78409338  1  0  0.132027  0  0.975441  0  0  0.143918  0  1.032711  0  0  0.147182  0  1.031737  0  0  0.109043  0.141516  0  1.033677  0
H  H7  1  0.69152596  0.81541015  0.21591687  1  0  0.132043  0  0.975517  0  0  0.143894  0  1.032836  0  0  0.147163  0  1.031855  0  0  0.109038  0.141493  0  1.0338  0
H  H8  1  0.60843838  0.27577305  0.88063453  1  0  0.129423  0  0.953042  0  0  0.144583  0  1.020789  0  0  0.147048  0  1.019234  0  0  0.097747  0.142818  0  1.02189  0
H  H9  1  0.39155969  0.72424065  0.11936459  1  0  0.129412  0  0.95298  0  0  0.14454  0  1.020774  0  0  0.147003  0  1.019227  0  0  0.09771  0.142772  0  1.021881  0
H  H10  1  0.50893393  0.12058214  0.90085223  1  0  0.126034  0  0.960984  0  0  0.146901  0  1.020707  0  0  0.147995  0  1.021505  0  0  0.098371  0.146079  0  1.020186  0
H  H11  1  0.49107344  0.87942302  0.09913464  1  0  0.125999  0  0.961011  0  0  0.146897  0  1.020686  0  0  0.147992  0  1.021483  0  0  0.098355  0.146076  0  1.020167  0
H  H12  1  0.67421318  0.09622748  0.98860900  1  0  0.112652  0  0.948792  0  0  0.1325  0  1.011644  0  0  0.133576  0  1.01227  0  0  0.094562  0.131675  0  1.011252  0
H  H13  1  0.32579379  0.90377886  0.01138048  1  0  0.11261  0  0.948786  0  0  0.132454  0  1.01165  0  0  0.133524  0  1.012283  0  0  0.094566  0.131635  0  1.01125  0
H  H14  1  0.15232017  0.28360959  0.02684356  1  0  0.139856  0  0.942913  0  0  0.15126  0  0.998661  0  0  0.154893  0  0.997235  0  0  0.111177  0.148624  0  0.99988  0
H  H15  1  0.84768387  0.71637953  0.97315689  1  0  0.139764  0  0.942817  0  0  0.151156  0  0.998589  0  0  0.154833  0  0.997106  0  0  0.111111  0.148517  0  0.999811  0
H  H16  1  0.19310309  0.81712635  0.63561877  1  0  0.304749  0  0.910714  0  0  0.28443  0  0.972841  0  0  0.293318  0  0.965739  0  0  0.318989  0.278123  0  0.97796  0
H  H17  1  0.80690015  0.18286793  0.36438132  1  0  0.304759  0  0.910732  0  0  0.284452  0  0.972847  0  0  0.293341  0  0.965747  0  0  0.319029  0.278149  0  0.977968  0
H  H18  1  0.57023495  0.36891984  0.13678786  1  0  0.304418  0  0.837901  0  0  0.293666  0  0.884425  0  0  0.299875  0  0.880563  0  0  0.350491  0.289239  0  0.887377  0
H  H19  1  0.42977491  0.63108891  0.86320447  1  0  0.304303  0  0.838124  0  0  0.293544  0  0.884664  0  0  0.299748  0  0.880812  0  0  0.350489  0.289118  0  0.887614  0
H  H20  1  0.01213960  0.18997793  0.47493991  1  0  0.427359  0  0.87829  0  0  0.39059  0  0.951007  0  0  0.403307  0  0.932627  0  0  0.287251  0.381584  0  0.963983  0
H  H21  1  0.98786059  0.81002129  0.52506553  1  0  0.427391  0  0.878247  0  0  0.390628  0  0.950943  0  0  0.403342  0  0.932565  0  0  0.287262  0.38162  0  0.963922  0
H  H22  1  0.83328085  0.15896588  0.55519553  1  0  0.415732  0  0.891251  0  0  0.380653  0  0.961496  0  0  0.392509  0  0.944379  0  0  0.289454  0.372252  0  0.973596  0
H  H23  1  0.16671710  0.84103590  0.44481093  1  0  0.415821  0  0.89114  0  0  0.380744  0  0.96138  0  0  0.3926  0  0.944263  0  0  0.289485  0.372345  0  0.973477  0
H  H24  1  0.66002199  0.53764403  0.30110138  1  0  0.416616  0  0.895889  0  0  0.379918  0  0.969308  0  0  0.39291  0  0.950643  0  0  0.278538  0.370762  0  0.982401  0
H  H25  1  0.33997841  0.46235702  0.69889234  1  0  0.416578  0  0.89594  0  0  0.37987  0  0.969374  0  0  0.392862  0  0.95071  0  0  0.278502  0.370713  0  0.982468  0
H  H26  1  0.47289542  0.70268980  0.34280616  1  0  0.414476  0  0.896326  0  0  0.379536  0  0.967228  0  0  0.390954  0  0.950983  0  0  0.285435  0.371479  0  0.978643  0
H  H27  1  0.52710745  0.29732126  0.65719330  1  0  0.414476  0  0.896314  0  0  0.379584  0  0.967152  0  0  0.391003  0  0.950904  0  0  0.285449  0.371527  0  0.978569  0
Pb  Pb28  1  0.71773464  0.55980548  0.54615798  1  0  1.348739  0  1.422866  0  0  1.157259  0  1.826557  0  0  1.217899  0  1.782174  0  0  0.636181  1.113408  0  1.857519  0
Pb  Pb29  1  0.28227790  0.44020027  0.45384305  1  0  1.348789  0  1.42283  0  0  1.157318  0  1.826517  0  0  1.217961  0  1.782134  0  0  0.636228  1.113477  0  1.857489  0
C  C30  1  0.99367785  0.07583989  0.80365482  1  0  -0.363511  0  3.72247  0  0  -0.438973  0  3.956617  0  0  -0.441956  0  3.962901  0  0  -0.236944  -0.43669  0  3.952159  0
C  C31  1  0.00631839  0.92415954  0.19634682  1  0  -0.363409  0  3.722427  0  0  -0.43891  0  3.956577  0  0  -0.441885  0  3.962848  0  0  -0.236908  -0.436627  0  3.952117  0
C  C32  1  0.18520685  0.01319448  0.74289764  1  0  0.27235  0  3.714756  0  0  0.265841  0  3.979885  0  0  0.275553  0  3.997383  0  0  0.10068  0.25949  0  3.967802  0
C  C33  1  0.81478818  0.98680491  0.25710510  1  0  0.272251  0  3.714958  0  0  0.265798  0  3.980031  0  0  0.275512  0  3.997527  0  0  0.100628  0.259448  0  3.967955  0
C  C34  1  0.32141420  0.07351010  0.74014585  1  0  -0.280003  0  3.707095  0  0  -0.312087  0  3.969191  0  0  -0.320055  0  3.987841  0  0  -0.116512  -0.306869  0  3.956803  0
C  C35  1  0.67858900  0.92648783  0.25985922  1  0  -0.28002  0  3.707153  0  0  -0.31206  0  3.969276  0  0  -0.320016  0  3.987934  0  0  -0.116445  -0.306838  0  3.956875  0
C  C36  1  0.47274555  0.96508956  0.66424598  1  0  0.026247  0  3.836902  0  0  0.021599  0  4.111863  0  0  0.022639  0  4.130171  0  0  0.077787  0.020925  0  4.099421  0
C  C37  1  0.52724692  0.03490709  0.33576099  1  0  0.026339  0  3.836662  0  0  0.021564  0  4.111801  0  0  0.022555  0  4.130168  0  0  0.077799  0.020899  0  4.099351  0
C  C38  1  0.65625244  0.96720696  0.62579598  1  0  0.650452  0  3.916915  0  0  0.586864  0  4.229146  0  0  0.6218  0  4.218953  0  0  0.217988  0.563168  0  4.235278  0
C  C39  1  0.34374665  0.03279852  0.37421350  1  0  0.650439  0  3.916829  0  0  0.586913  0  4.229013  0  0  0.621864  0  4.218815  0  0  0.21799  0.563212  0  4.235144  0
C  C40  1  0.55845299  0.19137745  0.94878112  1  0  -0.360038  0  3.71346  0  0  -0.436696  0  3.949509  0  0  -0.439468  0  3.956577  0  0  -0.235792  -0.434514  0  3.94452  0
C  C41  1  0.44154819  0.80862485  0.05121324  1  0  -0.359914  0  3.713859  0  0  -0.436529  0  3.949837  0  0  -0.439299  0  3.956908  0  0  -0.2357  -0.434354  0  3.944854  0
C  C42  1  0.41433329  0.29044848  0.04443766  1  0  0.263527  0  3.730085  0  0  0.253435  0  4.00375  0  0  0.262558  0  4.022517  0  0  0.098324  0.247499  0  3.990808  0
C  C43  1  0.58565912  0.70956745  0.95557016  1  0  0.263451  0  3.729816  0  0  0.253401  0  4.00343  0  0  0.262526  0  4.022203  0  0  0.098336  0.247462  0  3.990487  0
C  C44  1  0.23061730  0.32333949  0.07385565  1  0  -0.256593  0  3.690581  0  0  -0.287314  0  3.948274  0  0  -0.294949  0  3.966377  0  0  -0.108797  -0.282365  0  3.936193  0
C  C45  1  0.76940232  0.67664103  0.92613239  1  0  -0.25656  0  3.690603  0  0  -0.287234  0  3.948363  0  0  -0.294905  0  3.966443  0  0  -0.10882  -0.282287  0  3.936283  0
C  C46  1  0.16689261  0.42058190  0.17721769  1  0  0.043148  0  3.791935  0  0  0.041074  0  4.055598  0  0  0.042908  0  4.072615  0  0  0.08446  0.039918  0  4.043957  0
C  C47  1  0.83309306  0.57941251  0.82278350  1  0  0.043452  0  3.792061  0  0  0.041204  0  4.055934  0  0  0.043037  0  4.072966  0  0  0.084556  0.040045  0  4.04429  0
C  C48  1  0.98436505  0.48120119  0.25430014  1  0  0.645296  0  3.923115  0  0  0.593552  0  4.219938  0  0  0.628303  0  4.210785  0  0  0.212614  0.569937  0  4.225273  0
C  C49  1  0.01563121  0.51878464  0.74568948  1  0  0.645113  0  3.923096  0  0  0.593442  0  4.219908  0  0  0.62819  0  4.210756  0  0  0.212641  0.569829  0  4.225238  0
N  N50  1  0.43180247  0.84615211  0.62254767  1  0  -0.278593  0  3.089046  0  0  -0.246057  0  3.36347  0  0  -0.25831  0  3.383851  0  0  -0.221528  -0.237335  0  3.349389  0
N  N51  1  0.56820088  0.15384848  0.37745536  1  0  -0.278654  0  3.088736  0  0  -0.246077  0  3.363242  0  0  -0.258316  0  3.383637  0  0  -0.221564  -0.237358  0  3.349167  0
N  N52  1  0.25949893  0.87573960  0.67261878  1  0  -0.191369  0  3.439691  0  0  -0.137034  0  3.680114  0  0  -0.148748  0  3.696114  0  0  -0.271988  -0.129267  0  3.669271  0
N  N53  1  0.74050378  0.12426241  0.32738156  1  0  -0.191297  0  3.439544  0  0  -0.137014  0  3.679991  0  0  -0.14873  0  3.695985  0  0  -0.271962  -0.12925  0  3.66916  0
N  N54  1  0.30236271  0.44896035  0.20897116  1  0  -0.285013  0  3.08558  0  0  -0.254693  0  3.362165  0  0  -0.265962  0  3.380527  0  0  -0.222473  -0.246693  0  3.349525  0
N  N55  1  0.69764011  0.55103155  0.79102479  1  0  -0.285192  0  3.08579  0  0  -0.254839  0  3.362461  0  0  -0.26611  0  3.380823  0  0  -0.222537  -0.246838  0  3.34982  0
N  N56  1  0.44887056  0.36992439  0.12769282  1  0  -0.195365  0  3.478037  0  0  -0.144601  0  3.72503  0  0  -0.156198  0  3.742726  0  0  -0.27384  -0.136948  0  3.713036  0
N  N57  1  0.55112067  0.63007430  0.87229820  1  0  -0.195212  0  3.477615  0  0  -0.144426  0  3.724565  0  0  -0.156023  0  3.742254  0  0  -0.273852  -0.136773  0  3.712569  0
O  O58  1  0.77446911  0.84395359  0.56432107  1  0  -0.645822  0  2.042364  0  0  -0.575246  0  2.28093  0  0  -0.605033  0  2.273423  0  0  -0.292968  -0.55437  0  2.285444  0
O  O59  1  0.22552882  0.15605461  0.43568568  1  0  -0.64575  0  2.042292  0  0  -0.575191  0  2.280856  0  0  -0.604979  0  2.273338  0  0  -0.292951  -0.554346  0  2.285454  0
O  O60  1  0.68574081  0.09186522  0.65587092  1  0  -0.641353  0  2.024282  0  0  -0.569796  0  2.248386  0  0  -0.595493  0  2.237227  0  0  -0.308076  -0.551864  0  2.25557  0
O  O61  1  0.31425436  0.90814044  0.34413563  1  0  -0.641441  0  2.024047  0  0  -0.569863  0  2.248112  0  0  -0.595556  0  2.236941  0  0  -0.308129  -0.551931  0  2.255302  0
O  O62  1  0.97265816  0.54166527  0.35494931  1  0  -0.685415  0  2.0096  0  0  -0.607227  0  2.248925  0  0  -0.640137  0  2.242812  0  0  -0.2971  -0.583999  0  2.252354  0
O  O63  1  0.02734273  0.45834092  0.64504473  1  0  -0.685114  0  2.009978  0  0  -0.606995  0  2.249347  0  0  -0.639902  0  2.243233  0  0  -0.296997  -0.583773  0  2.252775  0
O  O64  1  0.85590875  0.46827572  0.21552742  1  0  -0.621991  0  1.914871  0  0  -0.573078  0  2.133842  0  0  -0.596412  0  2.122652  0  0  -0.326894  -0.556735  0  2.140997  0
O  O65  1  0.14407751  0.53170809  0.78448000  1  0  -0.622147  0  1.914661  0  0  -0.573229  0  2.13361  0  0  -0.596559  0  2.122412  0  0  -0.327036  -0.556882  0  2.14075  0
O  O66  1  0.87636628  0.23197103  0.48824447  1  0  -0.846828  0  1.871392  0  0  -0.775593  0  2.055858  0  0  -0.800675  0  2.023587  0  0  -0.562075  -0.757755  0  2.078347  0
O  O67  1  0.12363584  0.76802314  0.51175847  1  0  -0.846927  0  1.871316  0  0  -0.775681  0  2.055794  0  0  -0.800764  0  2.023527  0  0  -0.562094  -0.757848  0  2.078279  0
O  O68  1  0.54322495  0.57690677  0.36179910  1  0  -0.888062  0  1.857859  0  0  -0.810941  0  2.054199  0  0  -0.839408  0  2.022159  0  0  -0.560996  -0.790597  0  2.076325  0
O  O69  1  0.45677343  0.42310585  0.63819564  1  0  -0.888027  0  1.857983  0  0  -0.810941  0  2.054258  0  0  -0.839406  0  2.022218  0  0  -0.560952  -0.790599  0  2.076385  0
