# generated using pymatgen
data_CaH14(C7O4)2
_symmetry_space_group_name_H-M   'P 1'
_cell_length_a   7.54055520
_cell_length_b   9.99712306
_cell_length_c   9.99711134
_cell_angle_alpha   70.19517252
_cell_angle_beta   88.74821668
_cell_angle_gamma   88.74827971
_symmetry_Int_Tables_number   1
_chemical_formula_structural   CaH14(C7O4)2
_chemical_formula_sum   'Ca2 H28 C28 O16'
_cell_volume   708.79304395
_cell_formula_units_Z   2
loop_
 _symmetry_equiv_pos_site_id
 _symmetry_equiv_pos_as_xyz
  1  'x, y, z'
loop_
 _atom_site_type_symbol
 _atom_site_label
 _atom_site_symmetry_multiplicity
 _atom_site_fract_x
 _atom_site_fract_y
 _atom_site_fract_z
 _atom_site_occupancy
 _atom_site_hle17_bader_spin_density
 _atom_site_hle17_ddec_charge
 _atom_site_hle17_ddec_spin_density
 _atom_site_hle17_ddec_sum_bond_order
 _atom_site_hle17_magmom
 _atom_site_hse06_10hf_bader_spin_density
 _atom_site_hse06_10hf_ddec_charge
 _atom_site_hse06_10hf_ddec_spin_density
 _atom_site_hse06_10hf_ddec_sum_bond_order
 _atom_site_hse06_10hf_magmom
 _atom_site_hse06_bader_spin_density
 _atom_site_hse06_ddec_charge
 _atom_site_hse06_ddec_spin_density
 _atom_site_hse06_ddec_sum_bond_order
 _atom_site_hse06_magmom
 _atom_site_pbe_bader_spin_density
 _atom_site_pbe_cm5_charge
 _atom_site_pbe_ddec_charge
 _atom_site_pbe_ddec_spin_density
 _atom_site_pbe_ddec_sum_bond_order
 _atom_site_pbe_magmom
Ca  Ca0  1  0.24999905  0.94344991  0.05655049  1  0  1.573138  0  1.03931  0  0  1.437931  0  1.386948  0  0  1.481726  0  1.34199  0  0  0.867651  1.404514  0  1.419506  0
Ca  Ca1  1  0.74999825  0.05655149  0.94344919  1  0  1.57315  0  1.039303  0  0  1.437942  0  1.386942  0  0  1.481742  0  1.341982  0  0  0.867659  1.40452  0  1.419507  0
H  H2  1  0.16555115  0.94232745  0.36490766  1  0  0.43388  0  0.861947  0  0  0.402437  0  0.925642  0  0  0.412708  0  0.910733  0  0  0.301019  0.394877  0  0.936688  0
H  H3  1  0.33444726  0.63509332  0.05767074  1  0  0.433903  0  0.86191  0  0  0.402466  0  0.925596  0  0  0.412736  0  0.910687  0  0  0.301048  0.394902  0  0.936647  0
H  H4  1  0.83444883  0.05767289  0.63509333  1  0  0.433888  0  0.861935  0  0  0.402444  0  0.925634  0  0  0.412715  0  0.910724  0  0  0.301029  0.394885  0  0.936678  0
H  H5  1  0.66555006  0.36490701  0.94232830  1  0  0.433875  0  0.861957  0  0  0.402434  0  0.92565  0  0  0.412704  0  0.910741  0  0  0.301023  0.394871  0  0.936701  0
H  H6  1  0.99731416  0.95093652  0.26989618  1  0  0.425826  0  0.873589  0  0  0.393682  0  0.939608  0  0  0.404373  0  0.923871  0  0  0.30289  0.385996  0  0.950951  0
H  H7  1  0.50268433  0.73010467  0.04906293  1  0  0.42584  0  0.873571  0  0  0.39369  0  0.9396  0  0  0.404382  0  0.923861  0  0  0.302902  0.386005  0  0.950942  0
H  H8  1  0.00268580  0.04906488  0.73010344  1  0  0.4258  0  0.873624  0  0  0.39366  0  0.939637  0  0  0.40435  0  0.9239  0  0  0.302882  0.385973  0  0.950983  0
H  H9  1  0.49731300  0.26989566  0.95093611  1  0  0.425836  0  0.873566  0  0  0.393679  0  0.93961  0  0  0.40437  0  0.923872  0  0  0.302886  0.385992  0  0.950955  0
H  H10  1  0.20637051  0.96207648  0.61306836  1  0  0.385674  0  0.892238  0  0  0.357701  0  0.965554  0  0  0.368617  0  0.954162  0  0  0.308448  0.349997  0  0.973499  0
H  H11  1  0.29362896  0.38692989  0.03792401  1  0  0.385618  0  0.892302  0  0  0.357637  0  0.965631  0  0  0.368553  0  0.954237  0  0  0.308416  0.349932  0  0.973575  0
H  H12  1  0.79363079  0.03792385  0.38693061  1  0  0.385671  0  0.892281  0  0  0.357717  0  0.965556  0  0  0.368633  0  0.954163  0  0  0.308452  0.350018  0  0.973482  0
H  H13  1  0.70636971  0.61306938  0.96207637  1  0  0.38563  0  0.892302  0  0  0.357663  0  0.965605  0  0  0.368578  0  0.954212  0  0  0.308434  0.349958  0  0.973549  0
H  H14  1  0.33627372  0.16803774  0.25896024  1  0  0.120385  0  0.973752  0  0  0.127165  0  1.039918  0  0  0.131423  0  1.037492  0  0  0.109242  0.124199  0  1.041648  0
H  H15  1  0.16372876  0.74103942  0.83196323  1  0  0.120356  0  0.973813  0  0  0.127157  0  1.039951  0  0  0.131424  0  1.037514  0  0  0.109233  0.124173  0  1.041716  0
H  H16  1  0.66372759  0.83196260  0.74104072  1  0  0.120341  0  0.973788  0  0  0.127145  0  1.039928  0  0  0.131402  0  1.037504  0  0  0.109224  0.124161  0  1.04169  0
H  H17  1  0.83627257  0.25895986  0.16803810  1  0  0.120388  0  0.973762  0  0  0.127175  0  1.039917  0  0  0.131435  0  1.037491  0  0  0.109229  0.124193  0  1.04167  0
H  H18  1  0.52432631  0.37956895  0.21552476  1  0  0.087449  0  0.963605  0  0  0.098594  0  1.022091  0  0  0.101628  0  1.019679  0  0  0.10047  0.096299  0  1.024035  0
H  H19  1  0.97567541  0.78447528  0.62043200  1  0  0.087414  0  0.963648  0  0  0.098572  0  1.022123  0  0  0.101608  0  1.019708  0  0  0.100453  0.096275  0  1.024071  0
H  H20  1  0.47567632  0.62043139  0.78447618  1  0  0.087436  0  0.963613  0  0  0.098588  0  1.0221  0  0  0.101622  0  1.019687  0  0  0.100463  0.09629  0  1.024055  0
H  H21  1  0.02432590  0.21552506  0.37956896  1  0  0.087452  0  0.963602  0  0  0.0986  0  1.022088  0  0  0.101636  0  1.019675  0  0  0.100469  0.096304  0  1.024035  0
H  H22  1  0.63843895  0.44255137  0.41798773  1  0  0.090883  0  0.958748  0  0  0.102317  0  1.018488  0  0  0.104325  0  1.019974  0  0  0.098355  0.100558  0  1.018489  0
H  H23  1  0.86156149  0.58201274  0.55744916  1  0  0.090913  0  0.958733  0  0  0.102354  0  1.018462  0  0  0.104363  0  1.019947  0  0  0.098363  0.100595  0  1.018466  0
H  H24  1  0.36156238  0.55744790  0.58201260  1  0  0.090894  0  0.958695  0  0  0.102333  0  1.018429  0  0  0.104341  0  1.019916  0  0  0.098359  0.100576  0  1.018439  0
H  H25  1  0.13843847  0.41798866  0.44255046  1  0  0.090921  0  0.958741  0  0  0.102337  0  1.018496  0  0  0.104345  0  1.019982  0  0  0.098359  0.100579  0  1.018507  0
H  H26  1  0.56443451  0.28921653  0.66683403  1  0  0.096518  0  0.961244  0  0  0.106706  0  1.023677  0  0  0.109988  0  1.020871  0  0  0.11073  0.104176  0  1.02622  0
H  H27  1  0.93556486  0.33316558  0.71078221  1  0  0.096534  0  0.961235  0  0  0.106729  0  1.023654  0  0  0.11001  0  1.020856  0  0  0.110738  0.104203  0  1.0262  0
H  H28  1  0.43556814  0.71078275  0.33316627  1  0  0.096549  0  0.961273  0  0  0.10674  0  1.023698  0  0  0.110023  0  1.020893  0  0  0.110742  0.104211  0  1.026239  0
H  H29  1  0.06443379  0.66683475  0.28921681  1  0  0.096526  0  0.961244  0  0  0.106715  0  1.023673  0  0  0.109997  0  1.020871  0  0  0.110734  0.104186  0  1.026215  0
C  C30  1  0.40698360  0.14467270  0.60313175  1  0  -0.225439  0  3.779877  0  0  -0.208046  0  4.02199  0  0  -0.221721  0  4.044496  0  0  -0.039176  -0.199265  0  4.007243  0
C  C31  1  0.09301550  0.39686768  0.85532480  1  0  -0.225375  0  3.779978  0  0  -0.207981  0  4.022032  0  0  -0.22165  0  4.044535  0  0  -0.039174  -0.199194  0  4.007275  0
C  C32  1  0.59301773  0.85532657  0.39686958  1  0  -0.225402  0  3.779824  0  0  -0.20797  0  4.0219  0  0  -0.221642  0  4.044404  0  0  -0.039153  -0.199179  0  4.007128  0
C  C33  1  0.90698450  0.60313159  0.14467455  1  0  -0.2254  0  3.779944  0  0  -0.208  0  4.022019  0  0  -0.221671  0  4.044522  0  0  -0.039182  -0.199216  0  4.007256  0
C  C34  1  0.34027562  0.11264251  0.48655807  1  0  0.327158  0  3.800033  0  0  0.309403  0  4.062607  0  0  0.322931  0  4.078835  0  0  0.085993  0.30035  0  4.051591  0
C  C35  1  0.15972553  0.51344033  0.88735823  1  0  0.327195  0  3.799979  0  0  0.30943  0  4.06256  0  0  0.322957  0  4.078792  0  0  0.086019  0.300392  0  4.051532  0
C  C36  1  0.65972568  0.88735782  0.51344090  1  0  0.327205  0  3.799936  0  0  0.309398  0  4.062582  0  0  0.322924  0  4.078812  0  0  0.086005  0.300352  0  4.051553  0
C  C37  1  0.84027447  0.48655894  0.11264112  1  0  0.327172  0  3.800022  0  0  0.309384  0  4.062628  0  0  0.322913  0  4.078857  0  0  0.085987  0.300338  0  4.051603  0
C  C38  1  0.38741639  0.19493355  0.34759920  1  0  -0.203857  0  3.725549  0  0  -0.226053  0  3.98808  0  0  -0.233949  0  4.006748  0  0  -0.108533  -0.220274  0  3.974582  0
C  C39  1  0.11258599  0.65240110  0.80506724  1  0  -0.203866  0  3.725509  0  0  -0.226077  0  3.988036  0  0  -0.233982  0  4.006702  0  0  -0.108538  -0.220309  0  3.974593  0
C  C40  1  0.61258492  0.80506679  0.65240176  1  0  -0.203776  0  3.725414  0  0  -0.225975  0  3.987949  0  0  -0.233871  0  4.006619  0  0  -0.108489  -0.220192  0  3.97448  0
C  C41  1  0.88741532  0.34759924  0.19493372  1  0  -0.203876  0  3.72553  0  0  -0.226066  0  3.988058  0  0  -0.233963  0  4.006727  0  0  -0.108529  -0.220283  0  3.974578  0
C  C42  1  0.49269018  0.31325458  0.32429069  1  0  -0.011985  0  3.749483  0  0  -0.028495  0  4.003585  0  0  -0.024267  0  4.021287  0  0  -0.081622  -0.030569  0  3.990874  0
C  C43  1  0.00731039  0.67570992  0.68674711  1  0  -0.011877  0  3.749389  0  0  -0.028399  0  4.003502  0  0  -0.024163  0  4.021188  0  0  -0.081567  -0.030463  0  3.990785  0
C  C44  1  0.50731112  0.68674575  0.67570827  1  0  -0.012057  0  3.749482  0  0  -0.028584  0  4.003621  0  0  -0.024356  0  4.021324  0  0  -0.081684  -0.03066  0  3.990926  0
C  C45  1  0.99268957  0.32429148  0.31325352  1  0  -0.011968  0  3.749502  0  0  -0.028488  0  4.00361  0  0  -0.024257  0  4.021305  0  0  -0.081615  -0.030556  0  3.990895  0
C  C46  1  0.55648733  0.34917100  0.43810342  1  0  -0.104453  0  3.781666  0  0  -0.120816  0  4.036856  0  0  -0.127172  0  4.059659  0  0  -0.1021  -0.116755  0  4.022689  0
C  C47  1  0.94351409  0.56189559  0.65082927  1  0  -0.104531  0  3.781676  0  0  -0.120901  0  4.036868  0  0  -0.127254  0  4.059671  0  0  -0.10212  -0.116836  0  4.022704  0
C  C48  1  0.44351529  0.65083041  0.56189815  1  0  -0.10444  0  3.781613  0  0  -0.120807  0  4.036807  0  0  -0.127161  0  4.059611  0  0  -0.102088  -0.116748  0  4.022656  0
C  C49  1  0.05648591  0.43810368  0.34917108  1  0  -0.104517  0  3.781723  0  0  -0.120863  0  4.036908  0  0  -0.127217  0  4.059711  0  0  -0.10211  -0.116812  0  4.02276  0
C  C50  1  0.51552005  0.26400734  0.57641828  1  0  -0.03781  0  3.746343  0  0  -0.059774  0  3.994056  0  0  -0.055582  0  4.01213  0  0  -0.077819  -0.062827  0  3.982911  0
C  C51  1  0.98448238  0.42358235  0.73599151  1  0  -0.037856  0  3.746498  0  0  -0.059834  0  3.994208  0  0  -0.055649  0  4.012287  0  0  -0.077847  -0.062894  0  3.983073  0
C  C52  1  0.48447994  0.73599193  0.42358107  1  0  -0.037883  0  3.746358  0  0  -0.059859  0  3.99407  0  0  -0.055671  0  4.012146  0  0  -0.077847  -0.062913  0  3.982922  0
C  C53  1  0.01551892  0.57641799  0.26400645  1  0  -0.037816  0  3.746458  0  0  -0.05979  0  3.994157  0  0  -0.055602  0  4.012233  0  0  -0.077822  -0.062844  0  3.983014  0
C  C54  1  0.36171336  0.05405370  0.74988267  1  0  0.67961  0  3.894672  0  0  0.626669  0  4.187852  0  0  0.66239  0  4.179135  0  0  0.221572  0.6025  0  4.192807  0
C  C55  1  0.13829170  0.25011667  0.94594775  1  0  0.679468  0  3.894851  0  0  0.626609  0  4.187912  0  0  0.662332  0  4.179192  0  0  0.221517  0.602438  0  4.192862  0
C  C56  1  0.63828794  0.94594664  0.25011629  1  0  0.679616  0  3.894651  0  0  0.626688  0  4.187807  0  0  0.66241  0  4.179089  0  0  0.22158  0.602517  0  4.192751  0
C  C57  1  0.86170697  0.74988259  0.05405262  1  0  0.679528  0  3.894709  0  0  0.626644  0  4.187812  0  0  0.662366  0  4.179092  0  0  0.22153  0.602478  0  4.192755  0
O  O58  1  0.12339449  0.92078446  0.28180406  1  0  -0.884585  0  1.79821  0  0  -0.830789  0  1.985088  0  0  -0.850996  0  1.952861  0  0  -0.628058  -0.815767  0  2.008591  0
O  O59  1  0.37660170  0.71819728  0.07921335  1  0  -0.884612  0  1.798158  0  0  -0.830813  0  1.98504  0  0  -0.851018  0  1.952812  0  0  -0.628083  -0.815788  0  2.008542  0
O  O60  1  0.87660682  0.07921588  0.71819690  1  0  -0.884573  0  1.79822  0  0  -0.830782  0  1.985102  0  0  -0.850991  0  1.952875  0  0  -0.62806  -0.815759  0  2.008608  0
O  O61  1  0.62339427  0.28180411  0.92078535  1  0  -0.88458  0  1.798189  0  0  -0.830779  0  1.985074  0  0  -0.850984  0  1.952847  0  0  -0.628045  -0.815745  0  2.008578  0
O  O62  1  0.22454267  0.97353840  0.77122395  1  0  -0.685677  0  2.004903  0  0  -0.617893  0  2.225384  0  0  -0.643585  0  2.214638  0  0  -0.310102  -0.599688  0  2.232284  0
O  O63  1  0.27545236  0.22877428  0.02645916  1  0  -0.685642  0  2.005169  0  0  -0.617848  0  2.225597  0  0  -0.643537  0  2.214847  0  0  -0.310076  -0.599649  0  2.232505  0
O  O64  1  0.77545733  0.02646087  0.22877540  1  0  -0.685694  0  2.004945  0  0  -0.617919  0  2.225419  0  0  -0.643611  0  2.214671  0  0  -0.310112  -0.599727  0  2.232331  0
O  O65  1  0.72454633  0.77122392  0.97354058  1  0  -0.685657  0  2.005105  0  0  -0.617874  0  2.22555  0  0  -0.643563  0  2.214801  0  0  -0.310077  -0.599671  0  2.232441  0
O  O66  1  0.45455085  0.05572801  0.85445802  1  0  -0.735629  0  2.020998  0  0  -0.667779  0  2.273952  0  0  -0.697109  0  2.265014  0  0  -0.382968  -0.646888  0  2.279338  0
O  O67  1  0.04544605  0.14553743  0.94426976  1  0  -0.735576  0  2.020902  0  0  -0.667799  0  2.273838  0  0  -0.697131  0  2.264903  0  0  -0.382968  -0.646909  0  2.279228  0
O  O68  1  0.54544783  0.94427126  0.14554235  1  0  -0.735631  0  2.020967  0  0  -0.667794  0  2.273907  0  0  -0.697123  0  2.264969  0  0  -0.382978  -0.646911  0  2.279295  0
O  O69  1  0.95455127  0.85446290  0.05572928  1  0  -0.735623  0  2.020887  0  0  -0.667795  0  2.273782  0  0  -0.697127  0  2.264847  0  0  -0.382962  -0.646907  0  2.279166  0
O  O70  1  0.22871272  0.00164728  0.50689138  1  0  -0.544506  0  2.171299  0  0  -0.483987  0  2.387488  0  0  -0.504866  0  2.379105  0  0  -0.342166  -0.469164  0  2.393606  0
O  O71  1  0.27128664  0.49310958  0.99835355  1  0  -0.544468  0  2.171329  0  0  -0.483948  0  2.387526  0  0  -0.504829  0  2.379147  0  0  -0.342129  -0.469118  0  2.393618  0
O  O72  1  0.77128724  0.99835412  0.49310925  1  0  -0.544534  0  2.171336  0  0  -0.484011  0  2.387552  0  0  -0.504891  0  2.379167  0  0  -0.342176  -0.46919  0  2.393647  0
O  O73  1  0.72871336  0.50688969  0.00164680  1  0  -0.544467  0  2.171385  0  0  -0.483942  0  2.387586  0  0  -0.504821  0  2.379204  0  0  -0.342131  -0.469116  0  2.393687  0
