# generated using pymatgen
data_ZnH8C14NO6
_symmetry_space_group_name_H-M   'P 1'
_cell_length_a   11.03907260
_cell_length_b   11.09423174
_cell_length_c   13.97667630
_cell_angle_alpha   81.13922400
_cell_angle_beta   89.19006324
_cell_angle_gamma   86.01736962
_symmetry_Int_Tables_number   1
_chemical_formula_structural   ZnH8C14NO6
_chemical_formula_sum   'Zn4 H32 C56 N4 O24'
_cell_volume   1687.20099034
_cell_formula_units_Z   4
loop_
 _symmetry_equiv_pos_site_id
 _symmetry_equiv_pos_as_xyz
  1  'x, y, z'
loop_
 _atom_site_type_symbol
 _atom_site_label
 _atom_site_symmetry_multiplicity
 _atom_site_fract_x
 _atom_site_fract_y
 _atom_site_fract_z
 _atom_site_occupancy
 _atom_site_pbe_bader_charge
 _atom_site_pbe_bader_spin_density
 _atom_site_pbe_cm5_charge
 _atom_site_pbe_ddec_charge
 _atom_site_pbe_ddec_spin_density
 _atom_site_pbe_ddec_sum_bond_order
 _atom_site_pbe_magmom
Zn  Zn0  1  0.72477849  0.66370017  0.60937436  1  1.290985  0  0.670698  0.824718  0  2.398451  0
Zn  Zn1  1  0.72429651  0.62138833  0.81689658  1  1.294139  0  0.669922  0.813772  0  2.438105  0
Zn  Zn2  1  0.27522451  0.33630185  0.39062660  1  1.290962  0  0.670653  0.824672  0  2.39839  0
Zn  Zn3  1  0.27570750  0.37861183  0.18310530  1  1.294114  0  0.669874  0.81371  0  2.438252  0
H  H4  1  0.53904672  0.64479825  0.46298123  1  0.135494  0  0.126471  0.10517  0  0.991074  0
H  H5  1  0.53057899  0.62802522  0.28864901  1  0.121945  0  0.111673  0.120326  0  1.017172  0
H  H6  1  0.53613699  0.63074407  0.96942387  1  0.153236  0  0.124182  0.103816  0  1.008635  0
H  H7  1  0.92098320  0.62440076  0.14286352  1  0.095089  0  0.113296  0.122755  0  0.999351  0
H  H8  1  0.90816232  0.68964115  0.45022450  1  0.141792  0  0.127636  0.103712  0  0.984034  0
H  H9  1  0.78458789  0.28499641  0.57359112  1  0.110262  0  0.100926  0.10965  0  1.036475  0
H  H10  1  0.52620210  0.64927486  0.14305837  1  0.117308  0  0.110471  0.118593  0  1.037824  0
H  H11  1  0.11572128  0.64097185  0.56373406  1  0.066848  0  0.102591  0.109226  0  1.015069  0
H  H12  1  0.91669344  0.67988478  0.27422823  1  0.07237  0  0.11436  0.122528  0  0.993962  0
H  H13  1  0.78028365  0.06246847  0.56346227  1  0.099235  0  0.108852  0.121438  0  0.98864  0
H  H14  1  0.91229040  0.61134082  0.96769848  1  0.151126  0  0.122656  0.101503  0  1.015982  0
H  H15  1  0.34129379  0.65049219  0.56398717  1  0.10246  0  0.103122  0.109414  0  1.021826  0
H  H16  1  0.19843503  0.79622578  0.94958442  1  0.038734  0  0.110181  0.053155  0  0.958628  0
H  H17  1  0.21739522  0.64187497  0.01654739  1  0.142295  0  0.123299  0.08881  0  0.981409  0
H  H18  1  0.63401231  0.07218682  0.01051712  1  0.080095  0  0.123348  0.073779  0  0.95288  0
H  H19  1  0.50359679  0.10394188  0.92987272  1  0.043762  0  0.107495  0.047713  0  0.977245  0
H  H20  1  0.46096092  0.35520185  0.53702419  1  0.135566  0  0.126483  0.10518  0  0.991195  0
H  H21  1  0.46942312  0.37197678  0.71135769  1  0.122953  0  0.111616  0.120231  0  1.017323  0
H  H22  1  0.46385673  0.36924526  0.03058443  1  0.153308  0  0.124161  0.103849  0  1.008577  0
H  H23  1  0.07901318  0.37558947  0.85713892  1  0.095014  0  0.113295  0.122778  0  0.999382  0
H  H24  1  0.09184661  0.31035165  0.54977605  1  0.142031  0  0.127609  0.103665  0  0.984076  0
H  H25  1  0.21541209  0.71501115  0.42640636  1  0.110402  0  0.100896  0.109591  0  1.036486  0
H  H26  1  0.47379554  0.35070893  0.85695055  1  0.117356  0  0.110427  0.118518  0  1.037815  0
H  H27  1  0.88428231  0.35901919  0.43626891  1  0.06675  0  0.102569  0.109204  0  1.015188  0
H  H28  1  0.08330853  0.32010264  0.72577305  1  0.072253  0  0.114332  0.122556  0  0.993905  0
H  H29  1  0.21972434  0.93754173  0.43653051  1  0.099154  0  0.108893  0.121448  0  0.988584  0
H  H30  1  0.08770365  0.38864213  0.03230629  1  0.151038  0  0.12262  0.101455  0  1.016045  0
H  H31  1  0.65870415  0.34951992  0.43601766  1  0.102439  0  0.103147  0.10951  0  1.02176  0
H  H32  1  0.80155312  0.20378286  0.05041451  1  0.038619  0  0.110221  0.053268  0  0.958721  0
H  H33  1  0.78260729  0.35813619  0.98345249  1  0.142669  0  0.123354  0.088875  0  0.981566  0
H  H34  1  0.36597773  0.92780269  0.98946903  1  0.079859  0  0.123341  0.073768  0  0.952727  0
H  H35  1  0.49638310  0.89606872  0.07012392  1  0.044111  0  0.107494  0.047724  0  0.977169  0
C  C36  1  0.72573535  0.40336283  0.72337583  1  1.567599  0  0.204379  0.591144  0  4.209574  0
C  C37  1  0.72411678  0.26923346  0.72100564  1  0.053002  0  -0.032058  -0.133299  0  4.013681  0
C  C38  1  0.96038064  0.63694032  0.71356647  1  1.603161  0  0.213096  0.602934  0  4.186484  0
C  C39  1  0.68697594  0.06016880  0.79398428  1  0.434924  0  0.076949  0.137666  0  4.033193  0
C  C40  1  0.72373939  0.64181309  0.15995534  1  -0.083278  0  0.012722  0.094384  0  3.979909  0
C  C41  1  0.15655263  0.66221138  0.79843690  1  0.474094  0  0.076423  0.132231  0  4.04525  0
C  C42  1  0.62017311  0.65202172  0.41766230  1  0.485014  0  0.061841  0.109972  0  3.901191  0
C  C43  1  0.61671570  0.64401632  0.31970269  1  -0.004219  0  -0.073439  -0.159736  0  3.927093  0
C  C44  1  0.72343643  0.65314247  0.26398460  1  -0.101672  0  0.016768  0.104305  0  3.973937  0
C  C45  1  0.09378139  0.64996294  0.71523086  1  0.047096  0  -0.025235  -0.117979  0  3.985022  0
C  C46  1  0.61881555  0.63024961  0.01142022  1  0.442571  0  0.057593  0.108106  0  3.891286  0
C  C47  1  0.83273710  0.62982217  0.10807724  1  -0.025303  0  -0.076014  -0.163688  0  3.935829  0
C  C48  1  0.82676057  0.67741746  0.41046868  1  0.442264  0  0.059369  0.104573  0  3.918315  0
C  C49  1  0.75740635  0.22076974  0.63566204  1  -0.081119  0  -0.101692  -0.119275  0  4.028089  0
C  C50  1  0.61501335  0.64142691  0.10894862  1  0.037856  0  -0.07814  -0.166142  0  3.929908  0
C  C51  1  0.68852593  0.18520655  0.79903469  1  0.395178  0  0.072786  0.126788  0  4.044587  0
C  C52  1  0.28305128  0.66911299  0.79848620  1  0.390822  0  0.077914  0.134974  0  4.040036  0
C  C53  1  0.16377617  0.64891894  0.62971038  1  -0.000523  0  -0.09708  -0.112741  0  4.025148  0
C  C54  1  0.48786729  0.65644208  0.71454884  1  1.565678  0  0.213006  0.6022  0  4.185605  0
C  C55  1  0.35264580  0.66245978  0.71530418  1  0.059047  0  -0.026959  -0.123544  0  3.983967  0
C  C56  1  0.72055342  0.01238233  0.71031751  1  0.01969  0  -0.019285  -0.103874  0  3.965413  0
C  C57  1  0.83008446  0.67122424  0.31203983  1  0.061454  0  -0.073758  -0.164998  0  3.936213  0
C  C58  1  0.75518338  0.09735820  0.63023060  1  0.009412  0  -0.092404  -0.103725  0  4.007039  0
C  C59  1  0.82952865  0.61967487  0.01045780  1  0.488657  0  0.053667  0.099371  0  3.910129  0
C  C60  1  0.28837241  0.65442958  0.62983302  1  -0.054442  0  -0.095818  -0.108275  0  4.025378  0
C  C61  1  0.72286110  0.87869523  0.70484655  1  1.610765  0  0.211926  0.604108  0  4.18639  0
C  C62  1  0.21140173  0.69768688  0.94464011  1  0.85179  0  0.03703  0.171957  0  3.821324  0
C  C63  1  0.60390814  0.09366349  0.93487147  1  0.887478  0  0.038848  0.171938  0  3.863524  0
C  C64  1  0.27426055  0.59663653  0.27662839  1  1.567549  0  0.204352  0.591122  0  4.209526  0
C  C65  1  0.27587977  0.73077050  0.27899088  1  0.052775  0  -0.03198  -0.133201  0  4.013715  0
C  C66  1  0.03961951  0.36304713  0.28643554  1  1.602897  0  0.213075  0.602974  0  4.186581  0
C  C67  1  0.31302165  0.93983245  0.20600539  1  0.434631  0  0.076838  0.137352  0  4.033329  0
C  C68  1  0.27625837  0.35818533  0.84004826  1  -0.083749  0  0.01274  0.094346  0  3.979981  0
C  C69  1  0.84344609  0.33778611  0.20156751  1  0.475081  0  0.076382  0.132092  0  4.045055  0
C  C70  1  0.37983281  0.34797659  0.58234193  1  0.485133  0  0.061738  0.109832  0  3.901428  0
C  C71  1  0.38328918  0.35598472  0.68030409  1  -0.005502  0  -0.073349  -0.159596  0  3.927071  0
C  C72  1  0.27656778  0.34685403  0.73601986  1  -0.101513  0  0.016792  0.104402  0  3.974007  0
C  C73  1  0.90622191  0.35003356  0.28477648  1  0.047233  0  -0.025131  -0.117775  0  3.9849  0
C  C74  1  0.38117978  0.36974337  0.98858405  1  0.442601  0  0.057653  0.108073  0  3.891295  0
C  C75  1  0.16725913  0.37017081  0.89192560  1  -0.025295  0  -0.076065  -0.163866  0  3.936117  0
C  C76  1  0.17324554  0.32257720  0.58953311  1  0.442648  0  0.059346  0.104635  0  3.918416  0
C  C77  1  0.24259549  0.77923689  0.36433409  1  -0.080823  0  -0.101646  -0.11916  0  4.028185  0
C  C78  1  0.38498571  0.35856418  0.89105798  1  0.038421  0  -0.078113  -0.165958  0  3.929844  0
C  C79  1  0.31147267  0.81479283  0.20096020  1  0.39523  0  0.072715  0.126753  0  4.044539  0
C  C80  1  0.71694948  0.33089727  0.20151596  1  0.39039  0  0.077891  0.134866  0  4.040348  0
C  C81  1  0.83622693  0.35108123  0.37029366  1  -0.000645  0  -0.097  -0.112663  0  4.025357  0
C  C82  1  0.51213765  0.34357452  0.28544965  1  1.566313  0  0.212975  0.602115  0  4.185799  0
C  C83  1  0.64735128  0.33755146  0.28469505  1  0.058687  0  -0.026922  -0.123376  0  3.983977  0
C  C84  1  0.27945048  0.98761972  0.28967628  1  0.019518  0  -0.019288  -0.103617  0  3.965286  0
C  C85  1  0.16992346  0.32877041  0.68795909  1  0.061313  0  -0.073699  -0.165113  0  3.936323  0
C  C86  1  0.24481861  0.90264569  0.36976443  1  0.009474  0  -0.092429  -0.103808  0  4.006993  0
C  C87  1  0.17046672  0.38031721  0.98954372  1  0.48907  0  0.053719  0.099565  0  3.910268  0
C  C88  1  0.71162858  0.34557610  0.37016968  1  -0.054464  0  -0.095837  -0.108445  0  4.025316  0
C  C89  1  0.27715996  0.12130749  0.29514409  1  1.61087  0  0.211996  0.604001  0  4.18657  0
C  C90  1  0.78859095  0.30232168  0.05536020  1  0.85159  0  0.036973  0.171718  0  3.821538  0
C  C91  1  0.39606959  0.90633622  0.06511791  1  0.887993  0  0.038885  0.172073  0  3.863474  0
N  N92  1  0.72357907  0.66777859  0.46270927  1  -1.239219  0  -0.319415  -0.201027  0  3.521025  0
N  N93  1  0.72431022  0.61976097  0.96282846  1  -1.227324  0  -0.32545  -0.20585  0  3.526285  0
N  N94  1  0.27642962  0.33221875  0.53729504  1  -1.239581  0  -0.319335  -0.200913  0  3.52114  0
N  N95  1  0.27568420  0.38023203  0.03717439  1  -1.227785  0  -0.325498  -0.206017  0  3.526377  0
O  O96  1  0.73861552  0.47162583  0.64254711  1  -1.175415  0  -0.3192  -0.552064  0  2.314186  0
O  O97  1  0.90889127  0.66253786  0.63129211  1  -1.168744  0  -0.31437  -0.545586  0  2.333027  0
O  O98  1  0.90925827  0.60001608  0.79400398  1  -1.173674  0  -0.316073  -0.545369  0  2.336411  0
O  O99  1  0.54037450  0.65798907  0.63261408  1  -1.1711  0  -0.31454  -0.549576  0  2.342405  0
O  O100  1  0.54020394  0.64672463  0.79614087  1  -1.154397  0  -0.311471  -0.537012  0  2.35854  0
O  O101  1  0.73660435  0.80751417  0.78498883  1  -1.16478  0  -0.317503  -0.544875  0  2.344834  0
O  O102  1  0.71264157  0.84746118  0.62167253  1  -1.151826  0  -0.317159  -0.534644  0  2.275758  0
O  O103  1  0.71296623  0.43866082  0.80594241  1  -1.1536  0  -0.320716  -0.547874  0  2.32365  0
O  O104  1  0.11208013  0.66401683  0.89069107  1  -1.017196  0  -0.16993  -0.202638  0  2.468464  0
O  O105  1  0.32096280  0.67594014  0.89069604  1  -1.012757  0  -0.168302  -0.196448  0  2.459566  0
O  O106  1  0.65001691  0.99918473  0.88200041  1  -1.005711  0  -0.177427  -0.19947  0  2.434836  0
O  O107  1  0.65253282  0.20596755  0.89052770  1  -1.018463  0  -0.172059  -0.207016  0  2.478915  0
O  O108  1  0.26137274  0.52838094  0.35745848  1  -1.175437  0  -0.319158  -0.552039  0  2.314136  0
O  O109  1  0.09110639  0.33746238  0.36871271  1  -1.168788  0  -0.314414  -0.545706  0  2.333043  0
O  O110  1  0.09074451  0.39995581  0.20599627  1  -1.173315  0  -0.316011  -0.545329  0  2.336415  0
O  O111  1  0.45962190  0.34203496  0.36738649  1  -1.171356  0  -0.314567  -0.549643  0  2.342487  0
O  O112  1  0.45980339  0.35328100  0.20385532  1  -1.15492  0  -0.311425  -0.536888  0  2.358514  0
O  O113  1  0.26343494  0.19248648  0.21499683  1  -1.165042  0  -0.317506  -0.544843  0  2.345085  0
O  O114  1  0.28737315  0.15254163  0.37831818  1  -1.15164  0  -0.317236  -0.534626  0  2.275731  0
O  O115  1  0.28703621  0.56133480  0.19406003  1  -1.153485  0  -0.320708  -0.547842  0  2.323629  0
O  O116  1  0.88792216  0.33598154  0.10931033  1  -1.017276  0  -0.169939  -0.202632  0  2.46825  0
O  O117  1  0.67903208  0.32407843  0.10930377  1  -1.012751  0  -0.168394  -0.196365  0  2.459678  0
O  O118  1  0.34994979  0.00081793  0.11798231  1  -1.005651  0  -0.177309  -0.199424  0  2.435033  0
O  O119  1  0.34745241  0.79402749  0.10946215  1  -1.018964  0  -0.172093  -0.207082  0  2.478966  0
