# generated using pymatgen
data_AlH12C39N7O30
_symmetry_space_group_name_H-M   'P 1'
_cell_length_a   4.41691152
_cell_length_b   18.31344637
_cell_length_c   18.26389029
_cell_angle_alpha   120.57011119
_cell_angle_beta   89.60573424
_cell_angle_gamma   88.87503553
_symmetry_Int_Tables_number   1
_chemical_formula_structural   AlH12C39N7O30
_chemical_formula_sum   'Al1 H12 C39 N7 O30'
_cell_volume   1271.51617664
_cell_formula_units_Z   1
loop_
 _symmetry_equiv_pos_site_id
 _symmetry_equiv_pos_as_xyz
  1  'x, y, z'
loop_
 _atom_site_type_symbol
 _atom_site_label
 _atom_site_symmetry_multiplicity
 _atom_site_fract_x
 _atom_site_fract_y
 _atom_site_fract_z
 _atom_site_occupancy
 _atom_site_pbe_bader_charge
 _atom_site_pbe_bader_spin_density
 _atom_site_pbe_cm5_charge
 _atom_site_pbe_ddec_charge
 _atom_site_pbe_ddec_spin_density
 _atom_site_pbe_ddec_sum_bond_order
 _atom_site_pbe_magmom
Al  Al0  1  0.99098604  0.00188775  0.50130683  1  2.529975  0  0.510047  1.684427  0  2.370182  0
H  H1  1  0.84785849  0.95815084  0.25204487  1  0.677621  0  0.315119  0.37199  0  0.978334  0
H  H2  1  0.72417195  0.03261036  0.12081857  1  0.69051  0  0.321444  0.390139  0  0.928956  0
H  H3  1  0.17026694  0.27021378  0.55537763  1  0.689263  0  0.315968  0.374817  0  0.977179  0
H  H4  1  0.29877407  0.38889125  0.47134553  1  0.672783  0  0.321663  0.389233  0  0.927581  0
H  H5  1  0.66990380  0.58945694  0.46704688  1  0.687006  0  0.320497  0.389547  0  0.935025  0
H  H6  1  0.62830740  0.78869861  0.56045961  1  0.687952  0  0.319741  0.383419  0  0.948818  0
H  H7  1  0.33119859  0.58025155  0.11459887  1  0.674841  0  0.32123  0.389177  0  0.927132  0
H  H8  1  0.16746794  0.78174747  0.23410244  1  0.680645  0  0.314222  0.373113  0  0.980581  0
H  H9  1  0.35904684  0.02802791  0.91601152  1  0.693183  0  0.320598  0.39006  0  0.935789  0
H  H10  1  0.92427278  0.93260320  0.72206334  1  0.681801  0  0.321717  0.388028  0  0.946338  0
H  H11  1  0.78769686  0.38092809  0.91644050  1  0.666776  0  0.32128  0.390939  0  0.931555  0
H  H12  1  0.89900614  0.25019551  0.70845416  1  0.68718  0  0.315283  0.372605  0  0.975744  0
C  C13  1  0.49495583  0.07236819  0.44092893  1  1.617727  0  0.280471  0.675795  0  4.041135  0
C  C14  1  0.50167365  0.06212827  0.63176595  1  1.598929  0  0.280082  0.67391  0  4.040945  0
C  C15  1  0.47652922  0.86970309  0.42903078  1  1.642492  0  0.278936  0.673448  0  4.032466  0
C  C16  1  0.57691241  0.24979704  0.38721433  1  0.123096  0  0.015603  -0.052986  0  3.89398  0
C  C17  1  0.51019129  0.20673707  0.30021434  1  0.026834  0  0.010794  -0.015818  0  3.930263  0
C  C18  1  0.62873247  0.11089046  0.86024021  1  0.022287  0  0.013571  -0.054845  0  3.895535  0
C  C19  1  0.58306611  0.19980461  0.90707799  1  0.020735  0  0.008556  -0.021673  0  3.927785  0
C  C20  1  0.50566748  0.59364363  0.29640003  1  -0.001858  0  0.012088  -0.01211  0  3.928228  0
C  C21  1  0.58521315  0.63646025  0.25365469  1  0.100427  0  0.014093  -0.055306  0  3.90056  0
C  C22  1  0.51441993  0.24320482  0.86401511  1  -0.114534  0  0.01516  -0.049799  0  3.904398  0
C  C23  1  0.51078532  0.19844894  0.77484240  1  0.112992  0  -0.003725  -0.10243  0  3.982187  0
C  C24  1  0.53374853  0.10969148  0.72802663  1  0.022152  0  0.013283  -0.034675  0  3.866896  0
C  C25  1  0.58418192  0.06609687  0.77209060  1  0.039294  0  -0.001837  -0.090554  0  3.944991  0
C  C26  1  0.55979506  0.72515533  0.29587754  1  -0.086454  0  -0.000381  -0.092051  0  3.960665  0
C  C27  1  0.46614132  0.77336455  0.38173447  1  -0.023901  0  0.013581  -0.03882  0  3.857515  0
C  C28  1  0.37427574  0.72981595  0.42281663  1  -0.004881  0  0.003676  -0.075017  0  3.919134  0
C  C29  1  0.39754179  0.64076733  0.38107615  1  0.038842  0  0.013561  -0.062651  0  3.888024  0
C  C30  1  0.44125689  0.12030291  0.25933109  1  -0.05097  0  0.015472  -0.050449  0  3.899166  0
C  C31  1  0.45052013  0.07760925  0.30489837  1  0.024551  0  -0.003438  -0.099911  0  3.974752  0
C  C32  1  0.50216182  0.12064776  0.39295645  1  -0.069591  0  0.009337  -0.046295  0  3.862202  0
C  C33  1  0.55976866  0.20782801  0.43357057  1  0.048963  0  -0.001921  -0.094299  0  3.959205  0
C  C34  1  0.51203282  0.37894231  0.25743573  1  1.639796  0  0.371151  0.512518  0  4.059676  0
C  C35  1  0.54738936  0.24344201  0.12366453  1  1.602058  0  0.370467  0.512731  0  4.060481  0
C  C36  1  0.51444708  0.25170966  0.25264575  1  1.052337  0  0.269327  0.393475  0  4.033222  0
C  C37  1  0.52218001  0.50041954  0.25110119  1  1.189694  0  0.270069  0.394008  0  4.035308  0
C  C38  1  0.56451274  0.37628540  0.12315599  1  1.487703  0  0.373065  0.514179  0  4.059254  0
C  C39  1  0.58251374  0.24687704  0.00047782  1  1.139891  0  0.267191  0.392319  0  4.041128  0
C  C40  1  0.40601083  0.98395031  0.25751471  1  1.632002  0  0.247654  0.603957  0  4.150062  0
C  C41  1  0.32323459  0.07176319  0.16930697  1  1.631709  0  0.246302  0.599407  0  4.157224  0
C  C42  1  0.60966039  0.26040719  0.52732628  1  1.629701  0  0.246387  0.603664  0  4.157472  0
C  C43  1  0.69855934  0.33911373  0.43299076  1  1.601304  0  0.245452  0.598809  0  4.156895  0
C  C44  1  0.27315503  0.59948600  0.42883208  1  1.598262  0  0.245373  0.598676  0  4.148884  0
C  C45  1  0.23148641  0.77418168  0.51080919  1  1.568819  0  0.248962  0.615953  0  4.104088  0
C  C46  1  0.72412987  0.59203226  0.16445928  1  1.672042  0  0.245969  0.600631  0  4.158548  0
C  C47  1  0.61263576  0.76579774  0.24364880  1  1.637397  0  0.245419  0.601164  0  4.162969  0
C  C48  1  0.75380942  0.06252330  0.90106044  1  1.602353  0  0.246531  0.597023  0  4.159019  0
C  C49  1  0.50921027  0.97381551  0.72961930  1  1.584901  0  0.251764  0.608152  0  4.109132  0
C  C50  1  0.39271330  0.33419249  0.90808523  1  1.644648  0  0.246725  0.598278  0  4.16238  0
C  C51  1  0.45976748  0.24649654  0.72975271  1  1.6225  0  0.248877  0.605492  0  4.142654  0
N  N52  1  0.54201015  0.33283499  0.16809726  1  -1.21246  0  -0.188453  -0.243293  0  3.567557  0
N  N53  1  0.53208833  0.20370648  0.16757279  1  -1.137087  0  -0.298744  -0.407174  0  3.242053  0
N  N54  1  0.50028592  0.33670956  0.29889062  1  -1.154595  0  -0.297304  -0.405026  0  3.244853  0
N  N55  1  0.49662287  0.46329779  0.29791735  1  -1.247494  0  -0.296728  -0.405199  0  3.242965  0
N  N56  1  0.55852653  0.46059577  0.16630911  1  -1.13073  0  -0.295582  -0.402298  0  3.252236  0
N  N57  1  0.56628810  0.20122576  0.03906962  1  -1.254828  0  -0.300152  -0.410834  0  3.235583  0
N  N58  1  0.58872213  0.33168780  0.03872136  1  -1.124932  0  -0.296709  -0.404788  0  3.24929  0
O  O59  1  0.24343171  0.90890109  0.47637560  1  -1.26971  0  -0.238049  -0.625239  0  2.38338  0
O  O60  1  0.25863275  0.03038392  0.43267365  1  -1.247992  0  -0.228957  -0.592643  0  2.332735  0
O  O61  1  0.25951275  0.07376340  0.60160607  1  -1.234552  0  -0.22613  -0.576729  0  2.286811  0
O  O62  1  0.71118386  0.90323592  0.41999547  1  -1.223258  0  -0.229755  -0.570004  0  2.273768  0
O  O63  1  0.72943913  0.01423745  0.58968674  1  -1.263977  0  -0.236034  -0.612209  0  2.343353  0
O  O64  1  0.72675195  0.07767523  0.48456961  1  -1.258178  0  -0.233881  -0.605601  0  2.344993  0
O  O65  1  0.63642479  0.93549412  0.25100763  1  -1.159532  0  -0.297231  -0.431917  0  2.389851  0
O  O66  1  0.16124771  0.95384677  0.22555753  1  -1.147092  0  -0.263606  -0.454393  0  2.255703  0
O  O67  1  0.50538699  0.01852699  0.10656069  1  -1.157923  0  -0.303212  -0.431627  0  2.266864  0
O  O68  1  0.04972447  0.07828423  0.16041344  1  -1.149688  0  -0.27242  -0.493754  0  2.235361  0
O  O69  1  0.38385273  0.27636545  0.57935728  1  -1.160681  0  -0.295803  -0.428101  0  2.389345  0
O  O70  1  0.85902500  0.29097986  0.55410391  1  -1.154861  0  -0.268745  -0.464303  0  2.278104  0
O  O71  1  0.51769684  0.40304794  0.48500279  1  -1.135671  0  -0.303002  -0.430439  0  2.266958  0
O  O72  1  0.97191322  0.34665521  0.42584715  1  -1.136705  0  -0.273067  -0.49409  0  2.234552  0
O  O73  1  0.44894209  0.58881269  0.48068954  1  -1.148216  0  -0.306864  -0.438687  0  2.277877  0
O  O74  1  0.99933821  0.58652756  0.42455008  1  -1.145517  0  -0.27282  -0.492365  0  2.23889  0
O  O75  1  0.40591268  0.79503397  0.57607019  1  -1.149114  0  -0.300833  -0.435129  0  2.339926  0
O  O76  1  0.95420976  0.78409811  0.51835127  1  -1.12415  0  -0.268248  -0.486112  0  2.234161  0
O  O77  1  0.55268216  0.57890269  0.10039331  1  -1.139975  0  -0.303222  -0.431141  0  2.269574  0
O  O78  1  0.00031089  0.57883320  0.15723706  1  -1.175404  0  -0.275616  -0.498237  0  2.236008  0
O  O79  1  0.38149870  0.80038540  0.22856845  1  -1.156441  0  -0.298296  -0.433631  0  2.39545  0
O  O80  1  0.86275786  0.76301081  0.21182512  1  -1.14901  0  -0.269339  -0.461655  0  2.28453  0
O  O81  1  0.58099426  0.01423639  0.91646118  1  -1.16385  0  -0.303783  -0.435551  0  2.289723  0
O  O82  1  0.03049391  0.06506105  0.91055946  1  -1.131551  0  -0.272519  -0.492245  0  2.232511  0
O  O83  1  0.70684484  0.91488246  0.71912821  1  -1.152077  0  -0.297331  -0.428617  0  2.297147  0
O  O84  1  0.24167019  0.95870511  0.70963331  1  -1.150266  0  -0.265066  -0.477039  0  2.245943  0
O  O85  1  0.56627463  0.39544782  0.91675677  1  -1.13558  0  -0.301591  -0.430066  0  2.27366  0
O  O86  1  0.11865657  0.34444626  0.92447353  1  -1.149409  0  -0.2731  -0.493342  0  2.233358  0
O  O87  1  0.68709674  0.25140624  0.68666461  1  -1.169965  0  -0.298836  -0.435624  0  2.380954  0
O  O88  1  0.21022060  0.27914124  0.73262623  1  -1.141315  0  -0.26143  -0.452291  0  2.249989  0
