# generated using pymatgen
data_CdH13C18N3O7
_symmetry_space_group_name_H-M   'P 1'
_cell_length_a   12.37085922
_cell_length_b   15.52220821
_cell_length_c   24.58129214
_cell_angle_alpha   89.99981870
_cell_angle_beta   89.99986013
_cell_angle_gamma   90.00027585
_symmetry_Int_Tables_number   1
_chemical_formula_structural   CdH13C18N3O7
_chemical_formula_sum   'Cd8 H104 C144 N24 O56'
_cell_volume   4720.17475110
_cell_formula_units_Z   8
loop_
 _symmetry_equiv_pos_site_id
 _symmetry_equiv_pos_as_xyz
  1  'x, y, z'
loop_
 _atom_site_type_symbol
 _atom_site_label
 _atom_site_symmetry_multiplicity
 _atom_site_fract_x
 _atom_site_fract_y
 _atom_site_fract_z
 _atom_site_occupancy
 _atom_site_pbe_bader_charge
 _atom_site_pbe_bader_spin_density
 _atom_site_pbe_cm5_charge
 _atom_site_pbe_ddec_charge
 _atom_site_pbe_ddec_spin_density
 _atom_site_pbe_ddec_sum_bond_order
 _atom_site_pbe_magmom
Cd  Cd0  1  0.82249458  0.58387024  0.23481732  1  1.29936  0  0.768496  0.95997  0  2.141172  0
Cd  Cd1  1  0.67750712  0.08386886  0.26518491  1  1.299366  0  0.768513  0.95999  0  2.141155  0
Cd  Cd2  1  0.82249349  0.91613027  0.76518374  1  1.299336  0  0.768472  0.959922  0  2.141227  0
Cd  Cd3  1  0.67750779  0.41613033  0.73481652  1  1.299449  0  0.768486  0.95998  0  2.141183  0
Cd  Cd4  1  0.17750041  0.41613251  0.76518504  1  1.299726  0  0.768548  0.960061  0  2.141165  0
Cd  Cd5  1  0.32249514  0.91612874  0.73481543  1  1.299449  0  0.768504  0.959961  0  2.141146  0
Cd  Cd6  1  0.17750474  0.08387055  0.23481415  1  1.299553  0  0.768512  0.959963  0  2.141228  0
Cd  Cd7  1  0.32249367  0.58386920  0.26518422  1  1.299452  0  0.768508  0.959994  0  2.141137  0
H  H8  1  0.32318973  0.27055381  0.18202780  1  0.170795  0  0.129968  0.123218  0  1.015016  0
H  H9  1  0.44151245  0.30771455  0.10236629  1  0.083468  0  0.111803  0.1151  0  0.982006  0
H  H10  1  0.61576894  0.39019601  0.11975128  1  0.109306  0  0.112419  0.120538  0  0.984401  0
H  H11  1  0.61903447  0.29737984  0.42798008  1  0.114419  0  0.110721  0.116315  0  0.992289  0
H  H12  1  0.55697690  0.44549452  0.45955235  1  0.114562  0  0.112183  0.11502  0  0.987613  0
H  H13  1  0.49336499  0.55168953  0.38735673  1  0.135187  0  0.139666  0.13097  0  0.965805  0
H  H14  1  0.75027276  0.51644127  0.34896603  1  0.134756  0  0.11315  0.090572  0  1.03067  0
H  H15  1  0.81439816  0.49039460  0.44331907  1  0.039932  0  0.102101  0.103781  0  1.017646  0
H  H16  1  0.12088656  0.60305326  0.39509003  1  0.101831  0  0.112904  0.131388  0  0.987254  0
H  H17  1  0.04125131  0.62663116  0.30381617  1  0.100756  0  0.115681  0.08592  0  1.027237  0
H  H18  1  0.10266433  0.55255309  0.48723455  1  0.070848  0  0.105211  0.103086  0  0.999412  0
H  H19  1  0.65100553  0.70148967  0.27806565  1  0.648024  0  0.281222  0.375774  0  0.975215  0
H  H20  1  0.60076215  0.60333665  0.28139188  1  0.63991  0  0.286274  0.378918  0  0.962303  0
H  H21  1  0.17680818  0.77055228  0.31797549  1  0.170848  0  0.129992  0.123262  0  1.015099  0
H  H22  1  0.05848487  0.80771151  0.39763651  1  0.083388  0  0.11183  0.115158  0  0.981986  0
H  H23  1  0.88422893  0.89019497  0.38025075  1  0.109235  0  0.112441  0.120611  0  0.984325  0
H  H24  1  0.88096770  0.79738034  0.07202295  1  0.114392  0  0.110665  0.116247  0  0.99223  0
H  H25  1  0.94302778  0.94549413  0.04044916  1  0.11461  0  0.112172  0.114989  0  0.987616  0
H  H26  1  0.00663645  0.05169212  0.11264414  1  0.135118  0  0.139642  0.130965  0  0.965834  0
H  H27  1  0.74972772  0.01644267  0.15103471  1  0.134745  0  0.113151  0.090554  0  1.030644  0
H  H28  1  0.68560598  0.99039506  0.05668276  1  0.039938  0  0.102119  0.103827  0  1.017597  0
H  H29  1  0.37911681  0.10305282  0.10490912  1  0.101915  0  0.112893  0.131298  0  0.987141  0
H  H30  1  0.45875139  0.12663379  0.19618212  1  0.100838  0  0.11569  0.085942  0  1.027213  0
H  H31  1  0.39733793  0.05255640  0.01276551  1  0.070848  0  0.105212  0.10309  0  0.999409  0
H  H32  1  0.84899769  0.20149883  0.22194001  1  0.647997  0  0.281258  0.375673  0  0.975299  0
H  H33  1  0.89923562  0.10334151  0.21861194  1  0.639864  0  0.286329  0.378924  0  0.962309  0
H  H34  1  0.32319049  0.22945046  0.81797163  1  0.170789  0  0.129998  0.123348  0  1.014954  0
H  H35  1  0.44151099  0.19228696  0.89763258  1  0.083505  0  0.111799  0.115074  0  0.982039  0
H  H36  1  0.61576545  0.10980359  0.88024738  1  0.109375  0  0.112423  0.120594  0  0.984378  0
H  H37  1  0.61903222  0.20261913  0.57201857  1  0.114495  0  0.110692  0.116281  0  0.992329  0
H  H38  1  0.55697876  0.05450292  0.54044760  1  0.114555  0  0.11217  0.114979  0  0.987648  0
H  H39  1  0.49337211  0.94830714  0.61264393  1  0.135143  0  0.139649  0.130881  0  0.965844  0
H  H40  1  0.75027424  0.98356155  0.65103350  1  0.148905  0  0.113143  0.09054  0  1.030674  0
H  H41  1  0.81439806  0.00960705  0.55668056  1  0.039926  0  0.102119  0.103829  0  1.017619  0
H  H42  1  0.12088531  0.89694906  0.60490906  1  0.101839  0  0.112915  0.131372  0  0.987226  0
H  H43  1  0.04124949  0.87337084  0.69618260  1  0.10083  0  0.115684  0.085837  0  1.027277  0
H  H44  1  0.10266464  0.94744851  0.51276496  1  0.070857  0  0.105223  0.103099  0  0.999415  0
H  H45  1  0.65100474  0.79850890  0.72193604  1  0.648012  0  0.281204  0.375719  0  0.975292  0
H  H46  1  0.60076197  0.89666237  0.71860823  1  0.63993  0  0.28624  0.378876  0  0.962369  0
H  H47  1  0.17681203  0.72944639  0.68202352  1  0.170793  0  0.129977  0.123181  0  1.015124  0
H  H48  1  0.05848484  0.69228734  0.60236224  1  0.083359  0  0.111798  0.115111  0  0.982015  0
H  H49  1  0.88422751  0.60980514  0.61975024  1  0.109252  0  0.112454  0.120619  0  0.984349  0
H  H50  1  0.88096697  0.70262298  0.92797642  1  0.114343  0  0.110702  0.116312  0  0.992281  0
H  H51  1  0.94302357  0.55450943  0.95955176  1  0.11463  0  0.112135  0.114975  0  0.987616  0
H  H52  1  0.00663415  0.44830900  0.88735770  1  0.135657  0  0.139659  0.13095  0  0.965816  0
H  H53  1  0.74972905  0.48355873  0.84896663  1  0.14895  0  0.113137  0.09049  0  1.03069  0
H  H54  1  0.68560644  0.50960621  0.94331889  1  0.039859  0  0.10213  0.10389  0  1.017639  0
H  H55  1  0.37911659  0.39694780  0.89509227  1  0.101891  0  0.112869  0.13127  0  0.987249  0
H  H56  1  0.45875228  0.37336649  0.80381917  1  0.100787  0  0.115702  0.085947  0  1.027217  0
H  H57  1  0.39733676  0.44744493  0.98723504  1  0.070847  0  0.10522  0.103086  0  0.999418  0
H  H58  1  0.84900148  0.29849974  0.77805877  1  0.648003  0  0.281289  0.375756  0  0.975181  0
H  H59  1  0.89923595  0.39665854  0.78138841  1  0.639851  0  0.286345  0.378989  0  0.962233  0
H  H60  1  0.67681173  0.72944637  0.81797864  1  0.170795  0  0.129996  0.123252  0  1.015116  0
H  H61  1  0.55848496  0.69228821  0.89763974  1  0.083283  0  0.11182  0.115133  0  0.981905  0
H  H62  1  0.38422766  0.60980352  0.88025435  1  0.109065  0  0.112434  0.120603  0  0.984311  0
H  H63  1  0.38097184  0.70261840  0.57202514  1  0.114499  0  0.110666  0.116247  0  0.99231  0
H  H64  1  0.44303183  0.55450565  0.54045286  1  0.114536  0  0.112081  0.114909  0  0.987692  0
H  H65  1  0.50664293  0.44830614  0.61264726  1  0.13493  0  0.139629  0.130944  0  0.965822  0
H  H66  1  0.24972546  0.48356213  0.65103349  1  0.148902  0  0.113146  0.090528  0  1.03065  0
H  H67  1  0.18560330  0.50960622  0.55668045  1  0.039887  0  0.102112  0.10385  0  1.01759  0
H  H68  1  0.87911571  0.39694628  0.60490787  1  0.101844  0  0.112927  0.131355  0  0.987322  0
H  H69  1  0.95875095  0.37336451  0.69618091  1  0.100918  0  0.115689  0.085913  0  1.02723  0
H  H70  1  0.89733551  0.44744322  0.51276537  1  0.070802  0  0.105224  0.103102  0  0.999386  0
H  H71  1  0.34899835  0.29850600  0.72194648  1  0.648193  0  0.281338  0.375815  0  0.975096  0
H  H72  1  0.39923688  0.39666289  0.71861821  1  0.639825  0  0.28641  0.379086  0  0.962078  0
H  H73  1  0.82318762  0.22944210  0.68202484  1  0.170795  0  0.129959  0.123185  0  1.015085  0
H  H74  1  0.94151335  0.19228351  0.60236260  1  0.08335  0  0.111787  0.115103  0  0.982033  0
H  H75  1  0.11577090  0.10980328  0.61974836  1  0.109202  0  0.112431  0.120617  0  0.984313  0
H  H76  1  0.11903294  0.20261984  0.92797739  1  0.114379  0  0.110655  0.116221  0  0.99228  0
H  H77  1  0.05697287  0.05450476  0.95955036  1  0.114617  0  0.112159  0.114999  0  0.987641  0
H  H78  1  0.99336097  0.94830806  0.88735538  1  0.135138  0  0.139648  0.130994  0  0.965767  0
H  H79  1  0.25027616  0.98355557  0.84896563  1  0.134818  0  0.113186  0.090572  0  1.030713  0
H  H80  1  0.31439951  0.00960447  0.94331799  1  0.039979  0  0.102087  0.10375  0  1.017709  0
H  H81  1  0.62088869  0.89694736  0.89509040  1  0.101813  0  0.112918  0.131406  0  0.987224  0
H  H82  1  0.54125168  0.87336574  0.80381700  1  0.100847  0  0.1157  0.085949  0  1.027173  0
H  H83  1  0.60266514  0.94744571  0.98723523  1  0.070824  0  0.105202  0.103095  0  0.999357  0
H  H84  1  0.15100134  0.79850586  0.77806073  1  0.648004  0  0.28125  0.375779  0  0.975169  0
H  H85  1  0.10076341  0.89666125  0.78138881  1  0.639818  0  0.286299  0.378948  0  0.962273  0
H  H86  1  0.67681258  0.77055294  0.18202505  1  0.170784  0  0.129976  0.123212  0  1.015079  0
H  H87  1  0.55848562  0.80771193  0.10236369  1  0.083415  0  0.111817  0.115116  0  0.982055  0
H  H88  1  0.38423196  0.89019595  0.11975133  1  0.109277  0  0.11242  0.120551  0  0.984354  0
H  H89  1  0.38096600  0.79737719  0.42797647  1  0.114324  0  0.110689  0.116297  0  0.992277  0
H  H90  1  0.44302592  0.94548953  0.45955193  1  0.114594  0  0.112148  0.114999  0  0.987647  0
H  H91  1  0.50663662  0.05168853  0.38735804  1  0.135181  0  0.139656  0.131016  0  0.9658  0
H  H92  1  0.24972802  0.01644185  0.34896562  1  0.134724  0  0.113157  0.090532  0  1.030657  0
H  H93  1  0.18560421  0.99039634  0.44331815  1  0.039977  0  0.102097  0.103777  0  1.017624  0
H  H94  1  0.87911614  0.10305434  0.39509006  1  0.101856  0  0.112883  0.131293  0  0.987187  0
H  H95  1  0.95875358  0.12663707  0.30381692  1  0.100647  0  0.115699  0.085959  0  1.027162  0
H  H96  1  0.89733439  0.05255489  0.48723375  1  0.070802  0  0.105205  0.103091  0  0.999349  0
H  H97  1  0.34899752  0.20149837  0.27805779  1  0.64813  0  0.28129  0.375727  0  0.975239  0
H  H98  1  0.39923544  0.10334103  0.28138722  1  0.639874  0  0.286268  0.378803  0  0.962492  0
H  H99  1  0.82318458  0.27055572  0.31797315  1  0.170716  0  0.129969  0.123302  0  1.015035  0
H  H100  1  0.94151015  0.30771219  0.39763403  1  0.083455  0  0.111827  0.115106  0  0.982005  0
H  H101  1  0.11576828  0.39019311  0.38024765  1  0.109383  0  0.112415  0.120579  0  0.984362  0
H  H102  1  0.11903449  0.29737526  0.07202066  1  0.114539  0  0.110691  0.116297  0  0.992256  0
H  H103  1  0.05697869  0.44548946  0.04044451  1  0.11455  0  0.112137  0.114942  0  0.987723  0
H  H104  1  0.99336407  0.55168732  0.11263775  1  0.135631  0  0.139601  0.130814  0  0.965923  0
H  H105  1  0.25027402  0.51644209  0.15103330  1  0.148937  0  0.113167  0.090519  0  1.030673  0
H  H106  1  0.31440068  0.49039396  0.05668104  1  0.03997  0  0.102125  0.103761  0  1.017716  0
H  H107  1  0.62088729  0.60305495  0.10490847  1  0.10181  0  0.112914  0.131392  0  0.987238  0
H  H108  1  0.54124999  0.62663626  0.19618238  1  0.100762  0  0.115687  0.085922  0  1.02717  0
H  H109  1  0.60266631  0.55255460  0.01276488  1  0.070788  0  0.10521  0.103082  0  0.999373  0
H  H110  1  0.15099997  0.70149528  0.22194238  1  0.64815  0  0.281282  0.375683  0  0.975291  0
H  H111  1  0.10076227  0.60333777  0.21861112  1  0.639819  0  0.286348  0.378946  0  0.962279  0
C  C112  1  0.39952081  0.30447760  0.18628624  1  0.340335  0  0.041783  -0.02939  0  3.838107  0
C  C113  1  0.46651794  0.32589811  0.14326972  1  0.017587  0  -0.079203  -0.104942  0  4.039926  0
C  C114  1  0.56245238  0.37035651  0.15265074  1  -0.009825  0  -0.071991  -0.071187  0  3.951082  0
C  C115  1  0.59043420  0.39142367  0.20603195  1  0.08243  0  0.003846  -0.053678  0  3.930163  0
C  C116  1  0.52304986  0.36668919  0.24869006  1  0.44325  0  0.12896  0.073718  0  3.862835  0
C  C117  1  0.54262238  0.38393147  0.30732853  1  0.470369  0  0.144647  0.109155  0  3.845626  0
C  C118  1  0.58012395  0.32298716  0.34487338  1  0.028146  0  0.004023  -0.063338  0  3.911609  0
C  C119  1  0.58739015  0.34518942  0.39975086  1  0.016015  0  -0.070804  -0.068656  0  3.961591  0
C  C120  1  0.55434899  0.42673956  0.41685649  1  -0.015265  0  -0.083159  -0.118957  0  4.053628  0
C  C121  1  0.51928784  0.48608682  0.37880231  1  0.355608  0  0.048235  -0.024492  0  3.853085  0
C  C122  1  0.68844369  0.44455480  0.21892579  1  1.594579  0  0.193431  0.573704  0  4.231834  0
C  C123  1  0.61940313  0.23540052  0.32634919  1  1.61159  0  0.193585  0.565136  0  4.252574  0
C  C124  1  0.83079105  0.53614348  0.36174479  1  0.457452  0  0.041916  0.093319  0  3.976763  0
C  C125  1  0.86800656  0.52111141  0.41396457  1  0.033906  0  -0.089206  -0.186008  0  3.962838  0
C  C126  1  0.97458044  0.54422105  0.42788239  1  -0.033345  0  0.001871  0.136991  0  4.054212  0
C  C127  1  0.03704271  0.58476512  0.38761409  1  0.013772  0  -0.078417  -0.174242  0  3.913001  0
C  C128  1  0.99327394  0.59745988  0.33610277  1  0.498245  0  0.051914  0.112319  0  3.941149  0
C  C129  1  0.02251704  0.52488807  0.48049821  1  -0.115399  0  -0.08183  -0.119265  0  3.972932  0
C  C130  1  0.10047810  0.80447644  0.31371576  1  0.340027  0  0.04179  -0.029431  0  3.83836  0
C  C131  1  0.03348029  0.82589648  0.35673264  1  0.018314  0  -0.079179  -0.104924  0  4.039766  0
C  C132  1  0.93754781  0.87035584  0.34735174  1  -0.010296  0  -0.072021  -0.07133  0  3.950867  0
C  C133  1  0.90956934  0.89142573  0.29397008  1  0.082295  0  0.003835  -0.053642  0  3.930038  0
C  C134  1  0.97695434  0.86669173  0.25131283  1  0.443376  0  0.128879  0.073594  0  3.86296  0
C  C135  1  0.95738193  0.88393359  0.19267310  1  0.470716  0  0.144697  0.109293  0  3.845716  0
C  C136  1  0.91987676  0.82299060  0.15513082  1  0.027781  0  0.003985  -0.063559  0  3.911708  0
C  C137  1  0.91261473  0.84518989  0.10025085  1  0.015315  0  -0.070731  -0.068518  0  3.961366  0
C  C138  1  0.94565638  0.92674089  0.08314465  1  -0.014466  0  -0.083105  -0.118831  0  4.053559  0
C  C139  1  0.98071466  0.98608938  0.12119831  1  0.35574  0  0.048209  -0.024614  0  3.853169  0
C  C140  1  0.81155856  0.94455783  0.28107736  1  1.594826  0  0.193495  0.573775  0  4.231874  0
C  C141  1  0.88059139  0.73540307  0.17365314  1  1.611765  0  0.193688  0.565467  0  4.252321  0
C  C142  1  0.66921117  0.03614529  0.13825469  1  0.457561  0  0.041944  0.093399  0  3.976687  0
C  C143  1  0.63199557  0.02111334  0.08603494  1  0.033772  0  -0.0893  -0.186245  0  3.962842  0
C  C144  1  0.52542345  0.04422328  0.07211748  1  -0.033429  0  0.00189  0.137041  0  4.05425  0
C  C145  1  0.46296297  0.08476626  0.11238591  1  0.013965  0  -0.078415  -0.174083  0  3.912931  0
C  C146  1  0.50673026  0.09746157  0.16389578  1  0.498029  0  0.051966  0.112284  0  3.941322  0
C  C147  1  0.47748424  0.02489037  0.01950150  1  -0.115393  0  -0.081768  -0.119195  0  3.972851  0
C  C148  1  0.39951897  0.19552439  0.81371228  1  0.340257  0  0.041701  -0.029671  0  3.838248  0
C  C149  1  0.46651576  0.17410349  0.85672912  1  0.01761  0  -0.079218  -0.104834  0  4.039906  0
C  C150  1  0.56244998  0.12964288  0.84734839  1  -0.009855  0  -0.072  -0.071321  0  3.951097  0
C  C151  1  0.59043112  0.10857584  0.79396715  1  0.082498  0  0.003881  -0.053623  0  3.930197  0
C  C152  1  0.52304714  0.13331005  0.75130871  1  0.44287  0  0.128973  0.073834  0  3.862707  0
C  C153  1  0.54261903  0.11606849  0.69266981  1  0.470197  0  0.144668  0.109145  0  3.845677  0
C  C154  1  0.58012114  0.17701295  0.65512532  1  0.028162  0  0.004064  -0.06337  0  3.911635  0
C  C155  1  0.58738829  0.15480943  0.60024783  1  0.015995  0  -0.070772  -0.068608  0  3.961674  0
C  C156  1  0.55434996  0.07325722  0.58314306  1  -0.015821  0  -0.083196  -0.118976  0  4.053627  0
C  C157  1  0.51928987  0.01391048  0.62119769  1  0.356046  0  0.04825  -0.024364  0  3.85306  0
C  C158  1  0.68843955  0.05544444  0.78107278  1  1.594761  0  0.193454  0.57361  0  4.23227  0
C  C159  1  0.61940319  0.26459910  0.67364946  1  1.611611  0  0.193596  0.565261  0  4.252477  0
C  C160  1  0.83079085  0.96385835  0.63825383  1  0.443302  0  0.041929  0.093394  0  3.976682  0
C  C161  1  0.86800671  0.97889250  0.58603481  1  0.033834  0  -0.089257  -0.186158  0  3.962775  0
C  C162  1  0.97457890  0.95577683  0.57211687  1  -0.033346  0  0.001878  0.137054  0  4.054287  0
C  C163  1  0.03704235  0.91523687  0.61238591  1  0.013995  0  -0.078477  -0.174252  0  3.912983  0
C  C164  1  0.99327245  0.90254323  0.66389727  1  0.498254  0  0.051971  0.112455  0  3.94111  0
C  C165  1  0.02251668  0.97511193  0.51950262  1  -0.012484  0  -0.081767  -0.119251  0  3.972944  0
C  C166  1  0.10047768  0.69552644  0.68628497  1  0.340046  0  0.041789  -0.029282  0  3.838174  0
C  C167  1  0.03347914  0.67410679  0.64326777  1  0.018579  0  -0.079222  -0.105017  0  4.039859  0
C  C168  1  0.93755039  0.62964512  0.65264756  1  -0.010498  0  -0.072031  -0.07132  0  3.950969  0
C  C169  1  0.90956750  0.60857448  0.70602966  1  0.082248  0  0.003868  -0.053597  0  3.92993  0
C  C170  1  0.97695325  0.63330745  0.74868724  1  0.443373  0  0.128904  0.073599  0  3.862975  0
C  C171  1  0.95738125  0.61606680  0.80732698  1  0.470749  0  0.144644  0.109287  0  3.845648  0
C  C172  1  0.91987546  0.67701222  0.84486932  1  0.027853  0  0.004028  -0.063448  0  3.911569  0
C  C173  1  0.91261223  0.65481162  0.89974888  1  0.015286  0  -0.070761  -0.068616  0  3.961453  0
C  C174  1  0.94565249  0.57326267  0.91685545  1  -0.014468  0  -0.083019  -0.118756  0  4.053475  0
C  C175  1  0.98070979  0.51391303  0.87880297  1  0.355131  0  0.048153  -0.024596  0  3.853097  0
C  C176  1  0.81155714  0.55544199  0.71892372  1  1.594912  0  0.193506  0.573719  0  4.231861  0
C  C177  1  0.88059151  0.76459638  0.82634582  1  1.611399  0  0.19368  0.565472  0  4.252209  0
C  C178  1  0.66921232  0.46385516  0.86174715  1  0.44322  0  0.042011  0.093576  0  3.976486  0
C  C179  1  0.63199656  0.47888762  0.91396614  1  0.033836  0  -0.089267  -0.186296  0  3.962843  0
C  C180  1  0.52542423  0.45577791  0.92788332  1  -0.033382  0  0.001835  0.136975  0  4.054083  0
C  C181  1  0.46296128  0.41523404  0.88761537  1  0.013953  0  -0.078403  -0.174031  0  3.912926  0
C  C182  1  0.50673036  0.40253825  0.83610586  1  0.498175  0  0.051998  0.112332  0  3.941171  0
C  C183  1  0.47748408  0.47510998  0.98049936  1  -0.115358  0  -0.081751  -0.119177  0  3.97281  0
C  C184  1  0.60047822  0.69552580  0.81371694  1  0.340774  0  0.041709  -0.029559  0  3.838385  0
C  C185  1  0.53347947  0.67410400  0.85673509  1  0.018144  0  -0.079187  -0.10487  0  4.039594  0
C  C186  1  0.43754908  0.62964238  0.84735570  1  -0.009147  0  -0.072044  -0.071387  0  3.950897  0
C  C187  1  0.40956806  0.60857200  0.79397368  1  0.081309  0  0.003831  -0.053644  0  3.930037  0
C  C188  1  0.47695483  0.63330583  0.75131637  1  0.443617  0  0.12892  0.073498  0  3.862926  0
C  C189  1  0.45737907  0.61606355  0.69267628  1  0.470216  0  0.144531  0.109263  0  3.845859  0
C  C190  1  0.41987832  0.67700722  0.65513428  1  0.027854  0  0.00411  -0.063373  0  3.911468  0
C  C191  1  0.41261615  0.65480754  0.60025476  1  0.015749  0  -0.070737  -0.068662  0  3.961417  0
C  C192  1  0.44565408  0.57325739  0.58314751  1  -0.014639  0  -0.083065  -0.118697  0  4.053588  0
C  C193  1  0.48071685  0.51390949  0.62120169  1  0.355885  0  0.048232  -0.024658  0  3.853349  0
C  C194  1  0.31155938  0.55544087  0.78107658  1  1.59516  0  0.193519  0.573753  0  4.232111  0
C  C195  1  0.38059509  0.76459580  0.67365399  1  1.611392  0  0.193739  0.565514  0  4.252129  0
C  C196  1  0.16920879  0.46385605  0.63825351  1  0.443114  0  0.042005  0.093528  0  3.97673  0
C  C197  1  0.13199489  0.47888941  0.58603495  1  0.033875  0  -0.089273  -0.186269  0  3.962808  0
C  C198  1  0.02542263  0.45577526  0.57211673  1  -0.033345  0  0.001918  0.137113  0  4.054133  0
C  C199  1  0.96295875  0.41523183  0.61238421  1  0.014205  0  -0.078459  -0.174171  0  3.913014  0
C  C200  1  0.00672832  0.40253772  0.66389635  1  0.497706  0  0.051956  0.11232  0  3.941058  0
C  C201  1  0.97748118  0.47511017  0.51950253  1  -0.012499  0  -0.081807  -0.119322  0  3.972893  0
C  C202  1  0.89952173  0.19552181  0.68628579  1  0.340168  0  0.041784  -0.029386  0  3.838252  0
C  C203  1  0.96651874  0.17410370  0.64326688  1  0.018011  0  -0.079121  -0.104868  0  4.039778  0
C  C204  1  0.06245122  0.12964241  0.65264738  1  -0.009517  0  -0.072021  -0.071366  0  3.950933  0
C  C205  1  0.09043454  0.10857380  0.70602904  1  0.081756  0  0.003809  -0.053652  0  3.930191  0
C  C206  1  0.02305034  0.13330780  0.74868548  1  0.443553  0  0.1289  0.073502  0  3.863071  0
C  C207  1  0.04262114  0.11606659  0.80732682  1  0.47061  0  0.144666  0.109325  0  3.845812  0
C  C208  1  0.08012227  0.17701215  0.84486993  1  0.027821  0  0.004005  -0.0635  0  3.91179  0
C  C209  1  0.08738915  0.15481093  0.89974786  1  0.015297  0  -0.070719  -0.068507  0  3.961503  0
C  C210  1  0.05434588  0.07325928  0.91685568  1  -0.014526  0  -0.08307  -0.118814  0  4.053468  0
C  C211  1  0.01928437  0.01391209  0.87880081  1  0.355782  0  0.048209  -0.024641  0  3.853032  0
C  C212  1  0.18844371  0.05544234  0.71892379  1  1.594843  0  0.193497  0.573697  0  4.232021  0
C  C213  1  0.11940521  0.26459839  0.82634760  1  1.611633  0  0.193652  0.565389  0  4.252355  0
C  C214  1  0.33079271  0.96385231  0.86174442  1  0.457462  0  0.041859  0.093242  0  3.976914  0
C  C215  1  0.36800669  0.97888749  0.91396377  1  0.033879  0  -0.089206  -0.186019  0  3.962708  0
C  C216  1  0.47458124  0.95577497  0.92788244  1  -0.033414  0  0.001847  0.137042  0  4.054184  0
C  C217  1  0.53704252  0.91523392  0.88761361  1  0.013724  0  -0.078452  -0.174268  0  3.913026  0
C  C218  1  0.49327443  0.90253861  0.83610334  1  0.498127  0  0.051932  0.112222  0  3.941314  0
C  C219  1  0.52251721  0.97510980  0.98049639  1  -0.012506  0  -0.081775  -0.119322  0  3.972945  0
C  C220  1  0.60048006  0.80447515  0.18628562  1  0.340092  0  0.041767  -0.029433  0  3.838276  0
C  C221  1  0.53348165  0.82589411  0.14326919  1  0.018059  0  -0.079215  -0.105009  0  4.039926  0
C  C222  1  0.43755310  0.87035665  0.15264869  1  -0.009977  0  -0.071972  -0.071175  0  3.95086  0
C  C223  1  0.40957033  0.89142627  0.20602993  1  0.082369  0  0.003831  -0.053612  0  3.930014  0
C  C224  1  0.47695594  0.86669464  0.24868797  1  0.443293  0  0.128881  0.073512  0  3.863011  0
C  C225  1  0.45738324  0.88393427  0.30732686  1  0.470725  0  0.144672  0.10924  0  3.845736  0
C  C226  1  0.41987708  0.82298852  0.34486973  1  0.027891  0  0.003978  -0.063586  0  3.911691  0
C  C227  1  0.41261155  0.84518753  0.39974884  1  0.015353  0  -0.070751  -0.068552  0  3.961506  0
C  C228  1  0.44564907  0.92673844  0.41685565  1  -0.014485  0  -0.083036  -0.118748  0  4.053458  0
C  C229  1  0.48071400  0.98608648  0.37880265  1  0.355608  0  0.048184  -0.024718  0  3.853146  0
C  C230  1  0.31155948  0.94455831  0.21892471  1  1.594765  0  0.193538  0.573768  0  4.231741  0
C  C231  1  0.38059584  0.73540172  0.32634518  1  1.611637  0  0.193752  0.565477  0  4.252096  0
C  C232  1  0.16920979  0.03614698  0.36174529  1  0.45745  0  0.041961  0.093441  0  3.976715  0
C  C233  1  0.13199474  0.02111348  0.41396430  1  0.033791  0  -0.08925  -0.186116  0  3.962822  0
C  C234  1  0.02542175  0.04422335  0.42788143  1  -0.033414  0  0.001864  0.137022  0  4.054222  0
C  C235  1  0.96296072  0.08476782  0.38761402  1  0.014227  0  -0.078445  -0.174191  0  3.9129  0
C  C236  1  0.00672981  0.09746339  0.33610347  1  0.497924  0  0.052014  0.112392  0  3.941048  0
C  C237  1  0.97748154  0.02489147  0.48049812  1  -0.115408  0  -0.081821  -0.119307  0  3.972708  0
C  C238  1  0.89951488  0.30447889  0.31371373  1  0.339847  0  0.041752  -0.029527  0  3.838163  0
C  C239  1  0.96651423  0.32589790  0.35673012  1  0.017885  0  -0.079191  -0.104879  0  4.0398  0
C  C240  1  0.06244864  0.37035570  0.34734830  1  -0.009824  0  -0.071976  -0.071294  0  3.951092  0
C  C241  1  0.09042911  0.39142377  0.29396701  1  0.082516  0  0.003876  -0.05364  0  3.93027  0
C  C242  1  0.02304335  0.36669337  0.25130944  1  0.443278  0  0.128897  0.073686  0  3.862836  0
C  C243  1  0.04261616  0.38393273  0.19267010  1  0.47019  0  0.14467  0.109227  0  3.845308  0
C  C244  1  0.08012114  0.32298796  0.15512654  1  0.028165  0  0.004  -0.06349  0  3.91171  0
C  C245  1  0.08738923  0.34518663  0.10024860  1  0.015956  0  -0.070823  -0.068716  0  3.961516  0
C  C246  1  0.05434734  0.42673622  0.08314122  1  -0.015405  0  -0.082962  -0.118623  0  4.053604  0
C  C247  1  0.01928762  0.48608521  0.12119289  1  0.355039  0  0.048114  -0.024583  0  3.853288  0
C  C248  1  0.18844027  0.44455561  0.28107458  1  1.594644  0  0.193467  0.573787  0  4.231774  0
C  C249  1  0.11940186  0.23540187  0.17365167  1  1.611608  0  0.193648  0.565388  0  4.25236  0
C  C250  1  0.33079236  0.53614630  0.13825440  1  0.443178  0  0.041979  0.093526  0  3.976739  0
C  C251  1  0.36800732  0.52111192  0.08603501  1  0.033956  0  -0.089242  -0.186056  0  3.962819  0
C  C252  1  0.47458127  0.54422549  0.07211702  1  -0.033401  0  0.001859  0.137028  0  4.054246  0
C  C253  1  0.53704179  0.58476742  0.11238537  1  0.013737  0  -0.078458  -0.174258  0  3.913093  0
C  C254  1  0.49327190  0.59746257  0.16389610  1  0.498252  0  0.051959  0.11231  0  3.941321  0
C  C255  1  0.52251899  0.52489148  0.01950261  1  -0.01254  0  -0.08181  -0.119313  0  3.97299  0
N  N256  1  0.42755195  0.32486766  0.23831723  1  -0.599545  0  -0.100956  0.302131  0  3.952301  0
N  N257  1  0.51652496  0.46510862  0.32509360  1  -0.626917  0  -0.100621  0.300168  0  3.909551  0
N  N258  1  0.89251372  0.57309334  0.32307140  1  -1.241226  0  -0.324713  -0.235644  0  3.483735  0
N  N259  1  0.07244871  0.82486730  0.26168554  1  -0.59976  0  -0.100969  0.302138  0  3.952612  0
N  N260  1  0.98347579  0.96511092  0.17490787  1  -0.626898  0  -0.100644  0.300153  0  3.909429  0
N  N261  1  0.60749034  0.07309664  0.17692760  1  -1.241282  0  -0.324763  -0.235668  0  3.483867  0
N  N262  1  0.42755104  0.17513250  0.76168125  1  -0.599178  0  -0.100938  0.302202  0  3.95227  0
N  N263  1  0.51652767  0.03488996  0.67490680  1  -0.626708  0  -0.100649  0.300123  0  3.909574  0
N  N264  1  0.89251150  0.92691002  0.67692755  1  -1.24145  0  -0.324734  -0.235672  0  3.483757  0
N  N265  1  0.07244792  0.67513290  0.73831482  1  -0.599761  0  -0.100877  0.302193  0  3.952724  0
N  N266  1  0.98347374  0.53489022  0.82509300  1  -0.626897  0  -0.100594  0.300098  0  3.909604  0
N  N267  1  0.60749064  0.42690357  0.82307391  1  -1.241244  0  -0.32483  -0.235792  0  3.483663  0
N  N268  1  0.57244789  0.67513187  0.76168839  1  -0.600473  0  -0.100942  0.302263  0  3.952709  0
N  N269  1  0.48347650  0.53488898  0.67491080  1  -0.626691  0  -0.100537  0.300263  0  3.909572  0
N  N270  1  0.10748854  0.42690555  0.67692609  1  -1.241085  0  -0.324803  -0.235745  0  3.483755  0
N  N271  1  0.92755436  0.17512966  0.73831398  1  -0.599842  0  -0.100905  0.302308  0  3.952509  0
N  N272  1  0.01652647  0.03489119  0.82509084  1  -0.626931  0  -0.100668  0.300086  0  3.909446  0
N  N273  1  0.39251435  0.92690289  0.82307192  1  -1.241188  0  -0.324692  -0.235489  0  3.483847  0
N  N274  1  0.57245041  0.82486897  0.23831543  1  -0.599767  0  -0.100909  0.302325  0  3.952417  0
N  N275  1  0.48347378  0.96511151  0.32509312  1  -0.626908  0  -0.100638  0.30015  0  3.909434  0
N  N276  1  0.10749076  0.07309853  0.32307157  1  -1.241183  0  -0.324783  -0.235714  0  3.483812  0
N  N277  1  0.92754707  0.32487115  0.26168307  1  -0.599416  0  -0.10097  0.302177  0  3.952206  0
N  N278  1  0.01652367  0.46511061  0.17490327  1  -0.62678  0  -0.100487  0.300305  0  3.909193  0
N  N279  1  0.39251243  0.57309725  0.17692723  1  -1.241136  0  -0.324792  -0.235758  0  3.483913  0
O  O280  1  0.72890190  0.48956017  0.18027478  1  -1.137993  0  -0.33554  -0.561196  0  2.179814  0
O  O281  1  0.72058928  0.44701508  0.26769090  1  -1.158486  0  -0.317606  -0.557188  0  2.219454  0
O  O282  1  0.67476367  0.19090945  0.35893455  1  -1.176385  0  -0.345567  -0.580565  0  2.073697  0
O  O283  1  0.59549458  0.21348039  0.27759549  1  -1.136776  0  -0.320711  -0.539631  0  2.2573  0
O  O284  1  0.36550920  0.30324423  0.27918292  1  -0.592716  0  -0.22372  -0.44488  0  1.954011  0
O  O285  1  0.49387361  0.52558137  0.28910521  1  -0.649483  0  -0.231643  -0.496217  0  2.144428  0
O  O286  1  0.66584829  0.63797104  0.27342803  1  -1.284434  0  -0.600346  -0.787693  0  2.115276  0
O  O287  1  0.77109900  0.98956028  0.31972827  1  -1.138084  0  -0.335611  -0.561298  0  2.179935  0
O  O288  1  0.77941378  0.94701824  0.23231224  1  -1.158513  0  -0.317608  -0.557157  0  2.219397  0
O  O289  1  0.82522331  0.69091711  0.14106869  1  -1.1765  0  -0.345637  -0.580701  0  2.073784  0
O  O290  1  0.90451275  0.71347828  0.22240405  1  -1.136804  0  -0.320766  -0.539773  0  2.257298  0
O  O291  1  0.13449132  0.80324238  0.22082030  1  -0.592574  0  -0.223726  -0.44488  0  1.954038  0
O  O292  1  0.00612444  0.02558540  0.21089450  1  -0.649555  0  -0.231605  -0.496177  0  2.144308  0
O  O293  1  0.83416343  0.13798141  0.22659484  1  -1.284458  0  -0.600446  -0.787607  0  2.115551  0
O  O294  1  0.72889649  0.01044052  0.81972455  1  -1.138049  0  -0.335506  -0.561123  0  2.180102  0
O  O295  1  0.72058698  0.05298557  0.73230844  1  -1.158533  0  -0.317641  -0.55717  0  2.21954  0
O  O296  1  0.67476900  0.30908845  0.64106525  1  -1.176448  0  -0.345566  -0.580577  0  2.073731  0
O  O297  1  0.59549049  0.28651978  0.72240279  1  -1.136677  0  -0.32074  -0.539744  0  2.257202  0
O  O298  1  0.36550862  0.19675827  0.72081685  1  -0.592765  0  -0.223706  -0.444909  0  1.954022  0
O  O299  1  0.49387555  0.97441658  0.71089463  1  -0.64953  0  -0.231623  -0.49619  0  2.144375  0
O  O300  1  0.66584706  0.86202823  0.72657282  1  -1.284445  0  -0.600299  -0.787609  0  2.115374  0
O  O301  1  0.77109669  0.51043746  0.68027326  1  -1.138164  0  -0.335595  -0.561255  0  2.179967  0
O  O302  1  0.77941212  0.55298211  0.76768888  1  -1.158566  0  -0.317631  -0.557151  0  2.219401  0
O  O303  1  0.82522031  0.80908277  0.85893034  1  -1.176453  0  -0.345622  -0.580712  0  2.073777  0
O  O304  1  0.90451081  0.78652319  0.77759326  1  -1.136556  0  -0.320775  -0.539804  0  2.257164  0
O  O305  1  0.13448965  0.69675806  0.77917917  1  -0.592578  0  -0.223752  -0.44492  0  1.954249  0
O  O306  1  0.00612278  0.47441571  0.78910572  1  -0.649489  0  -0.231655  -0.496233  0  2.144438  0
O  O307  1  0.83416520  0.36201775  0.77340680  1  -1.284449  0  -0.600484  -0.787723  0  2.115414  0
O  O308  1  0.27109390  0.51044195  0.81972881  1  -1.138103  0  -0.335616  -0.561241  0  2.179912  0
O  O309  1  0.27941298  0.55298445  0.73231351  1  -1.158819  0  -0.317608  -0.557175  0  2.219565  0
O  O310  1  0.32522485  0.80908171  0.64106985  1  -1.176357  0  -0.345616  -0.580681  0  2.073735  0
O  O311  1  0.40451819  0.78652172  0.72240525  1  -1.136564  0  -0.320829  -0.53983  0  2.257183  0
O  O312  1  0.63449063  0.69675788  0.72082392  1  -0.592523  0  -0.223667  -0.444835  0  1.954135  0
O  O313  1  0.50612381  0.47441558  0.71089879  1  -0.649659  0  -0.231644  -0.496274  0  2.144137  0
O  O314  1  0.33417175  0.36202076  0.72661299  1  -1.284936  0  -0.600624  -0.787894  0  2.115498  0
O  O315  1  0.22890650  0.01043926  0.68027247  1  -1.138144  0  -0.335616  -0.561233  0  2.179958  0
O  O316  1  0.22059090  0.05298387  0.76768728  1  -1.158554  0  -0.317605  -0.55715  0  2.219499  0
O  O317  1  0.17476521  0.30908887  0.85893287  1  -1.176362  0  -0.345621  -0.580674  0  2.073647  0
O  O318  1  0.09548952  0.28652061  0.77759507  1  -1.136832  0  -0.320758  -0.539769  0  2.257339  0
O  O319  1  0.86551579  0.19675458  0.77918004  1  -0.592472  0  -0.223726  -0.444922  0  1.954021  0
O  O320  1  0.99387458  0.97441542  0.78910462  1  -0.649591  0  -0.231623  -0.496175  0  2.144227  0
O  O321  1  0.16583964  0.86202457  0.77341282  1  -1.284366  0  -0.600383  -0.787698  0  2.11535  0
O  O322  1  0.27109688  0.98956031  0.18027334  1  -1.138119  0  -0.335612  -0.561282  0  2.179883  0
O  O323  1  0.27941367  0.94701654  0.26768986  1  -1.158452  0  -0.317636  -0.557187  0  2.219392  0
O  O324  1  0.32523084  0.69091173  0.35892939  1  -1.176294  0  -0.345684  -0.58072  0  2.073716  0
O  O325  1  0.40451500  0.71347911  0.27759389  1  -1.136964  0  -0.320807  -0.539771  0  2.257155  0
O  O326  1  0.63449202  0.80324255  0.27918023  1  -0.592643  0  -0.223738  -0.44495  0  1.953978  0
O  O327  1  0.50612429  0.02558746  0.28910692  1  -0.649516  0  -0.231607  -0.496153  0  2.144241  0
O  O328  1  0.33416813  0.13798161  0.27339619  1  -1.284747  0  -0.600431  -0.787553  0  2.115661  0
O  O329  1  0.22889911  0.48955821  0.31972707  1  -1.137997  0  -0.335543  -0.561238  0  2.179927  0
O  O330  1  0.22058691  0.44701807  0.23230942  1  -1.158467  0  -0.317639  -0.557243  0  2.219315  0
O  O331  1  0.17476659  0.19091096  0.14106796  1  -1.176312  0  -0.345619  -0.580697  0  2.073686  0
O  O332  1  0.09548822  0.21348085  0.22240464  1  -1.13684  0  -0.320706  -0.539665  0  2.257262  0
O  O333  1  0.86550372  0.30324534  0.22081791  1  -0.59276  0  -0.223697  -0.444902  0  1.953953  0
O  O334  1  0.99386979  0.52558640  0.21088810  1  -0.649391  0  -0.231688  -0.496289  0  2.144317  0
O  O335  1  0.16583302  0.63797857  0.22659842  1  -1.284592  0  -0.600474  -0.787618  0  2.115553  0
