# generated using pymatgen
data_AlH7C16N4O9
_symmetry_space_group_name_H-M   'P 1'
_cell_length_a   6.94894408
_cell_length_b   23.99138165
_cell_length_c   27.34082966
_cell_angle_alpha   94.37560343
_cell_angle_beta   89.99968610
_cell_angle_gamma   89.99999911
_symmetry_Int_Tables_number   1
_chemical_formula_structural   AlH7C16N4O9
_chemical_formula_sum   'Al4 H28 C64 N16 O36'
_cell_volume   4544.83469220
_cell_formula_units_Z   4
loop_
 _symmetry_equiv_pos_site_id
 _symmetry_equiv_pos_as_xyz
  1  'x, y, z'
loop_
 _atom_site_type_symbol
 _atom_site_label
 _atom_site_symmetry_multiplicity
 _atom_site_fract_x
 _atom_site_fract_y
 _atom_site_fract_z
 _atom_site_occupancy
 _atom_site_pbe_bader_charge
 _atom_site_pbe_bader_spin_density
 _atom_site_pbe_cm5_charge
 _atom_site_pbe_ddec_charge
 _atom_site_pbe_ddec_spin_density
 _atom_site_pbe_ddec_sum_bond_order
 _atom_site_pbe_magmom
Al  Al0  1  0.78493565  0.25007460  0.75071700  1  2.507282  0  0.409381  1.646288  0  2.538677  0
Al  Al1  1  0.21506309  0.74992801  0.24928093  1  2.507225  0  0.409361  1.646183  0  2.538822  0
Al  Al2  1  0.28493164  0.24992767  0.74928056  1  2.507266  0  0.409361  1.646008  0  2.539057  0
Al  Al3  1  0.71506565  0.75007395  0.25071554  1  2.507202  0  0.409404  1.646263  0  2.538722  0
H  H4  1  0.26530367  0.64644234  0.12839204  1  0.199533  0  0.113534  0.110702  0  1.093464  0
H  H5  1  0.73469938  0.35355515  0.87160444  1  0.199427  0  0.11356  0.110768  0  1.093634  0
H  H6  1  0.76529501  0.85355875  0.37160400  1  0.199486  0  0.1135  0.110693  0  1.093512  0
H  H7  1  0.23470948  0.14645083  0.62838804  1  0.199548  0  0.113536  0.110688  0  1.093584  0
H  H8  1  0.27908353  0.57550761  0.05576868  1  0.140183  0  0.109571  0.111636  0  1.048433  0
H  H9  1  0.72090082  0.42448120  0.94423332  1  0.140659  0  0.109525  0.111609  0  1.048526  0
H  H10  1  0.77909632  0.92448662  0.44422992  1  0.14027  0  0.10957  0.111687  0  1.048513  0
H  H11  1  0.22091680  0.07551631  0.55576691  1  0.140767  0  0.109588  0.111676  0  1.048478  0
H  H12  1  0.27924867  0.64781630  0.35616915  1  0.108018  0  0.110873  0.116271  0  0.997366  0
H  H13  1  0.72074719  0.35218750  0.64382805  1  0.108073  0  0.110891  0.116239  0  0.997314  0
H  H14  1  0.77925785  0.85218479  0.14382687  1  0.108025  0  0.110846  0.116229  0  0.997364  0
H  H15  1  0.22074952  0.14781138  0.85616888  1  0.108125  0  0.110896  0.116226  0  0.99731  0
H  H16  1  0.29211177  0.58187311  0.42331664  1  0.103728  0  0.106603  0.10477  0  1.026614  0
H  H17  1  0.70787401  0.41813609  0.57668495  1  0.103814  0  0.106688  0.104888  0  1.026415  0
H  H18  1  0.79212384  0.91813203  0.07668265  1  0.103858  0  0.10671  0.104915  0  1.026386  0
H  H19  1  0.20789073  0.08186777  0.92331638  1  0.103694  0  0.106604  0.104784  0  1.026622  0
H  H20  1  0.67356540  0.57385792  0.42400375  1  0.119013  0  0.107007  0.105588  0  1.024979  0
H  H21  1  0.32642901  0.42614536  0.57599234  1  0.119051  0  0.107053  0.105631  0  1.0249  0
H  H22  1  0.17357519  0.92614546  0.07599460  1  0.119135  0  0.107035  0.105582  0  1.025022  0
H  H23  1  0.82643649  0.07386300  0.92400808  1  0.118813  0  0.107021  0.10555  0  1.024996  0
H  H24  1  0.66209675  0.64012340  0.35699600  1  0.069038  0  0.110082  0.114693  0  0.997406  0
H  H25  1  0.33789910  0.35987385  0.64299791  1  0.068986  0  0.110099  0.114641  0  0.997527  0
H  H26  1  0.16210510  0.85987735  0.14300092  1  0.068967  0  0.110062  0.114623  0  0.997552  0
H  H27  1  0.83790083  0.14012761  0.85699994  1  0.068821  0  0.110073  0.114635  0  0.997525  0
H  H28  1  0.53549760  0.32312601  0.76469045  1  0.616271  0  0.331533  0.412491  0  0.892181  0
H  H29  1  0.46449969  0.67687520  0.23531041  1  0.616357  0  0.331589  0.412582  0  0.892051  0
H  H30  1  0.03549677  0.17687392  0.73530893  1  0.616336  0  0.331558  0.412516  0  0.892165  0
H  H31  1  0.96450196  0.82312765  0.26469121  1  0.616233  0  0.331565  0.412551  0  0.892107  0
C  C32  1  0.53456025  0.18584438  0.81244134  1  1.551379  0  0.270972  0.648516  0  4.079223  0
C  C33  1  0.46543560  0.81415618  0.18755696  1  1.551171  0  0.270954  0.648249  0  4.079545  0
C  C34  1  0.03456189  0.31415525  0.68755474  1  1.551333  0  0.270937  0.648181  0  4.079815  0
C  C35  1  0.96543828  0.68584405  0.31243879  1  1.551437  0  0.270945  0.648373  0  4.079271  0
C  C36  1  0.53434437  0.18240759  0.68112194  1  1.604889  0  0.277905  0.654665  0  4.074999  0
C  C37  1  0.46565724  0.81759464  0.31887635  1  1.604247  0  0.277925  0.654697  0  4.0749  0
C  C38  1  0.03433886  0.31759631  0.81887523  1  1.604527  0  0.277912  0.65468  0  4.075036  0
C  C39  1  0.96565555  0.68240534  0.18112124  1  1.60502  0  0.27791  0.654545  0  4.075087  0
C  C40  1  0.80190515  0.57396782  0.07988232  1  0.278618  0  0.094835  -0.018527  0  3.885754  0
C  C41  1  0.19808351  0.42602315  0.92012041  1  0.278334  0  0.094701  -0.01863  0  3.8857  0
C  C42  1  0.30191041  0.92602623  0.42011882  1  0.278334  0  0.094829  -0.018836  0  3.885842  0
C  C43  1  0.69809695  0.07396743  0.57988610  1  0.278671  0  0.094944  -0.018258  0  3.885556  0
C  C44  1  0.79653843  0.61316405  0.12003366  1  0.25497  0  0.098176  0.019952  0  3.939963  0
C  C45  1  0.20345742  0.38683014  0.87996796  1  0.254789  0  0.098201  0.020021  0  3.939901  0
C  C46  1  0.29654169  0.88683588  0.37996343  1  0.254907  0  0.098077  0.02011  0  3.939844  0
C  C47  1  0.70346712  0.11316405  0.62003708  1  0.25444  0  0.098111  0.020004  0  3.939757  0
C  C48  1  0.96418673  0.63925969  0.13840648  1  0.061593  0  0.003551  -0.067534  0  3.924698  0
C  C49  1  0.03580625  0.36073774  0.86159403  1  0.060636  0  0.003594  -0.067601  0  3.924747  0
C  C50  1  0.46419181  0.86074043  0.36159258  1  0.060881  0  0.003631  -0.067539  0  3.924523  0
C  C51  1  0.53581411  0.13926184  0.63840608  1  0.061898  0  0.003552  -0.067648  0  3.924743  0
C  C52  1  0.13694043  0.62481634  0.11464149  1  -0.06563  0  -0.067969  -0.056979  0  3.935671  0
C  C53  1  0.86305254  0.37518023  0.88535866  1  -0.064759  0  -0.068035  -0.057081  0  3.936091  0
C  C54  1  0.63694155  0.87518228  0.38535950  1  -0.06487  0  -0.067985  -0.056993  0  3.935872  0
C  C55  1  0.36306726  0.12482207  0.61463916  1  -0.065517  0  -0.067978  -0.056983  0  3.935938  0
C  C56  1  0.14464132  0.58606726  0.07449381  1  0.043482  0  -0.062887  -0.082492  0  3.873522  0
C  C57  1  0.85535022  0.41392383  0.92551038  1  0.043033  0  -0.062786  -0.08242  0  3.873409  0
C  C58  1  0.64464588  0.91392659  0.42550975  1  0.043059  0  -0.062844  -0.082584  0  3.873514  0
C  C59  1  0.35536292  0.08607539  0.57449039  1  0.042399  0  -0.062864  -0.082499  0  3.87356  0
C  C60  1  0.97691040  0.55898757  0.05632047  1  0.133911  0  0.024699  0.121355  0  4.071483  0
C  C61  1  0.02308545  0.44100394  0.94368373  1  0.133306  0  0.024631  0.121185  0  4.071446  0
C  C62  1  0.47690797  0.94100279  0.44368594  1  0.133561  0  0.024667  0.121445  0  4.071133  0
C  C63  1  0.52309796  0.05899212  0.55631898  1  0.13356  0  0.024625  0.121133  0  4.071492  0
C  C64  1  0.98851835  0.51797202  0.01671145  1  -0.337687  0  -0.017302  -0.05663  0  4.044027  0
C  C65  1  0.01151204  0.48202147  0.98329164  1  0.083053  0  -0.017101  -0.056176  0  4.043977  0
C  C66  1  0.48848628  0.98201818  0.48329788  1  -0.337336  0  -0.017344  -0.056567  0  4.043903  0
C  C67  1  0.51149518  0.01797481  0.51670888  1  0.08343  0  -0.017112  -0.056238  0  4.043969  0
C  C68  1  0.14810915  0.63135769  0.37149761  1  0.001102  0  -0.076817  -0.080905  0  3.964109  0
C  C69  1  0.85188526  0.36864698  0.62849995  1  0.000264  0  -0.076859  -0.080913  0  3.963948  0
C  C70  1  0.64811579  0.86864387  0.12849896  1  0.000711  0  -0.076797  -0.080909  0  3.96407  0
C  C71  1  0.35189014  0.13135541  0.87149898  1  0.000701  0  -0.076879  -0.08084  0  3.964014  0
C  C72  1  0.15519616  0.59491123  0.40851003  1  -0.021224  0  -0.079164  -0.106333  0  3.962319  0
C  C73  1  0.84479250  0.40509498  0.59149083  1  -0.021323  0  -0.079286  -0.106548  0  3.96225  0
C  C74  1  0.65520791  0.90509100  0.09148946  1  -0.021565  0  -0.0793  -0.106544  0  3.962334  0
C  C75  1  0.34480377  0.09490793  0.90850921  1  -0.021333  0  -0.079151  -0.106403  0  3.96219  0
C  C76  1  0.98365852  0.57395963  0.42740374  1  -0.003788  0  0.000181  0.026391  0  3.98204  0
C  C77  1  0.01633014  0.42604501  0.57259346  1  -0.004827  0  0.000232  0.026591  0  3.981947  0
C  C78  1  0.48366982  0.92604327  0.07259382  1  -0.004712  0  0.000257  0.026557  0  3.982109  0
C  C79  1  0.51634330  0.07395948  0.92740558  1  -0.003916  0  0.000235  0.026538  0  3.981865  0
C  C80  1  0.80503158  0.59044054  0.40894136  1  -0.066745  0  -0.078825  -0.107876  0  3.954348  0
C  C81  1  0.19496140  0.40956059  0.59105401  1  -0.066619  0  -0.078809  -0.107843  0  3.954282  0
C  C82  1  0.30504248  0.90956199  0.09105682  1  -0.066642  0  -0.078854  -0.10789  0  3.954578  0
C  C83  1  0.69496920  0.09044474  0.90894514  1  -0.06684  0  -0.078778  -0.107772  0  3.954476  0
C  C84  1  0.79882384  0.62704154  0.37194177  1  0.011603  0  -0.075641  -0.079063  0  3.958677  0
C  C85  1  0.20117058  0.37296004  0.62805397  1  0.011801  0  -0.075763  -0.079153  0  3.958763  0
C  C86  1  0.29883107  0.87296096  0.12805605  1  0.011783  0  -0.075626  -0.078963  0  3.958683  0
C  C87  1  0.70117774  0.12704491  0.87194554  1  0.012138  0  -0.075716  -0.07906  0  3.958822  0
C  C88  1  0.97018821  0.64753422  0.35287677  1  -0.064052  0  -0.010368  -0.039678  0  3.958968  0
C  C89  1  0.02981052  0.35246705  0.64712006  1  -0.063231  0  -0.010308  -0.039449  0  3.958686  0
C  C90  1  0.47019359  0.85246483  0.14711971  1  -0.063661  0  -0.010357  -0.03957  0  3.958817  0
C  C91  1  0.52980802  0.14753497  0.85287932  1  -0.063634  0  -0.010429  -0.039862  0  3.958969  0
C  C92  1  0.00784437  0.46531492  0.53390105  1  0.968256  0  0.243605  0.244391  0  3.978606  0
C  C93  1  0.99213997  0.53469373  0.46609907  1  0.967665  0  0.243656  0.244583  0  3.978417  0
C  C94  1  0.50785958  0.03469086  0.96609836  1  0.967615  0  0.243644  0.244529  0  3.978562  0
C  C95  1  0.49215354  0.96531003  0.03389884  1  0.968386  0  0.243576  0.244406  0  3.978556  0
N  N96  1  0.82397611  0.51494554  0.48298577  1  -0.516107  0  -0.150393  -0.139889  0  3.207896  0
N  N97  1  0.17601111  0.48506803  0.51701800  1  -0.515202  0  -0.150415  -0.13991  0  3.20782  0
N  N98  1  0.32399004  0.98505915  0.01701311  1  -0.515229  0  -0.150468  -0.139963  0  3.207967  0
N  N99  1  0.67602452  0.01493955  0.98298300  1  -0.515397  0  -0.150435  -0.13993  0  3.208068  0
N  N100  1  0.83197839  0.47968733  0.51746219  1  -0.586781  0  -0.150488  -0.142173  0  3.210531  0
N  N101  1  0.16800739  0.52032498  0.48254159  1  -0.58724  0  -0.150533  -0.142131  0  3.210139  0
N  N102  1  0.33199384  0.02031801  0.98253713  1  -0.587229  0  -0.15043  -0.1421  0  3.210394  0
N  N103  1  0.66801929  0.97968146  0.01745824  1  -0.58729  0  -0.150499  -0.142109  0  3.210578  0
N  N104  1  0.62251407  0.54850188  0.06055072  1  0.3759  0  0.057788  0.509935  0  4.231048  0
N  N105  1  0.37747891  0.45148883  0.93945384  1  0.376751  0  0.057969  0.510342  0  4.231403  0
N  N106  1  0.12252036  0.95149159  0.43945324  1  0.375879  0  0.057716  0.510126  0  4.231482  0
N  N107  1  0.87748557  0.04849970  0.56055316  1  0.375943  0  0.057774  0.509715  0  4.231147  0
N  N108  1  0.60881617  0.63221771  0.14005045  1  0.415709  0  0.063285  0.514917  0  4.238202  0
N  N109  1  0.39117825  0.36777857  0.85995117  1  0.416477  0  0.063288  0.514946  0  4.238537  0
N  N110  1  0.10881985  0.86778203  0.35994911  1  0.415741  0  0.063084  0.514501  0  4.238048  0
N  N111  1  0.89118895  0.13221671  0.64005213  1  0.415869  0  0.063095  0.514549  0  4.23776  0
O  O112  1  0.36948318  0.19834275  0.69644963  1  -1.244166  0  -0.219609  -0.565123  0  2.346395  0
O  O113  1  0.63051843  0.80165750  0.30354977  1  -1.244097  0  -0.219637  -0.565276  0  2.346352  0
O  O114  1  0.86948318  0.30165801  0.80354965  1  -1.244425  0  -0.219632  -0.565274  0  2.346493  0
O  O115  1  0.13050980  0.69834304  0.19644939  1  -1.244238  0  -0.219575  -0.5652  0  2.34643  0
O  O116  1  0.70004743  0.20015190  0.79739623  1  -1.257875  0  -0.236682  -0.598278  0  2.341624  0
O  O117  1  0.29994699  0.79984763  0.20259987  1  -1.257775  0  -0.236709  -0.598208  0  2.341742  0
O  O118  1  0.20005162  0.29984232  0.70259523  1  -1.25788  0  -0.236712  -0.598197  0  2.341919  0
O  O119  1  0.79994711  0.70015204  0.29739428  1  -1.257952  0  -0.236728  -0.598266  0  2.341658  0
O  O120  1  0.69668971  0.19861707  0.69810163  1  -1.250271  0  -0.224964  -0.584254  0  2.394849  0
O  O121  1  0.30330614  0.80138805  0.30189630  1  -1.249662  0  -0.224928  -0.584159  0  2.394695  0
O  O122  1  0.19669177  0.30138893  0.80189568  1  -1.249721  0  -0.224908  -0.584123  0  2.394714  0
O  O123  1  0.80330121  0.69861387  0.19809968  1  -1.250227  0  -0.22506  -0.584188  0  2.394727  0
O  O124  1  0.87178244  0.29975071  0.70420605  1  -1.25416  0  -0.236886  -0.600561  0  2.356846  0
O  O125  1  0.12822061  0.70025326  0.29579298  1  -1.254304  0  -0.236873  -0.600565  0  2.356652  0
O  O126  1  0.37177743  0.20025348  0.79579432  1  -1.254256  0  -0.236923  -0.600595  0  2.356572  0
O  O127  1  0.62821555  0.79974850  0.20420582  1  -1.254125  0  -0.236899  -0.60059  0  2.356679  0
O  O128  1  0.53489189  0.28416623  0.75189291  1  -1.422694  0  -0.454548  -0.984986  0  2.111495  0
O  O129  1  0.46510396  0.71583632  0.24810429  1  -1.422738  0  -0.454636  -0.985102  0  2.111354  0
O  O130  1  0.03489222  0.21583434  0.74810427  1  -1.422734  0  -0.454593  -0.985006  0  2.111454  0
O  O131  1  0.96510507  0.78416776  0.25189256  1  -1.422697  0  -0.454566  -0.98505  0  2.111261  0
O  O132  1  0.57618662  0.55845631  0.01837227  1  -0.40897  0  -0.103391  -0.298648  0  1.913674  0
O  O133  1  0.53075019  0.51972834  0.08816494  1  -0.422307  0  -0.108093  -0.296417  0  1.88216  0
O  O134  1  0.42379628  0.44153065  0.98163230  1  -0.409355  0  -0.103532  -0.298955  0  1.914092  0
O  O135  1  0.46923847  0.48026905  0.91184438  1  -0.422487  0  -0.108063  -0.296437  0  1.882227  0
O  O136  1  0.07620496  0.94153831  0.48163065  1  -0.409113  0  -0.103373  -0.298783  0  1.914099  0
O  O137  1  0.03074988  0.98026954  0.41184171  1  -0.421935  0  -0.108018  -0.296369  0  1.882166  0
O  O138  1  0.92380097  0.05845201  0.51837428  1  -0.409006  0  -0.103392  -0.298548  0  1.913879  0
O  O139  1  0.96924166  0.01972067  0.58816653  1  -0.422281  0  -0.1081  -0.296413  0  1.882006  0
O  O140  1  0.53498936  0.67039337  0.11847711  1  -0.422004  0  -0.087675  -0.269144  0  1.922276  0
O  O141  1  0.54080834  0.60966360  0.17521494  1  -0.429581  0  -0.091838  -0.287045  0  1.920351  0
O  O142  1  0.46500362  0.32960249  0.88152450  1  -0.4222  0  -0.087657  -0.269131  0  1.922125  0
O  O143  1  0.45919184  0.39033708  0.82478923  1  -0.429792  0  -0.091887  -0.287106  0  1.920711  0
O  O144  1  0.03499546  0.82960923  0.38152181  1  -0.421803  0  -0.087583  -0.26899  0  1.922522  0
O  O145  1  0.04079263  0.89033946  0.32478434  1  -0.429783  0  -0.091739  -0.286864  0  1.919843  0
O  O146  1  0.96501047  0.17038986  0.61847870  1  -0.421762  0  -0.087554  -0.268979  0  1.922424  0
O  O147  1  0.95920754  0.10966016  0.67521727  1  -0.4296  0  -0.091789  -0.286912  0  1.919656  0
