# generated using pymatgen
data_ZnH5C5O6
_symmetry_space_group_name_H-M   'P 1'
_cell_length_a   5.15948070
_cell_length_b   8.33692998
_cell_length_c   16.24059078
_cell_angle_alpha   90.00072745
_cell_angle_beta   89.99982721
_cell_angle_gamma   97.49829048
_symmetry_Int_Tables_number   1
_chemical_formula_structural   ZnH5C5O6
_chemical_formula_sum   'Zn4 H20 C20 O24'
_cell_volume   692.60279763
_cell_formula_units_Z   4
loop_
 _symmetry_equiv_pos_site_id
 _symmetry_equiv_pos_as_xyz
  1  'x, y, z'
loop_
 _atom_site_type_symbol
 _atom_site_label
 _atom_site_symmetry_multiplicity
 _atom_site_fract_x
 _atom_site_fract_y
 _atom_site_fract_z
 _atom_site_occupancy
 _atom_site_pbe_bader_spin_density
 _atom_site_pbe_cm5_charge
 _atom_site_pbe_ddec_charge
 _atom_site_pbe_ddec_spin_density
 _atom_site_pbe_ddec_sum_bond_order
 _atom_site_pbe_magmom
Zn  Zn0  1  0.34031947  0.37381573  0.33509477  1  0  0.690498  0.998194  0  2.167259  0
Zn  Zn1  1  0.15969101  0.12618257  0.83509372  1  0  0.690502  0.998192  0  2.167366  0
Zn  Zn2  1  0.65968437  0.62619122  0.66490487  1  0  0.690518  0.998244  0  2.167292  0
Zn  Zn3  1  0.84030562  0.87380866  0.16490345  1  0  0.690483  0.998173  0  2.167387  0
H  H4  1  0.64640390  0.65054223  0.31136239  1  0  0.296906  0.389464  0  0.947792  0
H  H5  1  0.85360559  0.84945515  0.81136322  1  0  0.296904  0.389462  0  0.947807  0
H  H6  1  0.35361171  0.34945625  0.68863971  1  0  0.296904  0.389435  0  0.947826  0
H  H7  1  0.14641400  0.15055301  0.18863949  1  0  0.296933  0.389553  0  0.947646  0
H  H8  1  0.60336998  0.64301162  0.41012727  1  0  0.305178  0.401892  0  0.926663  0
H  H9  1  0.89664651  0.85699541  0.91012626  1  0  0.305194  0.401954  0  0.926583  0
H  H10  1  0.39664808  0.35698928  0.58987483  1  0  0.305205  0.401928  0  0.926613  0
H  H11  1  0.10337141  0.14301395  0.08987584  1  0  0.30521  0.401923  0  0.926608  0
H  H12  1  0.94411952  0.52329799  0.38591207  1  0  0.297472  0.409317  0  0.915905  0
H  H13  1  0.55589460  0.97670603  0.88591342  1  0  0.297431  0.409242  0  0.916011  0
H  H14  1  0.05589634  0.47670170  0.61409373  1  0  0.297446  0.409311  0  0.915912  0
H  H15  1  0.44411531  0.02330213  0.11409299  1  0  0.297443  0.409251  0  0.915983  0
H  H16  1  0.20097943  0.56061436  0.44506375  1  0  0.296155  0.387501  0  0.955344  0
H  H17  1  0.29903005  0.93938834  0.94506461  1  0  0.296078  0.38731  0  0.955571  0
H  H18  1  0.79903669  0.43938654  0.55494082  1  0  0.296089  0.387351  0  0.955509  0
H  H19  1  0.70097470  0.06061377  0.05493996  1  0  0.296093  0.387318  0  0.955561  0
H  H20  1  0.75124989  0.36160625  0.10156484  1  0  0.111506  0.118839  0  0.992936  0
H  H21  1  0.74872879  0.13838795  0.60156193  1  0  0.111511  0.118791  0  0.993012  0
H  H22  1  0.24873651  0.63840071  0.89843418  1  0  0.111479  0.11874  0  0.992977  0
H  H23  1  0.25126668  0.86160691  0.39843094  1  0  0.111474  0.118767  0  0.99296  0
C  C24  1  0.45939688  0.55248287  0.17635353  1  0  0.234249  0.631669  0  4.147567  0
C  C25  1  0.04058283  0.94751452  0.67635040  1  0  0.234275  0.631642  0  4.147568  0
C  C26  1  0.54058878  0.44750230  0.82364918  1  0  0.234285  0.631626  0  4.147721  0
C  C27  1  0.95940576  0.05249365  0.32364862  1  0  0.2343  0.63159  0  4.147803  0
C  C28  1  0.47182295  0.52953501  0.08466036  1  0  -0.002528  -0.034821  0  3.929152  0
C  C29  1  0.02814444  0.97045531  0.58465924  1  0  -0.002529  -0.034901  0  3.929138  0
C  C30  1  0.52815002  0.47046348  0.91533866  1  0  -0.002586  -0.034899  0  3.929196  0
C  C31  1  0.97183694  0.02953713  0.41533547  1  0  -0.002516  -0.034821  0  3.929115  0
C  C32  1  0.33138832  0.60913247  0.02672376  1  0  -0.008909  -0.050393  0  3.951702  0
C  C33  1  0.16858561  0.89085886  0.52672136  1  0  -0.008938  -0.050226  0  3.951385  0
C  C34  1  0.66859072  0.39086723  0.97327341  1  0  -0.008859  -0.050259  0  3.951622  0
C  C35  1  0.83139694  0.10912994  0.47327458  1  0  -0.008882  -0.05042  0  3.951725  0
C  C36  1  0.14497132  0.72345565  0.05184278  1  0  0.21661  0.589187  0  4.203352  0
C  C37  1  0.35502435  0.77653871  0.55184005  1  0  0.216636  0.589075  0  4.203432  0
C  C38  1  0.85502516  0.27654404  0.94815809  1  0  0.216501  0.589054  0  4.203564  0
C  C39  1  0.64497408  0.22346098  0.44816021  1  0  0.216594  0.589177  0  4.203643  0
C  C40  1  0.63774730  0.42139401  0.05712213  1  0  -0.076859  -0.110066  0  3.942641  0
C  C41  1  0.86223373  0.07860032  0.55712179  1  0  -0.076917  -0.109933  0  3.942739  0
C  C42  1  0.36223175  0.57860569  0.94287443  1  0  -0.076789  -0.109794  0  3.942439  0
C  C43  1  0.13776367  0.92139454  0.44287477  1  0  -0.076809  -0.109973  0  3.942419  0
O  O44  1  0.35326185  0.42891190  0.21544844  1  0  -0.310377  -0.545947  0  2.333049  0
O  O45  1  0.14671509  0.07107867  0.71544581  1  0  -0.310324  -0.545876  0  2.333166  0
O  O46  1  0.64674049  0.57106964  0.78454997  1  0  -0.310368  -0.545957  0  2.332962  0
O  O47  1  0.85325916  0.92892587  0.28454952  1  0  -0.310378  -0.545917  0  2.333058  0
O  O48  1  0.56843955  0.68154444  0.20999553  1  0  -0.299414  -0.546206  0  2.345661  0
O  O49  1  0.93155159  0.81844443  0.70999423  1  0  -0.299506  -0.546241  0  2.345427  0
O  O50  1  0.43156355  0.31844073  0.79001272  1  0  -0.299469  -0.546138  0  2.345806  0
O  O51  1  0.06844153  0.18155769  0.29001218  1  0  -0.299492  -0.546154  0  2.34561  0
O  O52  1  0.07201150  0.71682957  0.12723168  1  0  -0.307006  -0.539695  0  2.3467  0
O  O53  1  0.42798104  0.78317146  0.62722707  1  0  -0.306964  -0.539617  0  2.346884  0
O  O54  1  0.92800009  0.28317738  0.87276550  1  0  -0.306894  -0.539631  0  2.346431  0
O  O55  1  0.57202371  0.21683065  0.37276949  1  0  -0.306933  -0.539656  0  2.346686  0
O  O56  1  0.06871021  0.81903394  0.99910547  1  0  -0.315131  -0.5738  0  2.268097  0
O  O57  1  0.43129740  0.68097127  0.49910085  1  0  -0.315139  -0.573757  0  2.26816  0
O  O58  1  0.93128109  0.18097785  0.00089232  1  0  -0.315099  -0.573727  0  2.268593  0
O  O59  1  0.56871924  0.31903204  0.50089571  1  0  -0.315139  -0.573755  0  2.268456  0
O  O60  1  0.66085969  0.58366412  0.36195146  1  0  -0.553139  -0.757033  0  2.142516  0
O  O61  1  0.83916252  0.91634053  0.86195028  1  0  -0.553127  -0.757046  0  2.14254  0
O  O62  1  0.33916444  0.41633799  0.63805125  1  0  -0.55312  -0.757021  0  2.142585  0
O  O63  1  0.16085758  0.08367004  0.13805120  1  0  -0.553151  -0.757093  0  2.142509  0
O  O64  1  0.10174522  0.47851709  0.40809751  1  0  -0.57526  -0.768241  0  2.196285  0
O  O65  1  0.39826061  0.02148057  0.90809429  1  0  -0.575169  -0.768024  0  2.196577  0
O  O66  1  0.89826871  0.52148260  0.59190829  1  0  -0.575186  -0.768135  0  2.196549  0
O  O67  1  0.60173924  0.97851670  0.09190657  1  0  -0.575157  -0.767998  0  2.196591  0
