# generated using pymatgen
data_CuH11C9N2ClO2
_symmetry_space_group_name_H-M   'P 1'
_cell_length_a   4.86859736
_cell_length_b   5.68940634
_cell_length_c   19.40136732
_cell_angle_alpha   90.00085424
_cell_angle_beta   89.99952482
_cell_angle_gamma   103.08317434
_symmetry_Int_Tables_number   1
_chemical_formula_structural   CuH11C9N2ClO2
_chemical_formula_sum   'Cu2 H22 C18 N4 Cl2 O4'
_cell_volume   523.45704586
_cell_formula_units_Z   2
loop_
 _symmetry_equiv_pos_site_id
 _symmetry_equiv_pos_as_xyz
  1  'x, y, z'
loop_
 _atom_site_type_symbol
 _atom_site_label
 _atom_site_symmetry_multiplicity
 _atom_site_fract_x
 _atom_site_fract_y
 _atom_site_fract_z
 _atom_site_occupancy
 _atom_site_hle17_ddec_charge
 _atom_site_hle17_ddec_spin_density
 _atom_site_hle17_ddec_sum_bond_order
 _atom_site_hle17_magmom
 _atom_site_hse06_10hf_ddec_charge
 _atom_site_hse06_10hf_ddec_spin_density
 _atom_site_hse06_10hf_ddec_sum_bond_order
 _atom_site_hse06_10hf_magmom
 _atom_site_hse06_ddec_charge
 _atom_site_hse06_ddec_spin_density
 _atom_site_hse06_ddec_sum_bond_order
 _atom_site_hse06_magmom
 _atom_site_pbe_cm5_charge
 _atom_site_pbe_ddec_charge
 _atom_site_pbe_ddec_spin_density
 _atom_site_pbe_ddec_sum_bond_order
 _atom_site_pbe_magmom
Cu  Cu0  1  0.70095279  0.46065372  0.80655953  1  0.766416  -0.652574  1.929833  -0.473  0.730558  -0.742844  2.348234  -0.583  0.819546  -0.807598  2.273114  -0.663  0.675251  0.676953  -0.699336  2.399645  -0.533
Cu  Cu1  1  0.29903583  0.53934030  0.30655571  1  0.766476  -0.652589  1.929855  -0.473  0.730583  -0.74284  2.348336  -0.583  0.819607  -0.807604  2.27313  -0.663  0.675288  0.676997  -0.699346  2.399733  -0.533
H  H2  1  0.84636862  0.75720373  0.91594783  1  0.385907  8.1e-05  0.897029  0.0  0.360136  -0.000511  0.971456  -0.001  0.372769  -0.000247  0.958418  -0.001  0.294527  0.351297  -0.000765  0.980429  -0.001
H  H3  1  0.15361626  0.24279583  0.41594529  1  0.386043  8.2e-05  0.897047  0.0  0.360277  -0.000512  0.971448  -0.001  0.37291  -0.000248  0.958406  -0.001  0.294584  0.351419  -0.000766  0.980439  -0.001
H  H4  1  0.51979605  0.48165629  0.65677981  1  0.080499  -0.001535  0.970117  -0.002  0.086135  -0.00144  1.038568  -0.002  0.088018  -0.001024  1.037006  -0.002  0.107095  0.084586  -0.00175  1.039738  -0.002
H  H5  1  0.48022141  0.51835358  0.15677510  1  0.080458  -0.001532  0.970288  -0.002  0.086114  -0.001438  1.038712  -0.002  0.087995  -0.001023  1.037152  -0.002  0.107148  0.084566  -0.001749  1.039883  -0.002
H  H6  1  0.61101441  0.26791694  0.54744043  1  0.105625  -0.000714  0.952535  -0.001  0.118094  -0.000761  1.007505  -0.001  0.12106  -0.000555  1.006786  -0.001  0.110039  0.115636  -0.000919  1.008578  -0.001
H  H7  1  0.38901102  0.73209831  0.04743866  1  0.105579  -0.000716  0.95257  -0.001  0.118051  -0.000761  1.007533  -0.001  0.121019  -0.000556  1.006819  -0.001  0.110061  0.115614  -0.000919  1.008584  -0.001
H  H8  1  0.91389710  0.97082898  0.55391601  1  0.095665  -0.000452  0.990456  -0.001  0.103453  -0.00013  1.055519  0.0  0.107186  -1.3e-05  1.052045  0.0  0.103429  0.100502  -0.000268  1.05821  0.0
H  H9  1  0.08611960  0.02918397  0.05391680  1  0.095615  -0.000455  0.990449  -0.001  0.103375  -0.00013  1.055541  0.0  0.10711  -1.3e-05  1.052064  0.0  0.103434  0.100434  -0.000268  1.058229  0.0
H  H10  1  0.09628564  0.87522145  0.67111039  1  0.116484  -0.001213  0.944876  -0.001  0.126697  -0.001203  1.004513  -0.001  0.129526  -0.000882  1.004403  -0.001  0.102652  0.12454  -0.001454  1.004942  -0.001
H  H11  1  0.90371428  0.12477310  0.17111054  1  0.116531  -0.001214  0.944827  -0.001  0.126729  -0.001202  1.004491  -0.001  0.129561  -0.000882  1.004371  -0.001  0.102666  0.124571  -0.001454  1.004919  -0.001
H  H12  1  0.23130102  0.11650310  0.79541211  1  0.078595  6.6e-05  0.940336  -0.001  0.085474  0.000163  1.019524  0.0  0.085211  0.000301  1.016926  0.0  0.097894  0.085093  1.8e-05  1.021895  0.0
H  H13  1  0.76868598  0.88349276  0.29541140  1  0.078626  6.4e-05  0.940389  -0.001  0.085485  0.000162  1.019557  0.0  0.085222  0.000301  1.016959  0.0  0.09788  0.085104  1.8e-05  1.021926  0.0
H  H14  1  0.92343733  0.88914274  0.80538602  1  0.061354  -0.002497  0.993657  -0.004  0.067712  -0.0013  1.075492  -0.003  0.066762  -0.000643  1.072733  -0.002  0.090067  0.06745  -0.001811  1.078286  -0.003
H  H15  1  0.07655538  0.11084080  0.30538763  1  0.06147  -0.002497  0.993664  -0.004  0.067788  -0.001301  1.0755  -0.003  0.066829  -0.000643  1.072752  -0.002  0.090127  0.067522  -0.001811  1.078299  -0.003
H  H16  1  0.09375058  0.52946845  0.96375200  1  0.052108  0.000282  0.903953  0.0  0.066356  6e-05  0.958914  0.0  0.06739  0.000115  0.957803  0.0  0.11362  0.065595  -9e-06  0.959913  0.0
H  H17  1  0.90625951  0.47053531  0.46375654  1  0.05212  0.000288  0.90394  0.0  0.066378  6e-05  0.958841  0.0  0.067411  0.000115  0.957724  0.0  0.113598  0.065612  -9e-06  0.959838  0.0
H  H18  1  0.71378073  0.52421060  0.04739579  1  0.101459  -1e-06  0.976912  0.0  0.122223  -0.000142  1.041102  0.0  0.123185  -0.000104  1.041877  0.0  0.086773  0.121644  -0.000163  1.040457  0.0
H  H19  1  0.28626218  0.47583049  0.54739103  1  0.101448  -7e-06  0.977158  0.0  0.122306  -0.000142  1.041208  0.0  0.123263  -0.000104  1.04199  0.0  0.086798  0.121725  -0.000163  1.040564  0.0
H  H20  1  0.48538871  0.28025119  0.00256676  1  0.11754  9.4e-05  0.952738  0.0  0.137572  5.8e-05  1.015696  0.0  0.138948  7.1e-05  1.015694  0.0  0.091869  0.136494  3.5e-05  1.015753  0.0
H  H21  1  0.51460160  0.71978251  0.50255422  1  0.117654  8.6e-05  0.95276  0.0  0.13768  5.8e-05  1.01573  0.0  0.139055  7.1e-05  1.015729  0.0  0.091914  0.136588  3.5e-05  1.0158  0.0
H  H22  1  0.78829109  0.23298928  0.04691179  1  0.109343  -0.000814  0.974759  -0.001  0.129842  -0.00074  1.039344  -0.001  0.130478  -0.00049  1.040344  -0.001  0.091277  0.129496  -0.000969  1.038479  -0.001
H  H23  1  0.21172410  0.76704687  0.54690705  1  0.109398  -0.000818  0.974653  -0.001  0.129843  -0.00074  1.039371  -0.001  0.130481  -0.00049  1.040366  -0.001  0.091296  0.129498  -0.000969  1.038497  -0.001
C  C24  1  0.64546649  0.34565690  0.65601608  1  0.120856  0.013661  3.724594  0.01  0.093027  0.00269  3.977393  0.002  0.101944  0.00467  3.999161  0.004  0.040969  0.087614  0.001227  3.963131  0.001
C  C25  1  0.35454775  0.65433677  0.15601162  1  0.120758  0.013651  3.724694  0.01  0.092918  0.002687  3.977566  0.002  0.101839  0.00467  3.999329  0.004  0.040864  0.087502  0.001225  3.96331  0.001
C  C26  1  0.69886038  0.22836431  0.59656444  1  -0.126436  -0.011705  3.740229  -0.012  -0.138244  -0.00482  3.988277  -0.006  -0.146645  -0.004377  4.009754  -0.005  -0.087051  -0.133075  -0.005082  3.974442  -0.006
C  C27  1  0.30116975  0.77164519  0.09656390  1  -0.126325  -0.011701  3.740115  -0.012  -0.138121  -0.004818  3.988156  -0.006  -0.146515  -0.004377  4.009617  -0.005  -0.087046  -0.132971  -0.005081  3.974325  -0.006
C  C28  1  0.86529862  0.05843968  0.60094958  1  -0.002924  0.014963  3.724999  0.01  -0.021598  0.004868  3.973841  0.003  -0.01559  0.005765  3.989645  0.003  -0.068487  -0.025561  0.004076  3.963675  0.002
C  C29  1  0.13472001  0.94156384  0.10094773  1  -0.002917  0.014977  3.724745  0.01  -0.021576  0.004869  3.973631  0.003  -0.015568  0.005768  3.989427  0.003  -0.068512  -0.025547  0.004076  3.96348  0.002
C  C30  1  0.96776201  0.00801036  0.66482506  1  -0.158536  -0.01068  3.689336  -0.011  -0.175791  -0.004113  3.937235  -0.004  -0.185615  -0.003891  3.95918  -0.004  -0.08305  -0.169483  -0.004212  3.922718  -0.004
C  C31  1  0.03224283  0.99198808  0.16482408  1  -0.158574  -0.010679  3.689217  -0.011  -0.175807  -0.004114  3.937056  -0.004  -0.185664  -0.003892  3.959068  -0.004  -0.083076  -0.169492  -0.004212  3.922535  -0.004
C  C32  1  0.90364196  0.12986709  0.72307733  1  0.263051  0.011015  3.685523  0.007  0.263094  0.001411  3.927481  0.0  0.273741  0.003598  3.94765  0.002  0.128055  0.2562  -0.000245  3.913734  -0.001
C  C33  1  0.09635812  0.87011966  0.22307441  1  0.262762  0.01102  3.685801  0.007  0.262839  0.001411  3.927756  0.0  0.273485  0.003597  3.947918  0.002  0.127984  0.255943  -0.000245  3.914005  -0.001
C  C34  1  0.99880199  0.08255134  0.79394306  1  -0.028359  -0.000831  3.768752  0.001  -0.07455  -0.002243  4.009491  -0.001  -0.067208  -0.000856  4.025167  0.0  -0.069119  -0.07845  -0.00323  3.998742  -0.001
C  C35  1  0.00118252  0.91743194  0.29394045  1  -0.028324  -0.000832  3.76896  0.001  -0.074366  -0.002244  4.00939  -0.001  -0.067023  -0.000854  4.025076  0.0  -0.069083  -0.078281  -0.003229  3.998703  -0.001
C  C36  1  0.92080646  0.21000969  0.90964650  1  0.491634  0.014664  3.830255  0.01  0.456841  0.003319  4.119062  0.002  0.487396  0.004605  4.124257  0.003  0.22042  0.435945  0.002148  4.115092  0.001
C  C37  1  0.07916099  0.78996411  0.40964235  1  0.491968  0.014688  3.829877  0.01  0.457082  0.003318  4.118706  0.002  0.487632  0.004608  4.123909  0.003  0.220608  0.436194  0.00215  4.114737  0.001
C  C38  1  0.87813855  0.42836070  0.95102823  1  0.189751  0.000584  3.597584  0.001  0.169847  -0.001108  3.851707  -0.001  0.175131  -0.000847  3.859931  -0.001  0.002416  0.166011  -0.001387  3.846326  -0.001
C  C39  1  0.12185467  0.57164061  0.45102592  1  0.189686  0.00056  3.597722  0.001  0.169905  -0.001109  3.851683  -0.001  0.175198  -0.000847  3.859888  -0.001  0.002435  0.166074  -0.001387  3.846297  -0.001
C  C40  1  0.70510946  0.36246390  0.01605960  1  -0.345051  -0.000958  3.686915  -0.001  -0.430112  -0.001061  3.926412  -0.001  -0.432418  -0.000568  3.935052  0.0  -0.250985  -0.428116  -0.00156  3.920121  -0.001
C  C41  1  0.29490351  0.63756005  0.51605380  1  -0.34521  -0.000924  3.687319  -0.001  -0.430402  -0.00106  3.926807  -0.001  -0.432709  -0.000568  3.935441  0.0  -0.251121  -0.4284  -0.001559  3.920521  -0.001
N  N42  1  0.74761003  0.29736269  0.71761852  1  -0.33204  -0.099137  3.326449  -0.126  -0.282167  -0.073303  3.612606  -0.099  -0.316009  -0.06076  3.634891  -0.088  -0.346027  -0.262462  -0.07967  3.599754  -0.102
N  N43  1  0.25238594  0.70262393  0.21761802  1  -0.331636  -0.099134  3.326452  -0.126  -0.281874  -0.0733  3.612723  -0.099  -0.315717  -0.060758  3.634989  -0.088  -0.345899  -0.26217  -0.079666  3.599869  -0.102
N  N44  1  0.89726873  0.23433777  0.84249573  1  -0.469011  -0.124421  3.334991  -0.155  -0.439607  -0.078281  3.672874  -0.102  -0.486898  -0.063535  3.695116  -0.089  -0.434599  -0.410692  -0.086174  3.659986  -0.108
N  N45  1  0.10271152  0.76564645  0.34249125  1  -0.469339  -0.124434  3.335235  -0.155  -0.439884  -0.078286  3.673092  -0.102  -0.487178  -0.063539  3.695316  -0.089  -0.43473  -0.410972  -0.086177  3.660206  -0.108
Cl  Cl46  1  0.39660577  0.67171003  0.77261456  1  -0.539626  -0.07159  1.006087  -0.086  -0.519026  -0.0437  1.30463  -0.056  -0.543646  -0.033099  1.277751  -0.046  -0.310485  -0.503103  -0.0504  1.324027  -0.061
Cl  Cl47  1  0.60337407  0.32826972  0.27261526  1  -0.539643  -0.071589  1.006077  -0.086  -0.519058  -0.043701  1.304616  -0.056  -0.543676  -0.033099  1.277715  -0.046  -0.310478  -0.503126  -0.050401  1.324011  -0.061
O  O48  1  0.98904149  0.03363269  0.94037324  1  -0.580528  -0.025266  1.930493  -0.033  -0.532696  -0.011904  2.143596  -0.017  -0.560535  -0.005725  2.137609  -0.009  -0.315805  -0.511207  -0.018908  2.145964  -0.025
O  O49  1  0.01092574  0.96635140  0.44037210  1  -0.580733  -0.025274  1.93009  -0.033  -0.532858  -0.011905  2.143179  -0.017  -0.560703  -0.005726  2.137201  -0.009  -0.315902  -0.511362  -0.018912  2.145555  -0.025
O  O50  1  0.74897637  0.58104312  0.90772557  1  -0.553776  -0.051023  2.153501  -0.068  -0.50326  -0.042964  2.406037  -0.061  -0.533712  -0.033911  2.391938  -0.052  -0.39075  -0.482903  -0.049187  2.416281  -0.066
O  O51  1  0.25100056  0.41894723  0.40771973  1  -0.553892  -0.051018  2.153538  -0.068  -0.503422  -0.042961  2.40606  -0.061  -0.533879  -0.033907  2.391937  -0.052  -0.390834  -0.483051  -0.049184  2.416329  -0.066
