# generated using pymatgen
data_AlH8C4Cl3O2
_symmetry_space_group_name_H-M   'P 1'
_cell_length_a   6.35116176
_cell_length_b   6.39408982
_cell_length_c   13.85212887
_cell_angle_alpha   89.98163298
_cell_angle_beta   90.00742634
_cell_angle_gamma   118.96079605
_symmetry_Int_Tables_number   1
_chemical_formula_structural   AlH8C4Cl3O2
_chemical_formula_sum   'Al2 H16 C8 Cl6 O4'
_cell_volume   492.18939504
_cell_formula_units_Z   2
loop_
 _symmetry_equiv_pos_site_id
 _symmetry_equiv_pos_as_xyz
  1  'x, y, z'
loop_
 _atom_site_type_symbol
 _atom_site_label
 _atom_site_symmetry_multiplicity
 _atom_site_fract_x
 _atom_site_fract_y
 _atom_site_fract_z
 _atom_site_occupancy
 _atom_site_hle17_bader_spin_density
 _atom_site_hle17_ddec_charge
 _atom_site_hle17_ddec_spin_density
 _atom_site_hle17_ddec_sum_bond_order
 _atom_site_hle17_magmom
 _atom_site_hse06_10hf_bader_spin_density
 _atom_site_hse06_10hf_ddec_charge
 _atom_site_hse06_10hf_ddec_spin_density
 _atom_site_hse06_10hf_ddec_sum_bond_order
 _atom_site_hse06_10hf_magmom
 _atom_site_hse06_bader_spin_density
 _atom_site_hse06_ddec_charge
 _atom_site_hse06_ddec_spin_density
 _atom_site_hse06_ddec_sum_bond_order
 _atom_site_hse06_magmom
 _atom_site_pbe_bader_spin_density
 _atom_site_pbe_cm5_charge
 _atom_site_pbe_ddec_charge
 _atom_site_pbe_ddec_spin_density
 _atom_site_pbe_ddec_sum_bond_order
 _atom_site_pbe_magmom
Al  Al0  1  0.44362461  0.95088147  0.25000594  1  0  1.303223  0  2.755517  0  0  1.216979  0  3.03903  0  0  1.251264  0  3.003449  0  0  0.195533  1.191882  0  3.064465  0
Al  Al1  1  0.55639683  0.04913966  0.74999565  1  0  1.30328  0  2.755411  0  0  1.217345  0  3.038583  0  0  1.251633  0  3.002993  0  0  0.195564  1.19225  0  3.064017  0
H  H2  1  0.59712010  0.31314810  0.44342680  1  0  0.079526  0  0.9065  0  0  0.092092  0  0.967873  0  0  0.093521  0  0.966068  0  0  0.10849  0.090906  0  0.969389  0
H  H3  1  0.40286606  0.68685930  0.94347851  1  0  0.079425  0  0.906666  0  0  0.092021  0  0.967992  0  0  0.093458  0  0.966172  0  0  0.108384  0.090826  0  0.969517  0
H  H4  1  0.40283746  0.68688335  0.55658635  1  0  0.07973  0  0.90629  0  0  0.092093  0  0.967728  0  0  0.093583  0  0.965856  0  0  0.108449  0.090891  0  0.969251  0
H  H5  1  0.59710435  0.31307810  0.05650143  1  0  0.079372  0  0.90685  0  0  0.091962  0  0.96812  0  0  0.093418  0  0.966324  0  0  0.108373  0.090775  0  0.969619  0
H  H6  1  0.28498375  0.16145517  0.41036524  1  0  0.092808  0  0.934701  0  0  0.105857  0  0.99623  0  0  0.106443  0  0.995968  0  0  0.112747  0.105304  0  0.996592  0
H  H7  1  0.71503117  0.83855886  0.91042820  1  0  0.092858  0  0.934576  0  0  0.105816  0  0.996229  0  0  0.106393  0  0.995985  0  0  0.112749  0.10527  0  0.996566  0
H  H8  1  0.71497890  0.83854955  0.58966090  1  0  0.092899  0  0.934823  0  0  0.105864  0  0.996257  0  0  0.106445  0  0.996009  0  0  0.112756  0.105307  0  0.996615  0
H  H9  1  0.28494344  0.16136535  0.08955391  1  0  0.093111  0  0.934297  0  0  0.105987  0  0.995982  0  0  0.10659  0  0.995745  0  0  0.112832  0.105429  0  0.996315  0
H  H10  1  0.81326836  0.09642211  0.44121784  1  0  0.079781  0  0.90584  0  0  0.091561  0  0.968238  0  0  0.093119  0  0.966258  0  0  0.108135  0.090302  0  0.969829  0
H  H11  1  0.18674607  0.90358627  0.94116398  1  0  0.079813  0  0.906151  0  0  0.091513  0  0.968355  0  0  0.093079  0  0.966365  0  0  0.108113  0.090254  0  0.969951  0
H  H12  1  0.18671495  0.90362226  0.55881263  1  0  0.079663  0  0.905647  0  0  0.091484  0  0.967983  0  0  0.093004  0  0.966072  0  0  0.10808  0.090225  0  0.969573  0
H  H13  1  0.81324577  0.09634146  0.05881597  1  0  0.079752  0  0.905974  0  0  0.09144  0  0.96829  0  0  0.092951  0  0.966363  0  0  0.108095  0.090179  0  0.969886  0
H  H14  1  0.65747368  0.78737738  0.40682233  1  0  0.09341  0  0.937388  0  0  0.106071  0  0.999027  0  0  0.106676  0  0.998809  0  0  0.111964  0.105513  0  0.999313  0
H  H15  1  0.34256963  0.21267426  0.90672891  1  0  0.09346  0  0.93711  0  0  0.105821  0  0.998944  0  0  0.10642  0  0.998733  0  0  0.111795  0.105269  0  0.999224  0
H  H16  1  0.34256717  0.21272758  0.59319514  1  0  0.093464  0  0.937163  0  0  0.106033  0  0.998905  0  0  0.106651  0  0.998691  0  0  0.111932  0.105475  0  0.999189  0
H  H17  1  0.65740856  0.78725884  0.09325464  1  0  0.093468  0  0.937139  0  0  0.105957  0  0.998858  0  0  0.106562  0  0.998633  0  0  0.111896  0.10539  0  0.999166  0
C  C18  1  0.42642253  0.14454672  0.44924375  1  0  0.05547  0  3.576675  0  0  -0.009489  0  3.845604  0  0  -0.002466  0  3.850208  0  0  -0.064296  -0.014239  0  3.842579  0
C  C19  1  0.57356777  0.85547112  0.94928576  1  0  0.055269  0  3.576955  0  0  -0.009786  0  3.845897  0  0  -0.002775  0  3.850482  0  0  -0.064349  -0.014516  0  3.84284  0
C  C20  1  0.57357319  0.85553646  0.55076145  1  0  0.054731  0  3.578026  0  0  -0.009637  0  3.846259  0  0  -0.002678  0  3.850867  0  0  -0.064297  -0.014351  0  3.843198  0
C  C21  1  0.42639881  0.14444883  0.05069924  1  0  0.054902  0  3.577589  0  0  -0.009997  0  3.846292  0  0  -0.003111  0  3.851044  0  0  -0.064415  -0.01468  0  3.843164  0
C  C22  1  0.64292134  0.92734191  0.44718203  1  0  0.0524  0  3.575891  0  0  -0.011465  0  3.843928  0  0  -0.004571  0  3.848513  0  0  -0.064874  -0.016072  0  3.840829  0
C  C23  1  0.35711723  0.07266358  0.94713080  1  0  0.05249  0  3.57594  0  0  -0.010547  0  3.843172  0  0  -0.003616  0  3.847779  0  0  -0.064423  -0.015193  0  3.840083  0
C  C24  1  0.35714112  0.07273806  0.55282606  1  0  0.052185  0  3.57533  0  0  -0.011524  0  3.843592  0  0  -0.004659  0  3.848253  0  0  -0.064846  -0.016125  0  3.840493  0
C  C25  1  0.64283970  0.92726387  0.05286069  1  0  0.052376  0  3.575818  0  0  -0.010851  0  3.84338  0  0  -0.003914  0  3.847941  0  0  -0.064625  -0.015472  0  3.840296  0
Cl  Cl26  1  0.42924702  0.60799372  0.25006581  1  0  -0.493477  0  1.093844  0  0  -0.470437  0  1.321506  0  0  -0.481307  0  1.303454  0  0  -0.149553  -0.462317  0  1.334046  0
Cl  Cl27  1  0.57081861  0.39205080  0.74995672  1  0  -0.493488  0  1.093971  0  0  -0.470486  0  1.32153  0  0  -0.481366  0  1.303486  0  0  -0.149512  -0.46236  0  1.334064  0
Cl  Cl28  1  0.10118288  0.94214802  0.24998399  1  0  -0.495315  0  1.08766  0  0  -0.472657  0  1.315693  0  0  -0.483608  0  1.297719  0  0  -0.149325  -0.464501  0  1.32822  0
Cl  Cl29  1  0.89883922  0.05786297  0.75001400  1  0  -0.495369  0  1.087636  0  0  -0.472782  0  1.315566  0  0  -0.483736  0  1.29759  0  0  -0.14939  -0.464614  0  1.328092  0
Cl  Cl30  1  0.77676041  0.28548852  0.24996094  1  0  -0.519513  0  1.083611  0  0  -0.498057  0  1.314522  0  0  -0.508395  0  1.295929  0  0  -0.170944  -0.490369  0  1.327447  0
Cl  Cl31  1  0.22327389  0.71450160  0.75002839  1  0  -0.519579  0  1.083572  0  0  -0.498205  0  1.314449  0  0  -0.508536  0  1.295842  0  0  -0.170991  -0.490531  0  1.327405  0
O  O32  1  0.45428299  0.95791101  0.39971333  1  0  -0.350536  0  2.403681  0  0  -0.26234  0  2.636223  0  0  -0.281477  0  2.638208  0  0  -0.17493  -0.248878  0  2.634451  0
O  O33  1  0.54576157  0.04212474  0.89968701  1  0  -0.350642  0  2.404078  0  0  -0.262672  0  2.636409  0  0  -0.281816  0  2.638388  0  0  -0.175062  -0.249206  0  2.63465  0
O  O34  1  0.54573805  0.04212882  0.60029981  1  0  -0.350385  0  2.404585  0  0  -0.262395  0  2.636994  0  0  -0.281507  0  2.638989  0  0  -0.17501  -0.248938  0  2.635212  0
O  O35  1  0.45423795  0.95783787  0.10029004  1  0  -0.350565  0  2.404546  0  0  -0.262568  0  2.636931  0  0  -0.281674  0  2.638948  0  0  -0.175046  -0.249084  0  2.635046  0
