# generated using pymatgen
data_Er2MnH28(C8O9)2
_symmetry_space_group_name_H-M   'P 1'
_cell_length_a   8.86275533
_cell_length_b   9.05955817
_cell_length_c   10.56904139
_cell_angle_alpha   81.67020536
_cell_angle_beta   71.53270234
_cell_angle_gamma   77.32095550
_symmetry_Int_Tables_number   1
_chemical_formula_structural   Er2MnH28(C8O9)2
_chemical_formula_sum   'Er2 Mn1 H28 C16 O18'
_cell_volume   782.68121670
_cell_formula_units_Z   1
loop_
 _symmetry_equiv_pos_site_id
 _symmetry_equiv_pos_as_xyz
  1  'x, y, z'
loop_
 _atom_site_type_symbol
 _atom_site_label
 _atom_site_symmetry_multiplicity
 _atom_site_fract_x
 _atom_site_fract_y
 _atom_site_fract_z
 _atom_site_occupancy
 _atom_site_hle17_ddec_charge
 _atom_site_hle17_ddec_spin_density
 _atom_site_hle17_ddec_sum_bond_order
 _atom_site_hle17_magmom
 _atom_site_hse06_10hf_bader_charge
 _atom_site_hse06_10hf_bader_spin_density
 _atom_site_hse06_10hf_ddec_charge
 _atom_site_hse06_10hf_ddec_spin_density
 _atom_site_hse06_10hf_ddec_sum_bond_order
 _atom_site_hse06_10hf_magmom
 _atom_site_hse06_ddec_charge
 _atom_site_hse06_ddec_spin_density
 _atom_site_hse06_ddec_sum_bond_order
 _atom_site_hse06_magmom
 _atom_site_pbe_cm5_charge
 _atom_site_pbe_ddec_charge
 _atom_site_pbe_ddec_spin_density
 _atom_site_pbe_ddec_sum_bond_order
 _atom_site_pbe_magmom
Er  Er0  1  0.08382406  0.92198379  0.81854500  1  2.208246  -0.001427  1.622989  0.0  2.188042  0.000692  2.053801  -0.001122  2.104007  0.001  2.105893  -0.001585  2.063216  0.0  1.501606  2.0144  -0.000609  2.136233  0.002
Er  Er1  1  0.91617941  0.07802479  0.18145451  1  2.208324  -0.001428  1.623024  0.0  2.188001  0.00069  2.053871  -0.001125  2.104023  0.001  2.105952  -0.001591  2.06324  0.0  1.501658  2.014472  -0.000612  2.136271  0.002
Mn  Mn2  1  0.00000506  0.99999614  0.49999674  1  1.279166  4.772874  1.79784  4.676  1.583106  4.583006  1.13564  4.689958  2.299642  4.533  1.189781  4.737252  2.225307  4.598  0.625643  1.09394  4.63938  2.354056  4.466
H  H3  1  0.50488440  0.12554212  0.93146872  1  0.126469  0.000261  0.948609  0.0  0.068522  0.000706  0.145307  0.000417  1.008269  0.0  0.147774  0.000332  1.007247  0.0  0.094401  0.143577  0.000513  1.009058  0.0
H  H4  1  0.49515039  0.87442673  0.06853222  1  0.126457  0.000262  0.948625  0.0  0.067955  0.000707  0.145253  0.000417  1.008346  0.0  0.14772  0.000333  1.007327  0.0  0.094371  0.14353  0.000513  1.009127  0.0
H  H5  1  0.47007261  0.10873398  0.77580319  1  0.161331  -6.6e-05  0.968645  0.0  0.122578  0.000288  0.176912  6.4e-05  1.031109  0.0  0.180497  2.3e-05  1.029502  0.0  0.103252  0.174424  0.000112  1.032211  0.0
H  H6  1  0.52992268  0.89123513  0.22421401  1  0.16131  -5.8e-05  0.968597  0.0  0.122474  0.000287  0.176869  6.3e-05  1.031108  0.0  0.180458  2.3e-05  1.029494  0.0  0.103219  0.174381  0.000112  1.032214  0.0
H  H7  1  0.53617607  0.27107017  0.79848363  1  0.13844  6.7e-05  0.930093  0.0  0.041339  0.0005  0.15961  0.000252  0.985703  0.0  0.161609  0.000181  0.985415  0.0  0.105104  0.158296  0.000335  0.985923  0.0
H  H8  1  0.46382040  0.72890771  0.20151697  1  0.138486  6.9e-05  0.929961  0.0  0.04106  0.000499  0.159658  0.000252  0.985552  0.0  0.161656  0.00018  0.985265  0.0  0.10512  0.15834  0.000335  0.985773  0.0
H  H9  1  0.26679099  0.26316018  0.42974014  1  0.142176  -0.000159  0.92561  0.0  0.074954  5e-06  0.162091  -0.000174  0.979886  0.0  0.164997  -0.00018  0.978314  0.0  0.102736  0.159886  -0.000162  0.981254  0.0
H  H10  1  0.73318841  0.73684596  0.57025233  1  0.142189  -0.00016  0.925756  0.0  0.075274  4e-06  0.162138  -0.000175  0.980007  0.0  0.165039  -0.000182  0.978436  0.0  0.102766  0.15993  -0.000162  0.981375  0.0
H  H11  1  0.43546451  0.10867054  0.41636896  1  0.168707  0.000198  0.945952  0.0  0.141478  0.000886  0.185013  0.000415  1.006362  0.001  0.188994  0.00025  1.004265  0.0  0.109236  0.182024  0.000634  1.008064  0.001
H  H12  1  0.56451958  0.89133664  0.58361845  1  0.168821  0.000195  0.945973  0.0  0.141495  0.000886  0.185119  0.000416  1.006368  0.001  0.189097  0.000249  1.004276  0.0  0.109283  0.182124  0.000634  1.008066  0.001
H  H13  1  0.41557859  0.25590941  0.51504022  1  0.139964  9.1e-05  0.936218  0.0  0.059415  0.000369  0.160336  0.000193  0.994126  0.0  0.162359  0.000112  0.99394  0.0  0.102843  0.158775  0.000303  0.994442  0.0
H  H14  1  0.58441070  0.74409549  0.48494622  1  0.13999  8.9e-05  0.936195  0.0  0.059174  0.000369  0.160324  0.000193  0.994188  0.0  0.162346  0.000112  0.994002  0.0  0.102793  0.158762  0.000303  0.994502  0.0
H  H15  1  0.81111803  0.67981555  0.24867297  1  0.130737  1e-06  0.968856  0.0  0.067747  0.000232  0.149612  8.2e-05  1.029702  0.0  0.151045  2.7e-05  1.030483  0.0  0.097536  0.148567  0.000148  1.029223  0.0
H  H16  1  0.18886433  0.32021582  0.75133055  1  0.130625  -4e-06  0.968924  0.0  0.067763  0.000232  0.149517  8.2e-05  1.029759  0.0  0.150944  2.6e-05  1.030549  0.0  0.097434  0.148498  0.000148  1.029247  0.0
H  H17  1  0.94180204  0.52995953  0.14898287  1  0.168547  3e-06  0.932773  0.0  0.136958  3.6e-05  0.18739  1.6e-05  0.988411  0.0  0.190945  4e-06  0.986546  0.0  0.111765  0.184867  2.7e-05  0.989843  0.0
H  H18  1  0.05819568  0.47005938  0.85102235  1  0.168519  2e-06  0.933117  0.0  0.136614  3.6e-05  0.187454  1.6e-05  0.988618  0.0  0.191011  2e-06  0.986753  0.0  0.111783  0.18492  2.7e-05  0.990065  0.0
H  H19  1  0.74795867  0.59894218  0.13275115  1  0.147645  1.8e-05  0.922474  0.0  0.082604  6.2e-05  0.168113  4.2e-05  0.977531  0.0  0.170817  3e-05  0.976279  0.0  0.107958  0.166207  5.4e-05  0.97848  0.0
H  H20  1  0.25202862  0.40107662  0.86724907  1  0.14774  1.4e-05  0.922302  0.0  0.082695  6.2e-05  0.168141  4.2e-05  0.977457  0.0  0.170848  3.1e-05  0.9762  0.0  0.107931  0.166238  5.4e-05  0.978406  0.0
H  H21  1  0.35286426  0.52009454  0.52840501  1  0.129573  4.5e-05  0.956506  0.0  0.054983  0.000105  0.147685  5.8e-05  1.017596  0.0  0.149764  4.8e-05  1.016915  0.0  0.097881  0.146155  7.5e-05  1.018167  0.0
H  H22  1  0.64713729  0.47989154  0.47160745  1  0.129571  4.1e-05  0.956362  0.0  0.055178  0.000105  0.147638  5.9e-05  1.017527  0.0  0.149716  4.9e-05  1.016847  0.0  0.097864  0.146108  7.5e-05  1.0181  0.0
H  H23  1  0.24868698  0.65233731  0.42603104  1  0.146934  -7.1e-05  0.937885  0.0  0.091369  0.000497  0.164672  6.1e-05  0.997298  0.0  0.167411  -5.6e-05  0.996299  0.0  0.106715  0.162551  0.00021  0.99825  0.0
H  H24  1  0.75131664  0.34764320  0.57398733  1  0.146896  -7.6e-05  0.93783  0.0  0.091736  0.000498  0.164601  6.1e-05  0.997285  0.0  0.167335  -5.6e-05  0.996292  0.0  0.106698  0.162485  0.00021  0.998238  0.0
H  H25  1  0.14366939  0.52502938  0.54753731  1  0.14384  8.9e-05  0.925134  0.0  0.08163  0.000463  0.166075  0.0002  0.977313  0.0  0.16837  0.000102  0.976699  0.0  0.10862  0.164314  0.000332  0.977938  0.0
H  H26  1  0.85633710  0.47496027  0.45248292  1  0.143777  8.2e-05  0.925194  0.0  0.081678  0.000463  0.166078  0.0002  0.977287  0.0  0.168363  0.000102  0.976685  0.0  0.108597  0.164318  0.000332  0.977913  0.0
H  H27  1  0.38416213  0.81196561  0.88465666  1  0.44382  2e-06  0.802874  0.0  0.627004  2.9e-05  0.431904  2.2e-05  0.845637  0.0  0.439246  1.1e-05  0.83529  0.0  0.338495  0.426641  6e-05  0.851706  0.0
H  H28  1  0.61584662  0.18802920  0.11533583  1  0.443941  2e-06  0.802839  0.0  0.627073  2.9e-05  0.432014  2.2e-05  0.845515  0.0  0.439356  1.3e-05  0.835167  0.0  0.338514  0.426753  6e-05  0.851696  0.0
H  H29  1  0.25519879  0.87758997  0.01989315  1  0.435  7e-06  0.871138  0.0  0.668959  1e-06  0.401355  2.4e-05  0.939354  0.0  0.413109  2e-05  0.922361  0.0  0.297602  0.393042  3.2e-05  0.951344  0.0
H  H30  1  0.74480922  0.12241503  0.98009722  1  0.434967  7e-06  0.871203  0.0  0.66898  1e-06  0.401306  2.4e-05  0.939442  0.0  0.413061  2e-05  0.922446  0.0  0.297568  0.392999  3.2e-05  0.951425  0.0
C  C31  1  0.72173341  0.07440029  0.76334613  1  0.797605  0.003849  3.776622  0.004  1.618775  0.007744  0.7582  0.007142  4.065079  0.007  0.793422  0.005515  4.055724  0.006  0.239646  0.733961  0.008731  4.07025  0.009
C  C32  1  0.27827179  0.92558880  0.23664515  1  0.79749  0.003863  3.776403  0.004  1.618469  0.007747  0.758021  0.007144  4.064955  0.007  0.793241  0.005516  4.055597  0.006  0.239502  0.733798  0.008734  4.070101  0.009
C  C33  1  0.91830785  0.74477737  0.03995351  1  0.803229  7.1e-05  3.782764  0.0  1.569095  0.000105  0.76999  0.000125  4.064951  0.0  0.804934  7e-05  4.053983  0.0  0.222032  0.746278  0.000156  4.071424  0.0
C  C34  1  0.08168668  0.25524136  0.96004211  1  0.803142  7.9e-05  3.782696  0.0  1.568184  0.000105  0.770055  0.000125  4.064727  0.0  0.805  7.3e-05  4.05376  0.0  0.222068  0.746351  0.000156  4.071188  0.0
C  C35  1  0.25166757  0.10248129  0.60229205  1  0.761558  0.006864  3.825195  0.007  1.556014  0.011945  0.721187  0.011223  4.121439  0.01  0.756502  0.007992  4.111386  0.008  0.208764  0.696427  0.014855  4.12801  0.013
C  C36  1  0.74832721  0.89751912  0.39769743  1  0.761264  0.006864  3.825726  0.007  1.555938  0.011947  0.721024  0.011224  4.121769  0.01  0.756338  0.00799  4.111716  0.008  0.208646  0.696271  0.014858  4.128325  0.013
C  C37  1  0.54723301  0.14755307  0.82242463  1  -0.473751  0.001032  3.650194  0.001  -0.131254  0.001798  -0.549597  0.001255  3.880856  0.001  -0.557529  0.000905  3.883021  0.001  -0.246015  -0.544074  0.001584  3.879205  0.001
C  C38  1  0.45277278  0.85241917  0.17757727  1  -0.4737  0.001006  3.650104  0.001  -0.130159  0.001799  -0.549508  0.001256  3.880839  0.001  -0.557446  0.000903  3.883001  0.001  -0.245945  -0.54399  0.001584  3.879177  0.001
C  C39  1  0.18810064  0.70937828  0.62692089  1  0.767889  0.006463  3.811511  0.007  1.570138  0.011307  0.730921  0.010437  4.101126  0.01  0.765848  0.007293  4.091952  0.008  0.209519  0.706447  0.013936  4.107017  0.013
C  C40  1  0.81191509  0.29060208  0.37308885  1  0.768106  0.006444  3.811818  0.007  1.570172  0.011302  0.731214  0.010434  4.101292  0.01  0.766141  0.00729  4.092112  0.008  0.209649  0.706751  0.013931  4.107176  0.013
C  C41  1  0.34598734  0.18963544  0.48351339  1  -0.456388  -0.000638  3.638423  0.0  -0.127646  0.000346  -0.533514  -7.9e-05  3.873686  0.0  -0.541227  -0.000297  3.874704  0.0  -0.241369  -0.528084  0.000158  3.873482  0.0
C  C42  1  0.65400328  0.81037408  0.51647684  1  -0.456487  -0.000616  3.638767  0.0  -0.127642  0.000344  -0.533663  -8.1e-05  3.874009  0.0  -0.541368  -0.000294  3.875024  0.0  -0.241375  -0.528224  0.000159  3.873795  0.0
C  C43  1  0.84962146  0.63381942  0.15118202  1  -0.455499  3.1e-05  3.622872  0.0  -0.136657  0.000201  -0.531075  0.000129  3.848311  0.0  -0.538881  9.4e-05  3.851003  0.0  -0.238085  -0.525582  0.000168  3.846338  0.0
C  C44  1  0.15036510  0.36621529  0.84881719  1  -0.455483  3.8e-05  3.62296  0.0  -0.136759  0.000203  -0.531103  0.000131  3.848309  0.0  -0.538911  9.1e-05  3.851003  0.0  -0.238057  -0.525633  0.000168  3.846321  0.0
C  C45  1  0.23799488  0.59377243  0.52606354  1  -0.447198  -0.000498  3.656215  0.0  -0.096862  0.000415  -0.522798  -3e-05  3.886929  0.0  -0.529823  -0.000232  3.889272  0.0  -0.23597  -0.517802  0.000147  3.885649  0.0
C  C46  1  0.76201522  0.40621249  0.47394697  1  -0.447178  -0.000442  3.655972  0.0  -0.097443  0.000412  -0.522787  -3.4e-05  3.88671  0.0  -0.529805  -0.000224  3.889069  0.0  -0.235978  -0.517791  0.000147  3.885426  0.0
O  O47  1  0.09892475  0.10576370  0.62182265  1  -0.769968  0.026283  2.051208  0.011  -1.250093  0.04397  -0.710067  0.033333  2.320289  0.015  -0.739267  0.030575  2.305204  0.013  -0.371381  -0.688664  0.036268  2.330399  0.017
O  O48  1  0.90107479  0.89424140  0.37817355  1  -0.769915  0.026281  2.051233  0.011  -1.25005  0.043971  -0.710026  0.033336  2.320187  0.015  -0.739228  0.030576  2.305105  0.013  -0.371362  -0.688619  0.036271  2.330292  0.017
O  O49  1  0.05556211  0.80868139  0.63504998  1  -0.777534  0.028589  2.065128  0.013  -1.254663  0.046921  -0.71658  0.035766  2.33698  0.017  -0.746509  0.03273  2.321125  0.015  -0.380992  -0.694496  0.038908  2.347382  0.019
O  O50  1  0.94444523  0.19132498  0.36495267  1  -0.777489  0.028583  2.065632  0.013  -1.25497  0.046917  -0.716554  0.035763  2.337447  0.017  -0.746474  0.032725  2.321588  0.015  -0.380969  -0.694477  0.0389  2.347853  0.019
O  O51  1  0.27168862  0.82255236  0.93874715  1  -0.893524  5.4e-05  1.864814  0.0  -1.27113  8.8e-05  -0.848336  0.000106  2.047484  0.0  -0.866193  7.9e-05  2.01752  0.0  -0.631717  -0.835426  0.000157  2.066994  0.0
O  O52  1  0.72831710  0.17744585  0.06124562  1  -0.893652  5.3e-05  1.864872  0.0  -1.271222  8.8e-05  -0.848424  0.000107  2.047425  0.0  -0.866279  7.7e-05  2.017464  0.0  -0.631691  -0.83552  0.000157  2.067039  0.0
O  O53  1  0.94141386  0.87316968  0.06362388  1  -0.844833  -7e-06  2.09118  0.0  -1.248564  0.000196  -0.78271  0.000106  2.347732  0.0  -0.81079  7.6e-05  2.337988  0.0  -0.446272  -0.76248  0.000219  2.353619  0.0
O  O54  1  0.05858715  0.12684467  0.93638020  1  -0.844671  -1.1e-05  2.091161  0.0  -1.247467  0.000195  -0.782624  0.000105  2.347676  0.0  -0.810708  7.4e-05  2.337937  0.0  -0.446202  -0.762397  0.000219  2.353553  0.0
O  O55  1  0.31892050  0.02303956  0.68597438  1  -0.709067  0.004651  1.998595  0.006  -1.219941  0.010627  -0.65928  0.007622  2.235102  0.009  -0.685145  0.00585  2.227069  0.007  -0.36859  -0.641287  0.009511  2.240499  0.01
O  O56  1  0.68108865  0.97697220  0.31401291  1  -0.708936  0.00465  1.999112  0.006  -1.219987  0.010629  -0.65911  0.007623  2.235452  0.009  -0.684975  0.005852  2.227421  0.007  -0.368525  -0.641127  0.009513  2.240855  0.01
O  O57  1  0.81213029  0.03488301  0.84142905  1  -0.757505  0.001285  2.052657  0.002  -1.237133  0.004645  -0.695895  0.002882  2.292244  0.004  -0.723336  0.002059  2.280977  0.003  -0.378318  -0.676177  0.003692  2.299192  0.005
O  O58  1  0.18788412  0.96512643  0.15855536  1  -0.757521  0.001287  2.052536  0.002  -1.237256  0.004648  -0.695848  0.002884  2.292097  0.004  -0.723281  0.002059  2.28083  0.003  -0.378271  -0.676135  0.003693  2.299041  0.005
O  O59  1  0.95893093  0.71251150  0.91963827  1  -0.69104  -0.000136  1.94356  0.0  -1.198223  0.000355  -0.646337  -1.8e-05  2.169658  0.0  -0.671555  -8.2e-05  2.161163  0.0  -0.374933  -0.628742  4.1e-05  2.175078  0.0
O  O60  1  0.04104963  0.28749935  0.08036276  1  -0.691071  -0.000137  1.94354  0.0  -1.198109  0.000355  -0.64641  -1.8e-05  2.169589  0.0  -0.671624  -7.4e-05  2.161083  0.0  -0.374943  -0.628823  4.1e-05  2.175015  0.0
O  O61  1  0.76957282  0.05854401  0.63916259  1  -0.651093  0.031571  2.00718  0.019  -1.239176  0.05184  -0.582  0.036401  2.256719  0.02  -0.613578  0.033175  2.244469  0.017  -0.298905  -0.558431  0.039606  2.264095  0.023
O  O62  1  0.23042954  0.94145411  0.36082534  1  -0.65103  0.031571  2.007093  0.019  -1.238899  0.051844  -0.581904  0.0364  2.256648  0.02  -0.613488  0.033175  2.244418  0.017  -0.298827  -0.558352  0.039607  2.26403  0.023
O  O63  1  0.27002097  0.71176411  0.70481117  1  -0.673885  0.005025  1.908328  0.006  -1.201896  0.011124  -0.629852  0.008073  2.132711  0.009  -0.654634  0.006254  2.124501  0.007  -0.365991  -0.612614  0.010108  2.138246  0.011
O  O64  1  0.72997942  0.28822666  0.29520851  1  -0.674073  0.005024  1.908278  0.006  -1.201425  0.011122  -0.630104  0.008073  2.13267  0.009  -0.654887  0.006252  2.124459  0.007  -0.366131  -0.612859  0.010107  2.138193  0.011
