# generated using pymatgen
data_MnH24(C5N)8
_symmetry_space_group_name_H-M   'P 1'
_cell_length_a   9.28201732
_cell_length_b   19.31038798
_cell_length_c   19.31773130
_cell_angle_alpha   117.49330655
_cell_angle_beta   99.23220380
_cell_angle_gamma   99.20641523
_symmetry_Int_Tables_number   1
_chemical_formula_structural   MnH24(C5N)8
_chemical_formula_sum   'Mn3 H72 C120 N24'
_cell_volume   2921.34575362
_cell_formula_units_Z   3
loop_
 _symmetry_equiv_pos_site_id
 _symmetry_equiv_pos_as_xyz
  1  'x, y, z'
loop_
 _atom_site_type_symbol
 _atom_site_label
 _atom_site_symmetry_multiplicity
 _atom_site_fract_x
 _atom_site_fract_y
 _atom_site_fract_z
 _atom_site_occupancy
 _atom_site_pbe_bader_charge
 _atom_site_pbe_bader_spin_density
 _atom_site_pbe_cm5_charge
 _atom_site_pbe_ddec_charge
 _atom_site_pbe_ddec_spin_density
 _atom_site_pbe_ddec_sum_bond_order
 _atom_site_pbe_magmom
Mn  Mn0  1  0.00000045  0.00000007  0.49999990  1  1.550292  3.404114  0.775459  0.708557  3.505058  3.110159  3.376
Mn  Mn1  1  0.49999994  0.50000047  0.50000074  1  1.543965  3.406345  0.774796  0.70677  3.506622  3.112545  3.377
Mn  Mn2  1  0.99999845  0.49999807  0.99999966  1  1.549752  3.406623  0.776223  0.710018  3.507441  3.109153  3.378
H  H3  1  0.48535276  0.22945710  0.57381576  1  0.075711  -0.000315  0.100864  0.120467  -0.000133  1.019198  0.0
H  H4  1  0.91136896  0.42607646  0.65575488  1  0.072605  -0.000338  0.100238  0.119566  -0.000135  1.01941  0.0
H  H5  1  0.25525843  0.34407190  0.77050072  1  0.069817  -0.000358  0.099929  0.119616  -0.000146  1.020912  0.0
H  H6  1  0.51464742  0.77054444  0.42618603  1  0.075721  -0.000314  0.100865  0.120435  -0.000133  1.019222  0.0
H  H7  1  0.08862970  0.57392206  0.34424591  1  0.072208  -0.000338  0.100274  0.119623  -0.000134  1.019399  0.0
H  H8  1  0.74473698  0.65592662  0.22949722  1  0.069777  -0.000358  0.099943  0.119661  -0.000146  1.020866  0.0
H  H9  1  0.58138107  0.14539893  0.64388699  1  0.082925  -0.000109  0.096498  0.110137  0.000109  1.05794  0.0
H  H10  1  0.93729648  0.35590438  0.50164736  1  0.084231  -0.000111  0.096891  0.112038  0.000131  1.057475  0.0
H  H11  1  0.43554389  0.49818658  0.85443453  1  0.075467  -0.000106  0.097204  0.111749  0.000142  1.056044  0.0
H  H12  1  0.41862161  0.85460322  0.35611475  1  0.082973  -0.000109  0.096508  0.11014  0.000108  1.057962  0.0
H  H13  1  0.06269691  0.64409232  0.49835321  1  0.086909  -0.000109  0.096888  0.112011  0.000131  1.057465  0.0
H  H14  1  0.56444667  0.50181315  0.14556204  1  0.075569  -0.000106  0.097217  0.111731  0.000142  1.05606  0.0
H  H15  1  0.68311516  0.11173818  0.34268742  1  0.094384  0.000108  0.103247  0.121402  0.000159  1.023344  0.0
H  H16  1  0.34023347  0.65738525  0.76890324  1  0.075306  0.000103  0.102389  0.11875  0.000156  1.023462  0.0
H  H17  1  0.57107647  0.23093581  0.88843392  1  0.080408  0.000118  0.10344  0.120521  0.000173  1.022839  0.0
H  H18  1  0.31688454  0.88826458  0.65731333  1  0.09441  0.000108  0.10327  0.121428  0.000159  1.023365  0.0
H  H19  1  0.65976811  0.34261690  0.23109841  1  0.075304  0.000103  0.10241  0.118749  0.000156  1.023466  0.0
H  H20  1  0.42891645  0.76906210  0.11156355  1  0.0805  0.000118  0.103441  0.120522  0.000173  1.02286  0.0
H  H21  1  0.96620536  0.20826123  0.39910408  1  0.111983  4.9e-05  0.10222  0.122092  4.9e-05  1.033123  0.0
H  H22  1  0.56670515  0.60085763  0.80902331  1  0.076558  3.5e-05  0.102558  0.122266  4.9e-05  1.033713  0.0
H  H23  1  0.75745235  0.19076449  0.79185676  1  0.113651  3.4e-05  0.103368  0.122855  2.7e-05  1.032883  0.0
H  H24  1  0.03379374  0.79174032  0.60089659  1  0.112005  4.9e-05  0.102234  0.122138  4.9e-05  1.033105  0.0
H  H25  1  0.43329613  0.39914391  0.19097752  1  0.07658  3.5e-05  0.102566  0.122288  4.9e-05  1.033701  0.0
H  H26  1  0.24254353  0.80923281  0.20814222  1  0.113716  3.4e-05  0.103379  0.12289  2.7e-05  1.032861  0.0
H  H27  1  0.39566116  0.01721241  0.43129643  1  0.072315  -0.000594  0.100925  0.112386  -0.000939  1.039062  0.0
H  H28  1  0.96436577  0.56865233  0.58584712  1  0.115727  -0.000569  0.101509  0.114228  -0.000931  1.036655  0.0
H  H29  1  0.37834267  0.41414573  0.98293912  1  0.091458  -0.000585  0.101542  0.114014  -0.000929  1.037083  0.0
H  H30  1  0.60433679  0.98278248  0.56870159  1  0.072293  -0.000594  0.10091  0.112407  -0.00094  1.038997  0.0
H  H31  1  0.03563223  0.43134922  0.41415500  1  0.115722  -0.000569  0.101489  0.114237  -0.000931  1.036625  0.0
H  H32  1  0.62164975  0.58585340  0.01706197  1  0.091427  -0.000585  0.101543  0.114019  -0.000929  1.037062  0.0
H  H33  1  0.16163972  0.01348729  0.34463006  1  0.07034  -0.000327  0.107397  0.07647  -0.000478  1.017227  0.0
H  H34  1  0.81676255  0.65508494  0.66873636  1  0.068763  -0.000327  0.107577  0.076376  -0.000479  1.016942  0.0
H  H35  1  0.14806391  0.33104439  0.98643706  1  0.071922  -0.000329  0.107382  0.076602  -0.000478  1.016448  0.0
H  H36  1  0.83835853  0.98650820  0.65536878  1  0.070387  -0.000327  0.107402  0.076506  -0.000478  1.017213  0.0
H  H37  1  0.18323884  0.34491903  0.33126766  1  0.068745  -0.000327  0.107572  0.076348  -0.000479  1.01696  0.0
H  H38  1  0.85192930  0.66895413  0.01356433  1  0.071891  -0.000329  0.107403  0.076604  -0.000478  1.01648  0.0
H  H39  1  0.33871546  0.94273975  0.14662789  1  0.071073  -0.00011  0.11188  0.079813  -7.6e-05  0.969314  0.0
H  H40  1  0.19136230  0.85348203  0.79609479  1  0.073782  -0.000111  0.111489  0.078056  -7.8e-05  0.969742  0.0
H  H41  1  0.39602336  0.20385025  0.05734260  1  0.070608  -0.000111  0.111545  0.079449  -7.8e-05  0.96957  0.0
H  H42  1  0.66128801  0.05726180  0.85337259  1  0.071091  -0.00011  0.111894  0.079815  -7.6e-05  0.969345  0.0
H  H43  1  0.80864662  0.14651952  0.20390768  1  0.073823  -0.000111  0.111468  0.078075  -7.8e-05  0.969835  0.0
H  H44  1  0.60397671  0.79614887  0.94265754  1  0.070648  -0.000111  0.111519  0.079373  -7.8e-05  0.969616  0.0
H  H45  1  0.58427700  0.94738776  0.22617336  1  0.081835  -7.7e-05  0.104769  0.112599  -0.000118  0.993022  0.0
H  H46  1  0.35766830  0.77415235  0.72130792  1  0.082701  -7.7e-05  0.105678  0.114038  -0.000119  0.99258  0.0
H  H47  1  0.63691693  0.27880269  0.05278056  1  0.087577  -7.7e-05  0.105254  0.113801  -0.00012  0.992797  0.0
H  H48  1  0.41572629  0.05261560  0.77382743  1  0.082101  -7.7e-05  0.104784  0.112598  -0.000118  0.993013  0.0
H  H49  1  0.64233474  0.22584616  0.27869113  1  0.08268  -7.7e-05  0.105677  0.114067  -0.000119  0.992546  0.0
H  H50  1  0.36307987  0.72119643  0.94721725  1  0.087641  -7.7e-05  0.105243  0.113797  -0.00012  0.992776  0.0
H  H51  1  0.14433307  0.31566151  0.58134159  1  0.072121  0.000791  0.10929  0.120974  0.000379  0.987471  0.0
H  H52  1  0.56295133  0.41860703  0.73433537  1  0.069907  0.000798  0.108669  0.119871  0.000384  0.988441  0.0
H  H53  1  0.82831814  0.26566775  0.68444537  1  0.076993  0.000815  0.109257  0.121265  0.00039  0.989308  0.0
H  H54  1  0.85566761  0.68433882  0.41865812  1  0.072009  0.000791  0.109267  0.12096  0.000379  0.987481  0.0
H  H55  1  0.43704983  0.58139209  0.26566278  1  0.069861  0.000797  0.108664  0.119856  0.000384  0.988414  0.0
H  H56  1  0.17168302  0.73433137  0.31555485  1  0.076959  0.000815  0.10925  0.12127  0.00039  0.989268  0.0
H  H57  1  0.74729530  0.56090646  0.42565043  1  0.094649  0.001636  0.11708  0.085835  0.000721  1.006634  0.001
H  H58  1  0.32137650  0.57435325  0.13529642  1  0.091222  0.001648  0.116885  0.085947  0.000724  1.007368  0.001
H  H59  1  0.18654160  0.86470317  0.43901557  1  0.1037  0.001626  0.116712  0.085651  0.000705  1.007349  0.001
H  H60  1  0.25270132  0.43909448  0.57434924  1  0.094607  0.001636  0.117057  0.085785  0.000721  1.006655  0.001
H  H61  1  0.67861679  0.42564103  0.86469940  1  0.091483  0.001648  0.116845  0.08593  0.000724  1.007351  0.001
H  H62  1  0.81346126  0.13529717  0.56098328  1  0.103466  0.001627  0.116721  0.085683  0.000705  1.007293  0.001
H  H63  1  0.55270751  0.69017836  0.60650227  1  0.089201  0.001236  0.115784  0.07906  0.000266  1.020488  0.001
H  H64  1  0.94622987  0.39329824  0.08360641  1  0.092867  0.001261  0.115865  0.0791  0.000272  1.020246  0.001
H  H65  1  0.86272486  0.91642101  0.30984550  1  0.079189  0.001256  0.115078  0.078012  0.000275  1.018481  0.001
H  H66  1  0.44729407  0.30982379  0.39349886  1  0.089209  0.001236  0.115783  0.079078  0.000266  1.020476  0.001
H  H67  1  0.05376333  0.60670028  0.91639757  1  0.092694  0.001261  0.115847  0.079073  0.000272  1.020229  0.001
H  H68  1  0.13727819  0.08357750  0.69015252  1  0.079193  0.001256  0.115076  0.078004  0.000275  1.018574  0.001
H  H69  1  0.34688666  0.18089191  0.39255685  1  0.099775  0.000751  0.111032  0.125096  0.000387  0.992324  0.0
H  H70  1  0.95409692  0.60758100  0.78843550  1  0.086292  0.000757  0.110861  0.123982  0.000389  0.992539  0.0
H  H71  1  0.16553380  0.21146557  0.81913243  1  0.101675  0.000755  0.110952  0.124171  0.000391  0.99233  0.0
H  H72  1  0.65311571  0.81910963  0.60744355  1  0.099592  0.000751  0.111043  0.125093  0.000387  0.99238  0.0
H  H73  1  0.04589997  0.39242055  0.21156965  1  0.086403  0.000757  0.110883  0.123959  0.000389  0.992538  0.0
H  H74  1  0.83446537  0.78853174  0.18086524  1  0.101708  0.000755  0.110981  0.124201  0.000391  0.992257  0.0
C  C75  1  0.73572891  0.86359246  0.47077010  1  0.387945  -0.018817  0.084588  0.172415  -0.01947  4.078102  -0.009
C  C76  1  0.26506303  0.52929903  0.39277759  1  0.420197  -0.018859  0.08458  0.174167  -0.019471  4.074282  -0.009
C  C77  1  0.87245528  0.60728510  0.13635673  1  0.417043  -0.017865  0.085689  0.174753  -0.018507  4.078224  -0.008
C  C78  1  0.26427177  0.13640787  0.52923013  1  0.388137  -0.018817  0.084603  0.172381  -0.019471  4.078174  -0.009
C  C79  1  0.73493765  0.47070131  0.60722368  1  0.420217  -0.018857  0.084486  0.174001  -0.019471  4.074333  -0.009
C  C80  1  0.12753983  0.39271281  0.86364143  1  0.416863  -0.017868  0.085684  0.174784  -0.018509  4.078272  -0.008
C  C81  1  0.42073226  0.17574164  0.57105980  1  -0.061284  -0.031974  -0.116869  -0.203779  -0.033713  4.012821  -0.018
C  C82  1  0.84948365  0.42879651  0.60477945  1  -0.026617  -0.032044  -0.115642  -0.200785  -0.033693  4.008423  -0.018
C  C83  1  0.24449613  0.39509164  0.82421419  1  -0.097831  -0.032282  -0.115808  -0.202371  -0.034173  4.015059  -0.018
C  C84  1  0.57926901  0.82425990  0.42894207  1  -0.061626  -0.031972  -0.116865  -0.203769  -0.03371  4.012882  -0.018
C  C85  1  0.15051472  0.57120141  0.39522104  1  -0.026156  -0.032042  -0.115711  -0.200911  -0.033693  4.008495  -0.018
C  C86  1  0.75549819  0.60490687  0.17578263  1  -0.097882  -0.032286  -0.115846  -0.202462  -0.034175  4.015077  -0.018
C  C87  1  0.46985105  0.13272440  0.60617812  1  -0.066073  -0.021034  -0.113045  -0.191998  -0.022984  4.011491  -0.011
C  C88  1  0.86343680  0.39360107  0.52665433  1  -0.099947  -0.020806  -0.114405  -0.197118  -0.02295  4.011463  -0.011
C  C89  1  0.33671730  0.47321460  0.86715171  1  -0.006591  -0.019927  -0.11371  -0.19414  -0.021892  4.011728  -0.01
C  C90  1  0.53014992  0.86727654  0.39382396  1  -0.065737  -0.021032  -0.113042  -0.191959  -0.022983  4.011517  -0.011
C  C91  1  0.13655829  0.60639684  0.47334590  1  -0.102672  -0.020808  -0.114425  -0.19706  -0.022952  4.011297  -0.011
C  C92  1  0.66327544  0.52678513  0.13284555  1  -0.006727  -0.019924  -0.1137  -0.19404  -0.021889  4.011687  -0.01
C  C93  1  0.34333367  0.06733441  0.58546285  1  0.381285  -0.029881  0.081623  0.164977  -0.03072  4.070155  -0.016
C  C94  1  0.75778127  0.41434813  0.48194405  1  0.427449  -0.02998  0.082004  0.166072  -0.030698  4.068  -0.016
C  C95  1  0.27582031  0.51800189  0.93258163  1  0.370304  -0.030494  0.081706  0.16522  -0.031216  4.068155  -0.017
C  C96  1  0.65666810  0.93266592  0.41453746  1  0.381193  -0.029882  0.081661  0.165033  -0.03072  4.070138  -0.016
C  C97  1  0.24221970  0.58565282  0.51805751  1  0.427909  -0.029979  0.081965  0.166013  -0.030697  4.068024  -0.016
C  C98  1  0.72417322  0.48199723  0.06741644  1  0.370173  -0.030494  0.081676  0.165027  -0.031217  4.068078  -0.017
C  C99  1  0.34411899  0.01188619  0.61391771  1  0.023365  -0.042453  -0.011142  -0.10239  -0.044532  3.999464  -0.025
C  C100  1  0.73020532  0.38588729  0.39804421  1  -0.034534  -0.042125  -0.009155  -0.099509  -0.044345  3.996581  -0.025
C  C101  1  0.33224129  0.60193849  0.98791916  1  0.026421  -0.040904  -0.009265  -0.100357  -0.043074  3.997152  -0.024
C  C102  1  0.65588278  0.98811414  0.38608156  1  0.023188  -0.042451  -0.011161  -0.102396  -0.04453  3.999601  -0.025
C  C103  1  0.26979177  0.61411244  0.60195701  1  -0.034593  -0.042124  -0.009196  -0.099548  -0.044344  3.99658  -0.025
C  C104  1  0.66775363  0.39806124  0.01207982  1  0.026536  -0.040903  -0.009318  -0.100384  -0.043074  3.997253  -0.024
C  C105  1  0.21635177  0.95294999  0.59845551  1  0.365301  -0.014969  0.084276  0.16206  -0.014841  4.069507  -0.005
C  C106  1  0.61796096  0.40143947  0.35458874  1  0.355865  -0.014946  0.082595  0.159457  -0.014787  4.069898  -0.005
C  C107  1  0.26365360  0.64549842  0.04693438  1  0.356997  -0.015645  0.082443  0.159995  -0.015502  4.071218  -0.006
C  C108  1  0.78364910  0.04704853  0.40154234  1  0.365269  -0.014967  0.084261  0.161994  -0.014838  4.069544  -0.005
C  C109  1  0.38203862  0.59856087  0.64541243  1  0.355878  -0.014946  0.082554  0.159341  -0.014787  4.069896  -0.005
C  C110  1  0.73633932  0.35449950  0.95306360  1  0.357217  -0.015646  0.082432  0.159982  -0.015503  4.071236  -0.006
C  C111  1  0.78222976  0.10763917  0.37735219  1  -0.05245  -0.002239  -0.107042  -0.184975  -0.003023  4.00795  -0.001
C  C112  1  0.40470912  0.62271191  0.73016596  1  -0.063095  -0.002269  -0.106223  -0.180175  -0.002998  4.005979  -0.001
C  C113  1  0.67422739  0.26970215  0.89248831  1  -0.103398  -0.001287  -0.107262  -0.182253  -0.002005  4.007321  0.0
C  C114  1  0.21776982  0.89236117  0.62264795  1  -0.052514  -0.002237  -0.107057  -0.18502  -0.003021  4.007994  -0.001
C  C115  1  0.59529186  0.37728903  0.26983560  1  -0.063057  -0.00227  -0.106316  -0.180226  -0.002999  4.006065  -0.001
C  C116  1  0.32576740  0.73029516  0.10751058  1  -0.103752  -0.001289  -0.107298  -0.182258  -0.002006  4.007235  0.0
C  C117  1  0.92524765  0.15688485  0.40646491  1  -0.095052  -0.00944  -0.105029  -0.176402  -0.009808  3.990441  -0.006
C  C118  1  0.51854234  0.59355538  0.75030168  1  -0.027072  -0.009272  -0.106179  -0.179125  -0.009725  3.990468  -0.006
C  C119  1  0.76787748  0.24953953  0.84319971  1  -0.045229  -0.010022  -0.105703  -0.177843  -0.01054  3.990561  -0.006
C  C120  1  0.07475084  0.84311549  0.59353463  1  -0.095004  -0.009443  -0.105021  -0.176412  -0.00981  3.99047  -0.006
C  C121  1  0.48146113  0.40644617  0.24969984  1  -0.027251  -0.009271  -0.106152  -0.179172  -0.009725  3.990584  -0.006
C  C122  1  0.23211732  0.75045778  0.15679814  1  -0.044856  -0.01002  -0.105648  -0.177829  -0.010539  3.990421  -0.006
C  C123  1  0.01733371  0.12764321  0.44929465  1  0.328872  -0.007342  0.087019  0.17208  -0.007144  4.065426  0.001
C  C124  1  0.56790851  0.55073800  0.67827327  1  0.320574  -0.007284  0.088896  0.175896  -0.007059  4.062355  0.001
C  C125  1  0.88920805  0.32163275  0.87239753  1  0.407771  -0.005577  0.086822  0.172445  -0.006025  4.065772  0.001
C  C126  1  0.98266636  0.87235591  0.55070445  1  0.32879  -0.007341  0.086987  0.172014  -0.007141  4.065576  0.001
C  C127  1  0.43209417  0.44926416  0.32172847  1  0.320772  -0.007284  0.088829  0.175918  -0.00706  4.062423  0.001
C  C128  1  0.11079110  0.67836456  0.12760274  1  0.40823  -0.005573  0.086787  0.17243  -0.006026  4.065776  0.001
C  C129  1  0.82975306  0.83630086  0.51180981  1  0.062749  -0.053657  -0.01074  -0.105191  -0.056214  4.006327  -0.033
C  C130  1  0.31813921  0.48820032  0.32450076  1  0.052708  -0.053405  -0.011096  -0.110173  -0.056011  4.005459  -0.033
C  C131  1  0.99390714  0.67557120  0.16362275  1  -0.019819  -0.055187  -0.011372  -0.108798  -0.057131  4.00944  -0.033
C  C132  1  0.17024871  0.16369948  0.48818999  1  0.062735  -0.053657  -0.010742  -0.105215  -0.056213  4.006325  -0.033
C  C133  1  0.68186176  0.51180062  0.67550080  1  0.052457  -0.053404  -0.01112  -0.110106  -0.05601  4.005422  -0.033
C  C134  1  0.00609014  0.32442671  0.83637713  1  -0.01963  -0.055182  -0.011343  -0.108751  -0.057132  4.00934  -0.033
C  C135  1  0.51081639  0.98291909  0.33596276  1  -0.04696  3.1e-05  0.007574  0.126848  -0.000262  4.00439  0.002
C  C136  1  0.17468842  0.66418060  0.64690468  1  -0.046484  4.2e-05  0.007582  0.126468  -0.000238  4.002496  0.002
C  C137  1  0.52790050  0.35314320  0.01731858  1  -0.035158  1.4e-05  0.008971  0.129561  -0.00023  3.998474  0.002
C  C138  1  0.48918447  0.01707943  0.66403664  1  -0.046916  3.1e-05  0.00757  0.126804  -0.000262  4.00435  0.002
C  C139  1  0.82531225  0.33581974  0.35309607  1  -0.04613  4.3e-05  0.007577  0.1264  -0.000238  4.002572  0.002
C  C140  1  0.47209471  0.64685714  0.98268225  1  -0.034819  1.4e-05  0.008935  0.129427  -0.00023  3.998566  0.002
C  C141  1  0.38794727  0.00035595  0.36837176  1  -0.037386  -0.002486  -0.09069  -0.186832  -0.002714  3.937611  -0.001
C  C142  1  0.01944060  0.63162692  0.63191329  1  -0.066465  -0.002527  -0.092839  -0.190877  -0.00275  3.937921  -0.001
C  C143  1  0.38754537  0.36807074  0.99980024  1  -0.070378  -0.002443  -0.093611  -0.192342  -0.002665  3.93628  -0.001
C  C144  1  0.61205189  0.99964136  0.63162643  1  -0.037458  -0.002486  -0.090653  -0.186769  -0.002714  3.937419  -0.001
C  C145  1  0.98055819  0.36837402  0.36808810  1  -0.06656  -0.002527  -0.092876  -0.19093  -0.002751  3.938029  -0.001
C  C146  1  0.61244815  0.63192838  0.00019991  1  -0.070502  -0.002443  -0.093644  -0.192351  -0.002665  3.9362  -0.001
C  C147  1  0.25669561  0.99797550  0.31949703  1  0.493094  -0.00104  0.033298  0.086667  -0.001099  4.014081  0.0
C  C148  1  0.93689898  0.68037385  0.67838555  1  0.489109  -0.001037  0.034468  0.089421  -0.001085  4.01396  0.0
C  C149  1  0.25867083  0.32148310  0.00204976  1  0.482464  -0.001037  0.03427  0.088984  -0.001095  4.01188  0.0
C  C150  1  0.74330404  0.00202059  0.68050168  1  0.493053  -0.00104  0.033288  0.086582  -0.001099  4.014097  0.0
C  C151  1  0.06310290  0.31962891  0.32161744  1  0.489092  -0.001037  0.034455  0.089393  -0.001085  4.013996  0.0
C  C152  1  0.74132517  0.67851663  0.99795137  1  0.482601  -0.001037  0.034275  0.089033  -0.001095  4.011832  0.0
C  C153  1  0.35557395  0.95994125  0.21040622  1  0.488265  -6.4e-05  0.034083  0.081919  -5.9e-05  4.035484  0.0
C  C154  1  0.14453964  0.78967303  0.74948298  1  0.515944  -5.8e-05  0.036079  0.088228  -5.5e-05  4.035811  0.0
C  C155  1  0.39565684  0.25046537  0.04018034  1  0.521011  -7.2e-05  0.036116  0.086026  -6.9e-05  4.035836  0.0
C  C156  1  0.64442812  0.04005969  0.78959336  1  0.48827  -6.5e-05  0.034063  0.081902  -5.9e-05  4.035531  0.0
C  C157  1  0.85546600  0.21032852  0.25051871  1  0.515356  -5.8e-05  0.035961  0.087941  -5.5e-05  4.035849  0.0
C  C158  1  0.60434044  0.74953254  0.95981903  1  0.52119  -7.2e-05  0.036177  0.086172  -6.9e-05  4.035863  0.0
C  C159  1  0.49237725  0.96191891  0.25453167  1  -0.054817  -0.002989  -0.09187  -0.19341  -0.003096  3.967165  -0.002
C  C160  1  0.23743386  0.74565731  0.70738353  1  -0.067511  -0.002943  -0.093826  -0.197223  -0.003057  3.965856  -0.002
C  C161  1  0.53048469  0.29265549  0.03826322  1  -0.084631  -0.002862  -0.092358  -0.196363  -0.002969  3.966156  -0.002
C  C162  1  0.50762452  0.03808143  0.74546813  1  -0.055043  -0.002989  -0.091855  -0.193353  -0.003096  3.967148  -0.002
C  C163  1  0.76256979  0.25434242  0.29261665  1  -0.067584  -0.002943  -0.093771  -0.197103  -0.003057  3.965722  -0.002
C  C164  1  0.46950992  0.70734363  0.96173598  1  -0.085053  -0.002863  -0.092358  -0.196335  -0.002969  3.966141  -0.002
C  C165  1  0.76178371  0.76158284  0.51234607  1  0.011191  0.000378  0.01787  0.137326  -0.000227  4.004366  0.002
C  C166  1  0.24963699  0.48759739  0.24920493  1  -0.049872  0.000259  0.018051  0.138633  -0.000288  4.002335  0.002
C  C167  1  0.00069219  0.75087333  0.23831281  1  -0.010677  0.00027  0.018019  0.139286  -0.000317  4.00403  0.002
C  C168  1  0.23821837  0.23841810  0.48765403  1  0.011044  0.000379  0.017854  0.137283  -0.000227  4.004381  0.002
C  C169  1  0.75036289  0.51240355  0.75079655  1  -0.049762  0.000259  0.018068  0.138626  -0.000288  4.002502  0.002
C  C170  1  0.99930648  0.24912519  0.76168746  1  -0.010672  0.000269  0.018016  0.139272  -0.000317  4.003968  0.002
C  C171  1  0.78809184  0.68775211  0.46083860  1  -0.00049  -0.000769  -0.084954  -0.187859  -0.001099  3.950454  0.0
C  C172  1  0.32732911  0.53911550  0.22688424  1  -0.016516  -0.000656  -0.085002  -0.187743  -0.001063  3.950963  0.0
C  C173  1  0.10077739  0.77315709  0.31213713  1  -0.024621  -0.000784  -0.085945  -0.191306  -0.001175  3.95401  0.0
C  C174  1  0.21190835  0.31224944  0.53916163  1  -0.000621  -0.000769  -0.084962  -0.187815  -0.0011  3.950442  0.0
C  C175  1  0.67267018  0.46088423  0.77311456  1  -0.016547  -0.000656  -0.085039  -0.187824  -0.001063  3.951153  0.0
C  C176  1  0.89922377  0.22684204  0.68786257  1  -0.024711  -0.000784  -0.085954  -0.191293  -0.001175  3.953994  0.0
C  C177  1  0.72846491  0.61926250  0.46475980  1  0.425728  0.001923  0.048356  0.094774  0.001308  3.964199  0.001
C  C178  1  0.26357678  0.53519970  0.15450943  1  0.474777  0.001781  0.048175  0.094486  0.001269  3.968275  0.001
C  C179  1  0.10948457  0.84552614  0.38066417  1  0.46128  0.002023  0.048934  0.095898  0.001478  3.967852  0.001
C  C180  1  0.27153388  0.38073845  0.53524056  1  0.425743  0.001924  0.048357  0.094799  0.001308  3.964134  0.001
C  C181  1  0.73641880  0.46479700  0.84548976  1  0.473977  0.00178  0.048292  0.094643  0.001268  3.968407  0.001
C  C182  1  0.89051659  0.15447299  0.61933502  1  0.461573  0.002023  0.048935  0.095841  0.001478  3.967817  0.001
C  C183  1  0.61949743  0.69137313  0.56529174  1  0.490634  0.000212  0.053823  0.106768  -2e-05  3.952005  0.0
C  C184  1  0.05423812  0.43457355  0.12602866  1  0.495917  0.000154  0.05145  0.103179  -3.9e-05  3.953556  0.0
C  C185  1  0.92841504  0.87401431  0.30861221  1  0.512722  -9.7e-05  0.05329  0.104415  -0.000292  3.949569  0.0
C  C186  1  0.38050197  0.30862902  0.43470923  1  0.490509  0.000213  0.053855  0.106749  -1.9e-05  3.951984  0.0
C  C187  1  0.94575587  0.56542436  0.87397355  1  0.496251  0.000154  0.051453  0.103257  -3.9e-05  3.953355  0.0
C  C188  1  0.07158613  0.12598481  0.69138646  1  0.512634  -9.7e-05  0.053302  0.104312  -0.000292  3.949802  0.0
C  C189  1  0.32541707  0.23723242  0.43458946  1  -0.047491  0.000186  -0.079089  -0.173528  -0.000246  3.917466  0.0
C  C190  1  0.89064936  0.56552441  0.80270990  1  0.006703  0.000244  -0.078091  -0.170509  -0.000211  3.916863  0.0
C  C191  1  0.08775218  0.19720436  0.76281855  1  -0.028822  0.000161  -0.078713  -0.17092  -0.00028  3.916177  0.0
C  C192  1  0.67458591  0.76277034  0.56541154  1  -0.047538  0.000186  -0.079147  -0.173623  -0.000246  3.917584  0.0
C  C193  1  0.10934614  0.43447653  0.19729383  1  0.00652  0.000244  -0.07808  -0.17041  -0.000211  3.916738  0.0
C  C194  1  0.91224479  0.80279294  0.23718103  1  -0.028919  0.000161  -0.07873  -0.171  -0.000281  3.916159  0.0
N  N195  1  0.78199383  0.93046912  0.46248375  1  -1.203225  0.000873  -0.36447  -0.337879  -0.010439  3.426078  -0.024
N  N196  1  0.31952709  0.53761112  0.46794632  1  -1.213249  0.00095  -0.363885  -0.338137  -0.010247  3.423981  -0.023
N  N197  1  0.85163665  0.53207989  0.06949813  1  -1.212569  0.000718  -0.364578  -0.337957  -0.010569  3.426131  -0.024
N  N198  1  0.21800794  0.06953122  0.53751656  1  -1.203652  0.000873  -0.364467  -0.337804  -0.010438  3.425996  -0.024
N  N199  1  0.68047418  0.46239042  0.53205606  1  -1.21285  0.000952  -0.363938  -0.338105  -0.01025  3.423834  -0.023
N  N200  1  0.14835984  0.46791862  0.93050042  1  -1.212558  0.00072  -0.364636  -0.338206  -0.010568  3.426477  -0.024
N  N201  1  0.07030002  0.94039162  0.55481709  1  -1.188554  -0.030304  -0.375208  -0.349798  -0.041872  3.442999  -0.047
N  N202  1  0.51553950  0.44510827  0.38563486  1  -1.183375  -0.030541  -0.374627  -0.348392  -0.04199  3.4429  -0.047
N  N203  1  0.13025910  0.61443277  0.05956352  1  -1.186478  -0.030233  -0.374419  -0.349725  -0.04186  3.443576  -0.047
N  N204  1  0.92970036  0.05960811  0.44518128  1  -1.18852  -0.030306  -0.375217  -0.349817  -0.041873  3.442971  -0.047
N  N205  1  0.48446178  0.55489328  0.61436649  1  -1.183315  -0.03054  -0.374632  -0.348321  -0.041989  3.442933  -0.047
N  N206  1  0.86973975  0.38556393  0.94043696  1  -1.186201  -0.03023  -0.374359  -0.349606  -0.041863  3.443464  -0.047
N  N207  1  0.23856489  0.97809795  0.24163530  1  -1.17271  -0.001902  -0.340643  -0.289836  -0.001761  3.299704  -0.001
N  N208  1  0.99638189  0.75828831  0.73637999  1  -1.189842  -0.001941  -0.341082  -0.292388  -0.001804  3.301655  -0.001
N  N209  1  0.26046343  0.26348845  0.02193139  1  -1.173678  -0.001871  -0.341588  -0.292274  -0.001733  3.299196  -0.001
N  N210  1  0.76143488  0.02190056  0.75836402  1  -1.172736  -0.001902  -0.340661  -0.289851  -0.001761  3.299775  -0.001
N  N211  1  0.00362357  0.24171505  0.26362304  1  -1.189405  -0.001941  -0.340932  -0.292147  -0.001804  3.301476  -0.001
N  N212  1  0.73953227  0.73651068  0.97806996  1  -1.173749  -0.001871  -0.341584  -0.292306  -0.001733  3.299195  -0.001
N  N213  1  0.64547485  0.62069219  0.51607380  1  -1.223647  0.060832  -0.311836  -0.244044  0.049521  3.506236  0.044
N  N214  1  0.12927143  0.48384045  0.10460259  1  -1.238143  0.061085  -0.309451  -0.241113  0.049634  3.506414  0.044
N  N215  1  0.02496653  0.89541798  0.37928134  1  -1.251855  0.060807  -0.310397  -0.241102  0.049419  3.505774  0.044
N  N216  1  0.35452456  0.37930996  0.48392716  1  -1.223607  0.060832  -0.311888  -0.244118  0.049521  3.506198  0.044
N  N217  1  0.87072196  0.51615625  0.89539798  1  -1.237767  0.061086  -0.309445  -0.24117  0.049636  3.506566  0.044
N  N218  1  0.97503573  0.10458115  0.62071741  1  -1.251863  0.060808  -0.310418  -0.24102  0.049421  3.5059  0.044
