# generated using pymatgen
data_CdH11C13N3O7
_symmetry_space_group_name_H-M   'P 1'
_cell_length_a   7.93009937
_cell_length_b   10.09103695
_cell_length_c   10.48666348
_cell_angle_alpha   94.62049493
_cell_angle_beta   110.13484054
_cell_angle_gamma   109.79980601
_symmetry_Int_Tables_number   1
_chemical_formula_structural   CdH11C13N3O7
_chemical_formula_sum   'Cd2 H22 C26 N6 O14'
_cell_volume   722.61016235
_cell_formula_units_Z   2
loop_
 _symmetry_equiv_pos_site_id
 _symmetry_equiv_pos_as_xyz
  1  'x, y, z'
loop_
 _atom_site_type_symbol
 _atom_site_label
 _atom_site_symmetry_multiplicity
 _atom_site_fract_x
 _atom_site_fract_y
 _atom_site_fract_z
 _atom_site_occupancy
 _atom_site_hle17_bader_spin_density
 _atom_site_hle17_ddec_charge
 _atom_site_hle17_ddec_spin_density
 _atom_site_hle17_ddec_sum_bond_order
 _atom_site_hle17_magmom
 _atom_site_hse06_10hf_bader_spin_density
 _atom_site_hse06_10hf_ddec_charge
 _atom_site_hse06_10hf_ddec_spin_density
 _atom_site_hse06_10hf_ddec_sum_bond_order
 _atom_site_hse06_10hf_magmom
 _atom_site_hse06_bader_spin_density
 _atom_site_hse06_ddec_charge
 _atom_site_hse06_ddec_spin_density
 _atom_site_hse06_ddec_sum_bond_order
 _atom_site_hse06_magmom
 _atom_site_pbe_bader_spin_density
 _atom_site_pbe_cm5_charge
 _atom_site_pbe_ddec_charge
 _atom_site_pbe_ddec_spin_density
 _atom_site_pbe_ddec_sum_bond_order
 _atom_site_pbe_magmom
Cd  Cd0  1  0.21727462  0.65209510  0.30988821  1  0  1.157251  0  1.598493  0  0  0.968506  0  2.041216  0  0  1.027224  0  1.987029  0  0  0.765633  0.926505  0  2.078948  0
Cd  Cd1  1  0.78272590  0.34789947  0.69012260  1  0  1.157216  0  1.598468  0  0  0.968488  0  2.041187  0  0  1.027202  0  1.987009  0  0  0.765626  0.926493  0  2.078918  0
H  H2  1  0.08153265  0.74044876  0.50316663  1  0  0.425601  0  0.88218  0  0  0.393446  0  0.947759  0  0  0.405505  0  0.930371  0  0  0.282789  0.384895  0  0.960052  0
H  H3  1  0.91846231  0.25955450  0.49683735  1  0  0.425656  0  0.882121  0  0  0.3935  0  0.947693  0  0  0.405558  0  0.930307  0  0  0.282831  0.384951  0  0.95998  0
H  H4  1  0.00758423  0.81210798  0.37465537  1  0  0.407232  0  0.894646  0  0  0.37081  0  0.966409  0  0  0.382415  0  0.949343  0  0  0.288379  0.362629  0  0.978438  0
H  H5  1  0.99242983  0.18791032  0.62535582  1  0  0.407271  0  0.894603  0  0  0.370851  0  0.966374  0  0  0.38246  0  0.949304  0  0  0.288389  0.362682  0  0.978385  0
H  H6  1  0.51222180  0.43682530  0.79482612  1  0  0.311823  0  0.935403  0  0  0.298356  0  0.99566  0  0  0.303865  0  0.992232  0  0  0.297287  0.294423  0  0.998179  0
H  H7  1  0.48776674  0.56318020  0.20517973  1  0  0.31181  0  0.935392  0  0  0.29834  0  0.995661  0  0  0.303849  0  0.992232  0  0  0.297271  0.294402  0  0.998194  0
H  H8  1  0.74412092  0.54409078  0.89794662  1  0  0.322911  0  0.865102  0  0  0.318001  0  0.91117  0  0  0.323151  0  0.90817  0  0  0.312982  0.314372  0  0.913248  0
H  H9  1  0.25587190  0.45590711  0.10206211  1  0  0.322859  0  0.865209  0  0  0.317953  0  0.911255  0  0  0.323102  0  0.908256  0  0  0.312973  0.314325  0  0.913336  0
H  H10  1  0.62934750  0.38758655  0.03983398  1  0  0.126449  0  0.955208  0  0  0.130703  0  1.024559  0  0  0.135231  0  1.019884  0  0  0.116281  0.127429  0  1.027985  0
H  H11  1  0.37065303  0.61242216  0.96018123  1  0  0.126504  0  0.955104  0  0  0.13065  0  1.024573  0  0  0.135171  0  1.019916  0  0  0.11632  0.127385  0  1.027979  0
H  H12  1  0.67875146  0.08893702  0.30755941  1  0  0.121299  0  0.93942  0  0  0.126646  0  1.008722  0  0  0.131115  0  1.003905  0  0  0.113704  0.123247  0  1.012521  0
H  H13  1  0.32121855  0.91104579  0.69243372  1  0  0.121257  0  0.939471  0  0  0.126602  0  1.008792  0  0  0.131073  0  1.003969  0  0  0.113708  0.123203  0  1.012592  0
H  H14  1  0.14917554  0.97771028  0.94431430  1  0  0.123236  0  0.948125  0  0  0.129393  0  1.015689  0  0  0.132929  0  1.012573  0  0  0.118321  0.126794  0  1.017956  0
H  H15  1  0.85081952  0.02229387  0.05566680  1  0  0.123185  0  0.948152  0  0  0.129304  0  1.01577  0  0  0.132839  0  1.012657  0  0  0.118286  0.126704  0  1.01804  0
H  H16  1  0.60760803  0.88878909  0.49303951  1  0  0.096724  0  0.95303  0  0  0.104376  0  1.017063  0  0  0.107643  0  1.014109  0  0  0.115528  0.10175  0  1.01992  0
H  H17  1  0.39245184  0.11120915  0.50696206  1  0  0.096623  0  0.952954  0  0  0.104361  0  1.016932  0  0  0.107627  0  1.013981  0  0  0.115517  0.101732  0  1.01978  0
H  H18  1  0.91697473  0.76829838  0.86235653  1  0  0.113464  0  0.950312  0  0  0.123673  0  1.011985  0  0  0.127077  0  1.009356  0  0  0.106875  0.12127  0  1.013821  0
H  H19  1  0.08304201  0.23168735  0.13765358  1  0  0.113394  0  0.950318  0  0  0.123683  0  1.011905  0  0  0.127098  0  1.00927  0  0  0.106879  0.121283  0  1.013732  0
H  H20  1  0.33642024  0.49000060  0.56760914  1  0  0.10225  0  0.931584  0  0  0.110842  0  0.993922  0  0  0.114373  0  0.991101  0  0  0.118142  0.1083  0  0.995944  0
H  H21  1  0.66358469  0.51001343  0.43239888  1  0  0.102282  0  0.93153  0  0  0.110781  0  0.99395  0  0  0.114307  0  0.991136  0  0  0.11812  0.108247  0  0.99597  0
H  H22  1  0.90259721  0.95127275  0.71341853  1  0  0.107539  0  0.998683  0  0  0.115705  0  1.059517  0  0  0.118522  0  1.058583  0  0  0.106123  0.113753  0  1.060276  0
H  H23  1  0.09746112  0.04871030  0.28658111  1  0  0.10753  0  0.998799  0  0  0.115643  0  1.059672  0  0  0.118463  0  1.058731  0  0  0.106058  0.113689  0  1.060431  0
C  C24  1  0.56725152  0.28444733  0.06453891  1  0  -0.080483  0  3.681061  0  0  -0.124082  0  3.942428  0  0  -0.119124  0  3.958268  0  0  -0.069653  -0.127388  0  3.932001  0
C  C25  1  0.43274165  0.71555486  0.93546556  1  0  -0.080504  0  3.681093  0  0  -0.123967  0  3.942504  0  0  -0.119008  0  3.958338  0  0  -0.069671  -0.12728  0  3.93208  0
C  C26  1  0.88214849  0.36200042  0.26886877  1  0  0.653836  0  3.914435  0  0  0.601255  0  4.210713  0  0  0.63607  0  4.204834  0  0  0.208594  0.577611  0  4.21382  0
C  C27  1  0.11784737  0.63799416  0.73113636  1  0  0.653891  0  3.914541  0  0  0.601323  0  4.210815  0  0  0.636138  0  4.204937  0  0  0.208606  0.577688  0  4.213909  0
C  C28  1  0.67768923  0.25054631  0.18289619  1  0  -0.056502  0  3.702079  0  0  -0.028005  0  3.938707  0  0  -0.038939  0  3.962425  0  0  -0.008664  -0.020852  0  3.922641  0
C  C29  1  0.32229881  0.74944616  0.81710720  1  0  -0.056433  0  3.702255  0  0  -0.028009  0  3.938961  0  0  -0.038943  0  3.962674  0  0  -0.00858  -0.020855  0  3.922895  0
C  C30  1  0.59595571  0.11749839  0.21523118  1  0  -0.024503  0  3.599486  0  0  -0.068473  0  3.854233  0  0  -0.063296  0  3.871495  0  0  -0.054252  -0.071088  0  3.842316  0
C  C31  1  0.40402158  0.88248868  0.78476094  1  0  -0.024392  0  3.599805  0  0  -0.068324  0  3.854542  0  0  -0.063138  0  3.871799  0  0  -0.054273  -0.070936  0  3.842622  0
C  C32  1  0.29729627  0.05210238  0.00999982  1  0  -0.084452  0  3.687178  0  0  -0.123779  0  3.944977  0  0  -0.11957  0  3.962583  0  0  -0.063988  -0.125837  0  3.93283  0
C  C33  1  0.70269400  0.94789643  0.98998553  1  0  -0.084234  0  3.686854  0  0  -0.123504  0  3.944675  0  0  -0.119294  0  3.962286  0  0  -0.063941  -0.125572  0  3.932529  0
C  C34  1  0.31049157  0.87958294  0.16795296  1  0  0.627023  0  3.95633  0  0  0.5825  0  4.244209  0  0  0.616158  0  4.240724  0  0  0.189919  0.559588  0  4.245853  0
C  C35  1  0.68946901  0.12040738  0.83201809  1  0  0.627055  0  3.955804  0  0  0.582569  0  4.243644  0  0  0.616228  0  4.240158  0  0  0.189986  0.559651  0  4.245304  0
C  C36  1  0.63195182  0.61357456  0.72422933  1  0  0.239989  0  3.832447  0  0  0.241205  0  4.082401  0  0  0.244843  0  4.106655  0  0  0.090553  0.238178  0  4.065936  0
C  C37  1  0.36805310  0.38641993  0.27577562  1  0  0.240041  0  3.832239  0  0  0.241244  0  4.082202  0  0  0.24488  0  4.106455  0  0  0.090522  0.23822  0  4.065735  0
C  C38  1  0.38120593  0.18447469  0.97978088  1  0  0.063431  0  3.740006  0  0  0.056328  0  4.00815  0  0  0.050486  0  4.030262  0  0  0.079673  0.059793  0  3.993323  0
C  C39  1  0.61878782  0.81553068  0.02021542  1  0  0.063451  0  3.739887  0  0  0.056296  0  4.00809  0  0  0.050457  0  4.030197  0  0  0.079721  0.059781  0  3.99324  0
C  C40  1  0.61798391  0.81396734  0.56182078  1  0  0.101072  0  3.697792  0  0  0.065782  0  3.951365  0  0  0.071831  0  3.969233  0  0  0.029928  0.061689  0  3.939537  0
C  C41  1  0.38206219  0.18602994  0.43817899  1  0  0.101271  0  3.697808  0  0  0.06596  0  3.951303  0  0  0.072008  0  3.969168  0  0  0.029843  0.061859  0  3.939498  0
C  C42  1  0.79046240  0.74654499  0.76581647  1  0  -0.115965  0  3.687985  0  0  -0.139811  0  3.938673  0  0  -0.140553  0  3.957927  0  0  -0.078974  -0.138948  0  3.925697  0
C  C43  1  0.20956460  0.25344604  0.23419140  1  0  -0.115777  0  3.687976  0  0  -0.139691  0  3.938672  0  0  -0.140446  0  3.95792  0  0  -0.078908  -0.138827  0  3.925689  0
C  C44  1  0.46751052  0.58953449  0.60289667  1  0  0.006899  0  3.686627  0  0  -0.029956  0  3.944852  0  0  -0.026819  0  3.964237  0  0  0.033098  -0.031645  0  3.931378  0
C  C45  1  0.53250558  0.41047616  0.39711025  1  0  0.006975  0  3.686319  0  0  -0.029768  0  3.944506  0  0  -0.026629  0  3.963887  0  0  0.033134  -0.031468  0  3.93105  0
C  C46  1  0.40507313  0.01925437  0.13008040  1  0  -0.053565  0  3.724253  0  0  -0.024885  0  3.955536  0  0  -0.036145  0  3.980956  0  0  -0.008362  -0.018224  0  3.93879  0
C  C47  1  0.59490181  0.98073589  0.86990107  1  0  -0.053872  0  3.724301  0  0  -0.025207  0  3.955658  0  0  -0.036476  0  3.981084  0  0  -0.008461  -0.018545  0  3.938918  0
C  C48  1  0.78231917  0.84701948  0.68357191  1  0  -0.09054  0  3.754603  0  0  -0.103659  0  4.008065  0  0  -0.108431  0  4.029209  0  0  -0.087271  -0.10065  0  3.993857  0
C  C49  1  0.21772606  0.15296806  0.31642952  1  0  -0.090671  0  3.754837  0  0  -0.103741  0  4.008322  0  0  -0.10851  0  4.029464  0  0  -0.087166  -0.100739  0  3.994113  0
N  N50  1  0.27445200  0.22074660  0.85454360  1  0  0.525741  0  3.865623  0  0  0.542742  0  4.171835  0  0  0.566046  0  4.177655  0  0  0.060809  0.527066  0  4.168112  0
N  N51  1  0.72555063  0.77928047  0.14546538  1  0  0.525701  0  3.865475  0  0  0.54274  0  4.171679  0  0  0.566047  0  4.177498  0  0  0.060776  0.527037  0  4.16798  0
N  N52  1  0.64354703  0.50463923  0.79758472  1  0  -0.668447  0  3.131045  0  0  -0.625441  0  3.364903  0  0  -0.646754  0  3.367164  0  0  -0.59173  -0.609586  0  3.363018  0
N  N53  1  0.35644462  0.49536192  0.20242222  1  0  -0.668462  0  3.13092  0  0  -0.625438  0  3.364778  0  0  -0.646749  0  3.367032  0  0  -0.591744  -0.609584  0  3.362902  0
N  N54  1  0.46336534  0.68732217  0.52352814  1  0  -0.332747  0  3.326377  0  0  -0.250234  0  3.594035  0  0  -0.27047  0  3.616302  0  0  -0.336969  -0.236205  0  3.578313  0
N  N55  1  0.53666088  0.31268295  0.47647822  1  0  -0.332915  0  3.326303  0  0  -0.250445  0  3.593997  0  0  -0.270681  0  3.616259  0  0  -0.336958  -0.236422  0  3.578292  0
O  O56  1  0.94343665  0.45953412  0.20529074  1  0  -0.651019  0  2.030101  0  0  -0.581406  0  2.291495  0  0  -0.612251  0  2.278513  0  0  -0.336096  -0.559587  0  2.299717  0
O  O57  1  0.05655396  0.54046487  0.79471672  1  0  -0.651093  0  2.030212  0  0  -0.58144  0  2.291532  0  0  -0.612287  0  2.278557  0  0  -0.336129  -0.559624  0  2.299751  0
O  O58  1  0.97765948  0.35531133  0.39010265  1  0  -0.618738  0  1.98004  0  0  -0.566223  0  2.204069  0  0  -0.591983  0  2.195249  0  0  -0.310195  -0.548179  0  2.209549  0
O  O59  1  0.02234215  0.64467556  0.60989701  1  0  -0.618828  0  1.980137  0  0  -0.566276  0  2.204107  0  0  -0.592034  0  2.195288  0  0  -0.310223  -0.548239  0  2.209589  0
O  O60  1  0.42622408  0.83815123  0.25912707  1  0  -0.652423  0  1.999327  0  0  -0.589074  0  2.24754  0  0  -0.62047  0  2.240333  0  0  -0.337458  -0.56688  0  2.252337  0
O  O61  1  0.57372137  0.16182950  0.74084578  1  0  -0.652156  0  1.998813  0  0  -0.588912  0  2.247145  0  0  -0.62031  0  2.239944  0  0  -0.337368  -0.5667  0  2.251907  0
O  O62  1  0.12752082  0.81287825  0.11173306  1  0  -0.632649  0  1.87345  0  0  -0.586333  0  2.09504  0  0  -0.61154  0  2.087082  0  0  -0.339999  -0.568402  0  2.099903  0
O  O63  1  0.87244285  0.18712071  0.88823759  1  0  -0.632715  0  1.873401  0  0  -0.586411  0  2.095007  0  0  -0.61161  0  2.087027  0  0  -0.340075  -0.568471  0  2.099875  0
O  O64  1  0.15838243  0.12104853  0.75099837  1  0  -0.354255  0  1.829631  0  0  -0.314337  0  2.032716  0  0  -0.328805  0  2.027893  0  0  -0.097332  -0.305064  0  2.03658  0
O  O65  1  0.84161832  0.87899153  0.24900493  1  0  -0.354375  0  1.829466  0  0  -0.314485  0  2.03252  0  0  -0.328955  0  2.027702  0  0  -0.097347  -0.30517  0  2.036359  0
O  O66  1  0.30644757  0.35060736  0.85492635  1  0  -0.378282  0  1.798555  0  0  -0.351098  0  2.013671  0  0  -0.362498  0  2.007357  0  0  -0.123058  -0.343954  0  2.018582  0
O  O67  1  0.69355820  0.64942198  0.14509784  1  0  -0.3782  0  1.798667  0  0  -0.351053  0  2.01382  0  0  -0.362458  0  2.007513  0  0  -0.123069  -0.343882  0  2.018684  0
O  O68  1  0.11990693  0.79312154  0.43336306  1  0  -0.839212  0  1.867254  0  0  -0.773481  0  2.062113  0  0  -0.796848  0  2.026059  0  0  -0.59061  -0.756848  0  2.087275  0
O  O69  1  0.88009453  0.20688383  0.56664239  1  0  -0.83933  0  1.867226  0  0  -0.773606  0  2.062062  0  0  -0.796966  0  2.025981  0  0  -0.590663  -0.756973  0  2.08721  0
