# generated using pymatgen
data_ZnH6C6N5O2
_symmetry_space_group_name_H-M   'P 1'
_cell_length_a   13.15459529
_cell_length_b   13.15710861
_cell_length_c   16.34686175
_cell_angle_alpha   113.74047304
_cell_angle_beta   113.73756419
_cell_angle_gamma   89.97311994
_symmetry_Int_Tables_number   1
_chemical_formula_structural   ZnH6C6N5O2
_chemical_formula_sum   'Zn8 H48 C48 N40 O16'
_cell_volume   2326.23505150
_cell_formula_units_Z   8
loop_
 _symmetry_equiv_pos_site_id
 _symmetry_equiv_pos_as_xyz
  1  'x, y, z'
loop_
 _atom_site_type_symbol
 _atom_site_label
 _atom_site_symmetry_multiplicity
 _atom_site_fract_x
 _atom_site_fract_y
 _atom_site_fract_z
 _atom_site_occupancy
 _atom_site_pbe_bader_charge
 _atom_site_pbe_bader_spin_density
 _atom_site_pbe_cm5_charge
 _atom_site_pbe_ddec_charge
 _atom_site_pbe_ddec_spin_density
 _atom_site_pbe_ddec_sum_bond_order
 _atom_site_pbe_magmom
Zn  Zn0  1  0.91816317  0.36912520  0.39178850  1  1.221529  0  0.717034  0.736539  0  2.438438  0
Zn  Zn1  1  0.47359880  0.02293917  0.39191022  1  1.218511  0  0.717164  0.735923  0  2.441235  0
Zn  Zn2  1  0.36909006  0.47383825  0.39178183  1  1.220061  0  0.717143  0.736144  0  2.439816  0
Zn  Zn3  1  0.02280789  0.91816505  0.39187758  1  1.218545  0  0.716761  0.736412  0  2.438629  0
Zn  Zn4  1  0.08183625  0.63088149  0.60821147  1  1.221328  0  0.717005  0.736489  0  2.438526  0
Zn  Zn5  1  0.52639917  0.97705754  0.60808832  1  1.218615  0  0.717161  0.73589  0  2.441264  0
Zn  Zn6  1  0.63090849  0.52616194  0.60821813  1  1.220026  0  0.717171  0.736101  0  2.439762  0
Zn  Zn7  1  0.97719310  0.08184079  0.60812395  1  1.218462  0  0.716778  0.736227  0  2.438717  0
H  H8  1  0.58405669  0.36636516  0.16055654  1  0.101244  0  0.106416  0.108373  0  0.994916  0
H  H9  1  0.57677208  0.79474931  0.16093352  1  0.08239  0  0.106125  0.10796  0  0.996344  0
H  H10  1  0.36646360  0.57658214  0.16055328  1  0.103983  0  0.106173  0.107698  0  0.995023  0
H  H11  1  0.79454561  0.58435363  0.16091270  1  0.080388  0  0.106021  0.107816  0  0.995664  0
H  H12  1  0.41595056  0.63363667  0.83944362  1  0.101277  0  0.106417  0.108399  0  0.995048  0
H  H13  1  0.42322500  0.20524972  0.83906750  1  0.082379  0  0.106135  0.107939  0  0.996348  0
H  H14  1  0.63353438  0.42341519  0.83945284  1  0.104079  0  0.10617  0.107785  0  0.994996  0
H  H15  1  0.20545141  0.41564768  0.83909583  1  0.080326  0  0.106043  0.10789  0  0.995634  0
H  H16  1  0.41999025  0.33046191  0.99971889  1  0.115291  0  0.095454  0.092638  0  1.054605  0
H  H17  1  0.58001732  0.66954006  0.00028664  1  0.115214  0  0.0954  0.092576  0  1.05455  0
H  H18  1  0.33068961  0.57964547  0.99978650  1  0.120105  0  0.095624  0.093133  0  1.053063  0
H  H19  1  0.66931016  0.42035568  0.00021971  1  0.119967  0  0.095609  0.093103  0  1.053074  0
H  H20  1  0.75319519  0.15277685  0.99993960  1  0.128569  0  0.110947  0.121219  0  1.008329  0
H  H21  1  0.24680797  0.84722002  0.00005650  1  0.128727  0  0.110961  0.121241  0  1.008275  0
H  H22  1  0.15275370  0.24698253  0.00006846  1  0.132488  0  0.11107  0.120272  0  1.009272  0
H  H23  1  0.84725110  0.75300714  0.99993516  1  0.132055  0  0.111062  0.120275  0  1.009301  0
H  H24  1  0.01918842  0.32123839  0.66289573  1  0.488224  0  0.303707  0.323659  0  0.97228  0
H  H25  1  0.64373392  0.34166108  0.66262243  1  0.496508  0  0.303391  0.322822  0  0.973822  0
H  H26  1  0.32113997  0.64387792  0.66273302  1  0.490582  0  0.303506  0.322553  0  0.973347  0
H  H27  1  0.34180941  0.01897314  0.66282117  1  0.512937  0  0.30366  0.323153  0  0.973336  0
H  H28  1  0.98080542  0.67876749  0.33710292  1  0.528129  0  0.303752  0.32361  0  0.97229  0
H  H29  1  0.35626743  0.65833826  0.33738030  1  0.496529  0  0.3034  0.322843  0  0.973818  0
H  H30  1  0.67885974  0.35613394  0.33726388  1  0.49008  0  0.303512  0.32252  0  0.973408  0
H  H31  1  0.65818926  0.98101876  0.33717469  1  0.512967  0  0.303614  0.323096  0  0.973305  0
H  H32  1  0.98314263  0.40629009  0.59975621  1  0.471126  0  0.299345  0.298574  0  1.01716  0
H  H33  1  0.61659476  0.19353963  0.59950827  1  0.487906  0  0.299093  0.298405  0  1.017643  0
H  H34  1  0.40611030  0.61675481  0.59960930  1  0.471318  0  0.299194  0.298481  0  1.016166  0
H  H35  1  0.19361387  0.98293045  0.59969439  1  0.487629  0  0.299025  0.298548  0  1.017188  0
H  H36  1  0.01685248  0.59371446  0.40024118  1  0.471191  0  0.299354  0.298522  0  1.017127  0
H  H37  1  0.38340909  0.80646055  0.40049273  1  0.487847  0  0.299102  0.298404  0  1.017642  0
H  H38  1  0.59388677  0.38325423  0.40038751  1  0.471274  0  0.299198  0.298483  0  1.016118  0
H  H39  1  0.80638463  0.01706295  0.40030046  1  0.488111  0  0.299003  0.298571  0  1.017101  0
H  H40  1  0.92516336  0.00748539  0.22925306  1  0.543064  0  0.297963  0.325592  0  1.003577  0
H  H41  1  0.30374486  0.22183200  0.22910149  1  0.52806  0  0.297949  0.32514  0  1.004381  0
H  H42  1  0.00754562  0.30398586  0.22924929  1  0.524304  0  0.297926  0.325418  0  1.003164  0
H  H43  1  0.22179875  0.92514446  0.22926316  1  0.524902  0  0.298395  0.325463  0  1.004006  0
H  H44  1  0.07484237  0.99251659  0.77075065  1  0.543041  0  0.297933  0.325522  0  1.003631  0
H  H45  1  0.69625427  0.77816420  0.77089988  1  0.527885  0  0.297952  0.325138  0  1.004298  0
H  H46  1  0.99245045  0.69601785  0.77074905  1  0.524342  0  0.297933  0.325534  0  1.003035  0
H  H47  1  0.77820370  0.07484974  0.77073561  1  0.52495  0  0.298389  0.325476  0  1.003995  0
H  H48  1  0.90565874  0.14387999  0.23583290  1  0.526446  0  0.295576  0.318081  0  1.014412  0
H  H49  1  0.32981608  0.09199978  0.23572522  1  0.517037  0  0.295918  0.31935  0  1.012238  0
H  H50  1  0.14388427  0.33031037  0.23575887  1  0.523994  0  0.29558  0.31829  0  1.014035  0
H  H51  1  0.09194235  0.90557971  0.23578780  1  0.513242  0  0.296004  0.319138  0  1.013006  0
H  H52  1  0.09434567  0.85611870  0.76416529  1  0.526438  0  0.295559  0.318054  0  1.014443  0
H  H53  1  0.67018483  0.90799806  0.76427791  1  0.517061  0  0.295935  0.319366  0  1.012243  0
H  H54  1  0.85611323  0.66969582  0.76424089  1  0.524019  0  0.295594  0.318417  0  1.013974  0
H  H55  1  0.90805796  0.09441185  0.76420800  1  0.51327  0  0.296005  0.319196  0  1.01299  0
C  C56  1  0.77986503  0.27957590  0.18424637  1  1.548104  0  0.214676  0.576433  0  4.194663  0
C  C57  1  0.40447713  0.90514810  0.18445379  1  1.542904  0  0.214843  0.576741  0  4.193801  0
C  C58  1  0.27961336  0.40479350  0.18439769  1  1.562736  0  0.2148  0.577369  0  4.193663  0
C  C59  1  0.90508092  0.77986074  0.18430881  1  1.542729  0  0.215677  0.578745  0  4.195158  0
C  C60  1  0.22014075  0.72041631  0.81574981  1  1.548378  0  0.21472  0.576436  0  4.194587  0
C  C61  1  0.59552444  0.09485276  0.81554411  1  1.543091  0  0.214858  0.576734  0  4.193732  0
C  C62  1  0.72038227  0.59520087  0.81560359  1  1.56242  0  0.214786  0.577447  0  4.19377  0
C  C63  1  0.09491664  0.22013944  0.81569436  1  1.5428  0  0.215806  0.578932  0  4.194753  0
C  C64  1  0.67881895  0.26117834  0.09029814  1  -0.031838  0  -0.020019  -0.046752  0  3.992988  0
C  C65  1  0.41161427  0.82946768  0.09059612  1  -0.01492  0  -0.019631  -0.047003  0  3.994368  0
C  C66  1  0.26118183  0.41167176  0.09039327  1  -0.029555  0  -0.020533  -0.049478  0  3.995202  0
C  C67  1  0.82939317  0.67890034  0.09048408  1  -0.02545  0  -0.020108  -0.04939  0  3.994759  0
C  C68  1  0.32118539  0.73881984  0.90970166  1  -0.031957  0  -0.020094  -0.04691  0  3.993122  0
C  C69  1  0.58838984  0.17053367  0.90940261  1  -0.014878  0  -0.01967  -0.04712  0  3.994263  0
C  C70  1  0.73881760  0.58831960  0.90960924  1  -0.029354  0  -0.02045  -0.049345  0  3.995114  0
C  C71  1  0.17060253  0.32110083  0.90952230  1  -0.025402  0  -0.020196  -0.049543  0  3.994881  0
C  C72  1  0.58454288  0.31124496  0.08997886  1  -0.037171  0  -0.076185  -0.079886  0  3.947347  0
C  C73  1  0.50567076  0.77919749  0.09034608  1  -0.063604  0  -0.075549  -0.07904  0  3.947489  0
C  C74  1  0.31126032  0.50554063  0.09002409  1  -0.019143  0  -0.074957  -0.0769  0  3.947564  0
C  C75  1  0.77901332  0.58474204  0.09029378  1  -0.014014  0  -0.074515  -0.077105  0  3.945853  0
C  C76  1  0.41546300  0.68875273  0.91001994  1  -0.037228  0  -0.076168  -0.079835  0  3.947402  0
C  C77  1  0.49433016  0.22079938  0.90965202  1  -0.063359  0  -0.07552  -0.078948  0  3.947374  0
C  C78  1  0.68873787  0.49445919  0.90998224  1  -0.019331  0  -0.075094  -0.077198  0  3.94768  0
C  C79  1  0.22098045  0.41525864  0.90971239  1  -0.01396  0  -0.074587  -0.077297  0  3.946141  0
C  C80  1  0.49282436  0.29100999  0.99978644  1  -0.040361  0  -0.090057  -0.087352  0  4.006471  0
C  C81  1  0.50718035  0.70898918  0.00021457  1  -0.04019  0  -0.089981  -0.08727  0  4.006308  0
C  C82  1  0.29117486  0.50691607  0.99982793  1  -0.110022  0  -0.091058  -0.0893  0  4.007519  0
C  C83  1  0.70882005  0.49308443  0.00017851  1  -0.110016  0  -0.091069  -0.089311  0  4.007341  0
C  C84  1  0.68003429  0.19140758  0.99987209  1  -0.049071  0  -0.069622  -0.094853  0  3.921415  0
C  C85  1  0.31996971  0.80859144  0.00012737  1  -0.048974  0  -0.069626  -0.094875  0  3.921479  0
C  C86  1  0.19140178  0.32002743  0.00000830  1  -0.066081  0  -0.06918  -0.09171  0  3.920631  0
C  C87  1  0.80859693  0.67996691  0.99999601  1  -0.065784  0  -0.06916  -0.091812  0  3.920565  0
C  C88  1  0.97414647  0.23722525  0.51525934  1  1.56614  0  0.326284  0.558089  0  4.136159  0
C  C89  1  0.54109919  0.27807264  0.51500871  1  1.560434  0  0.325177  0.555793  0  4.137463  0
C  C90  1  0.23705647  0.54145820  0.51508842  1  1.566456  0  0.326368  0.557693  0  4.134366  0
C  C91  1  0.27816119  0.97392142  0.51520257  1  1.558705  0  0.326338  0.558262  0  4.133191  0
C  C92  1  0.02585154  0.76278077  0.48474008  1  1.565846  0  0.326317  0.558256  0  4.136409  0
C  C93  1  0.45890196  0.72192638  0.48499214  1  1.560506  0  0.325219  0.55593  0  4.137332  0
C  C94  1  0.76294129  0.45855666  0.48490907  1  1.566388  0  0.326279  0.557637  0  4.134286  0
C  C95  1  0.72183823  0.02606931  0.48479236  1  1.558812  0  0.326389  0.558269  0  4.133209  0
C  C96  1  0.94396868  0.12702459  0.36399214  1  1.549656  0  0.328101  0.559021  0  4.157259  0
C  C97  1  0.41970754  0.23702618  0.36381880  1  1.582302  0  0.328507  0.558707  0  4.157978  0
C  C98  1  0.12696793  0.42013203  0.36391107  1  1.574953  0  0.328099  0.559388  0  4.156694  0
C  C99  1  0.23699314  0.94388796  0.36394745  1  1.602924  0  0.327336  0.557039  0  4.158933  0
C  C100  1  0.05603282  0.87298108  0.63600906  1  1.549671  0  0.327996  0.55884  0  4.157438  0
C  C101  1  0.58029413  0.76297267  0.63618172  1  1.582415  0  0.328511  0.558714  0  4.157865  0
C  C102  1  0.87302712  0.57988167  0.63608626  1  1.575314  0  0.328189  0.559555  0  4.156667  0
C  C103  1  0.76300604  0.05610377  0.63604807  1  1.603122  0  0.327249  0.556818  0  4.159294  0
N  N104  1  0.98687537  0.13506484  0.51208414  1  -0.868173  0  -0.316601  -0.369442  0  3.450454  0
N  N105  1  0.52514071  0.37703594  0.51186593  1  -0.866661  0  -0.316206  -0.368493  0  3.45201  0
N  N106  1  0.13497539  0.52537071  0.51197572  1  -0.868028  0  -0.31651  -0.368789  0  3.450109  0
N  N107  1  0.37711204  0.98671154  0.51200734  1  -0.86514  0  -0.31663  -0.370207  0  3.451466  0
N  N108  1  0.01312435  0.86494233  0.48791866  1  -0.868763  0  -0.316742  -0.369835  0  3.450781  0
N  N109  1  0.47486017  0.62296225  0.48813465  1  -0.866726  0  -0.316244  -0.368613  0  3.452035  0
N  N110  1  0.86502137  0.47464099  0.48802162  1  -0.868054  0  -0.316554  -0.36881  0  3.449954  0
N  N111  1  0.62288714  0.01328019  0.48798819  1  -0.865245  0  -0.31669  -0.370332  0  3.451365  0
N  N112  1  0.96486606  0.06198569  0.41289992  1  -0.849547  0  -0.314747  -0.382112  0  3.474235  0
N  N113  1  0.44780449  0.35095908  0.41274503  1  -0.870414  0  -0.31504  -0.382246  0  3.476568  0
N  N114  1  0.06195520  0.44805556  0.41285454  1  -0.86503  0  -0.314703  -0.382694  0  3.475105  0
N  N115  1  0.35095156  0.96481039  0.41285376  1  -0.893613  0  -0.314199  -0.380137  0  3.475892  0
N  N116  1  0.03513704  0.93802097  0.58710371  1  -0.84925  0  -0.314538  -0.381675  0  3.474089  0
N  N117  1  0.55219533  0.64903978  0.58725366  1  -0.870471  0  -0.314997  -0.382122  0  3.476575  0
N  N118  1  0.93804384  0.55195545  0.58714590  1  -0.865265  0  -0.314795  -0.382768  0  3.47509  0
N  N119  1  0.64904868  0.03518066  0.58714366  1  -0.893633  0  -0.314191  -0.38002  0  3.475891  0
N  N120  1  0.94723759  0.23652300  0.42489138  1  -1.223226  0  -0.378909  -0.524844  0  3.363609  0
N  N121  1  0.47747275  0.18844242  0.42470224  1  -1.231183  0  -0.37862  -0.523312  0  3.364461  0
N  N122  1  0.23639243  0.47796979  0.42474717  1  -1.245565  0  -0.379517  -0.525244  0  3.364466  0
N  N123  1  0.18846036  0.94707999  0.42486492  1  -1.238204  0  -0.378844  -0.524339  0  3.361188  0
N  N124  1  0.05276418  0.76348350  0.57511008  1  -1.223039  0  -0.37886  -0.524836  0  3.363701  0
N  N125  1  0.52252858  0.81155727  0.57529794  1  -1.231211  0  -0.378681  -0.523436  0  3.364575  0
N  N126  1  0.76360269  0.52204225  0.57525023  1  -1.245528  0  -0.379534  -0.525264  0  3.364506  0
N  N127  1  0.81153875  0.05290809  0.57512886  1  -1.238215  0  -0.378743  -0.524091  0  3.361167  0
N  N128  1  0.98402727  0.32797411  0.59765552  1  -1.285788  0  -0.589101  -0.657087  0  3.303992  0
N  N129  1  0.61388379  0.26972345  0.59734619  1  -1.31077  0  -0.588651  -0.655962  0  3.304086  0
N  N130  1  0.32774101  0.61421842  0.59744235  1  -1.285922  0  -0.588699  -0.655867  0  3.302456  0
N  N131  1  0.26983492  0.98363550  0.59757005  1  -1.319426  0  -0.589331  -0.657148  0  3.30348  0
N  N132  1  0.01596883  0.67203143  0.40234369  1  -1.325525  0  -0.589151  -0.657  0  3.304078  0
N  N133  1  0.38612189  0.73027706  0.40265410  1  -1.31073  0  -0.588674  -0.656024  0  3.304199  0
N  N134  1  0.67225378  0.38579880  0.40255137  1  -1.285329  0  -0.588596  -0.655744  0  3.302279  0
N  N135  1  0.73016429  0.01635274  0.40242467  1  -1.320027  0  -0.589275  -0.657108  0  3.303373  0
N  N136  1  0.92234545  0.08990809  0.26858211  1  -1.395757  0  -0.587276  -0.665731  0  3.321915  0
N  N137  1  0.34571821  0.17871979  0.26848103  1  -1.375693  0  -0.588122  -0.666306  0  3.318913  0
N  N138  1  0.08993040  0.34623272  0.26853948  1  -1.369094  0  -0.587331  -0.665558  0  3.320031  0
N  N139  1  0.17867323  0.92222775  0.26854039  1  -1.369911  0  -0.588455  -0.666142  0  3.320108  0
N  N140  1  0.07765974  0.91009440  0.73141937  1  -1.395702  0  -0.587235  -0.665622  0  3.321929  0
N  N141  1  0.65428236  0.82127889  0.73152176  1  -1.375593  0  -0.58811  -0.666287  0  3.318795  0
N  N142  1  0.91006465  0.65378099  0.73145785  1  -1.3692  0  -0.587308  -0.665828  0  3.319824  0
N  N143  1  0.82132759  0.07776364  0.73145509  1  -1.370146  0  -0.588475  -0.66622  0  3.320103  0
O  O144  1  0.77639141  0.33855465  0.26802860  1  -1.182147  0  -0.32397  -0.548964  0  2.338868  0
O  O145  1  0.49183736  0.93016388  0.26819911  1  -1.185499  0  -0.3233  -0.548435  0  2.340339  0
O  O146  1  0.33854977  0.49208886  0.26811085  1  -1.18655  0  -0.323577  -0.548888  0  2.337514  0
O  O147  1  0.93011402  0.77632771  0.26808327  1  -1.178132  0  -0.324268  -0.549458  0  2.340225  0
O  O148  1  0.22361664  0.66144470  0.73196814  1  -1.181836  0  -0.324032  -0.548974  0  2.338692  0
O  O149  1  0.50816206  0.06983531  0.73180086  1  -1.185561  0  -0.323337  -0.548468  0  2.340304  0
O  O150  1  0.66143908  0.50790437  0.73189044  1  -1.186227  0  -0.323635  -0.548916  0  2.337437  0
O  O151  1  0.06988548  0.22367479  0.73192100  1  -1.1781  0  -0.324251  -0.549443  0  2.340223  0
O  O152  1  0.86402259  0.23711591  0.17837088  1  -1.195457  0  -0.305777  -0.545172  0  2.22215  0
O  O153  1  0.31432439  0.94149228  0.17858135  1  -1.193471  0  -0.306224  -0.545966  0  2.222173  0
O  O154  1  0.23730200  0.31482624  0.17868829  1  -1.199106  0  -0.305646  -0.545482  0  2.224666  0
O  O155  1  0.94145794  0.86404944  0.17839965  1  -1.189844  0  -0.306591  -0.546941  0  2.223006  0
O  O156  1  0.13597745  0.76286950  0.82162297  1  -1.195848  0  -0.305742  -0.545155  0  2.222189  0
O  O157  1  0.68567500  0.05850944  0.82141439  1  -1.193628  0  -0.306226  -0.545932  0  2.222168  0
O  O158  1  0.76270003  0.68516079  0.82131175  1  -1.198936  0  -0.305652  -0.54555  0  2.224817  0
O  O159  1  0.05854241  0.13594988  0.82160630  1  -1.189972  0  -0.306693  -0.54704  0  2.222729  0
