# generated using pymatgen
data_Ag2H12PdC12(N2O5)2
_symmetry_space_group_name_H-M   'P 1'
_cell_length_a   4.64358835
_cell_length_b   7.72458868
_cell_length_c   25.90912657
_cell_angle_alpha   89.99996233
_cell_angle_beta   89.99997352
_cell_angle_gamma   105.15964423
_symmetry_Int_Tables_number   1
_chemical_formula_structural   Ag2H12PdC12(N2O5)2
_chemical_formula_sum   'Ag4 H24 Pd2 C24 N8 O20'
_cell_volume   897.01473868
_cell_formula_units_Z   2
loop_
 _symmetry_equiv_pos_site_id
 _symmetry_equiv_pos_as_xyz
  1  'x, y, z'
loop_
 _atom_site_type_symbol
 _atom_site_label
 _atom_site_symmetry_multiplicity
 _atom_site_fract_x
 _atom_site_fract_y
 _atom_site_fract_z
 _atom_site_occupancy
 _atom_site_hle17_bader_spin_density
 _atom_site_hle17_ddec_charge
 _atom_site_hle17_ddec_spin_density
 _atom_site_hle17_ddec_sum_bond_order
 _atom_site_hle17_magmom
 _atom_site_hse06_10hf_bader_spin_density
 _atom_site_hse06_10hf_ddec_charge
 _atom_site_hse06_10hf_ddec_spin_density
 _atom_site_hse06_10hf_ddec_sum_bond_order
 _atom_site_hse06_10hf_magmom
 _atom_site_hse06_bader_spin_density
 _atom_site_hse06_ddec_charge
 _atom_site_hse06_ddec_spin_density
 _atom_site_hse06_ddec_sum_bond_order
 _atom_site_hse06_magmom
 _atom_site_pbe_bader_spin_density
 _atom_site_pbe_cm5_charge
 _atom_site_pbe_ddec_charge
 _atom_site_pbe_ddec_spin_density
 _atom_site_pbe_ddec_sum_bond_order
 _atom_site_pbe_magmom
Ag  Ag0  1  0.79961998  0.75889398  0.79232996  1  0  0.680356  0  1.336345  0  0  0.571458  0  1.778257  0  0  0.595511  0  1.727878  0  0  0.494766  0.555111  0  1.813204  0
Ag  Ag1  1  0.20038075  0.74110891  0.29232973  1  0  0.680399  0  1.336333  0  0  0.571463  0  1.778259  0  0  0.595518  0  1.727871  0  0  0.494778  0.555111  0  1.813199  0
Ag  Ag2  1  0.20037954  0.24110798  0.20767080  1  0  0.680388  0  1.336323  0  0  0.571455  0  1.778248  0  0  0.595509  0  1.727866  0  0  0.494765  0.5551  0  1.813187  0
Ag  Ag3  1  0.79962308  0.25889305  0.70767027  1  0  0.680362  0  1.336321  0  0  0.571449  0  1.778244  0  0  0.595505  0  1.727859  0  0  0.494764  0.555097  0  1.813185  0
H  H4  1  0.74006956  0.15118816  0.87988102  1  0  0.149122  0  0.935636  0  0  0.168418  0  0.992406  0  0  0.171632  0  0.990691  0  0  0.103926  0.166078  0  0.993625  0
H  H5  1  0.25992848  0.34880837  0.37988192  1  0  0.149134  0  0.93567  0  0  0.168433  0  0.992429  0  0  0.171646  0  0.990714  0  0  0.103931  0.166094  0  0.993646  0
H  H6  1  0.25993191  0.84880843  0.12011781  1  0  0.149116  0  0.935658  0  0  0.168419  0  0.992421  0  0  0.171632  0  0.990707  0  0  0.103936  0.166076  0  0.993645  0
H  H7  1  0.74007104  0.65119359  0.62011923  1  0  0.149083  0  0.93571  0  0  0.168384  0  0.992472  0  0  0.171598  0  0.990757  0  0  0.103902  0.166041  0  0.993699  0
H  H8  1  0.12993737  0.26849265  0.87955374  1  0  0.150298  0  0.932714  0  0  0.168964  0  0.990701  0  0  0.170869  0  0.991621  0  0  0.104733  0.167545  0  0.990131  0
H  H9  1  0.87006556  0.23150522  0.37955384  1  0  0.150322  0  0.932752  0  0  0.168959  0  0.990778  0  0  0.170845  0  0.991718  0  0  0.10471  0.16754  0  0.990204  0
H  H10  1  0.87006684  0.73150528  0.12044664  1  0  0.150338  0  0.932733  0  0  0.168979  0  0.990755  0  0  0.170865  0  0.991698  0  0  0.104721  0.167559  0  0.99018  0
H  H11  1  0.12993493  0.76849406  0.62044731  1  0  0.150347  0  0.93275  0  0  0.168981  0  0.990772  0  0  0.17087  0  0.99171  0  0  0.104717  0.167563  0  0.990196  0
H  H12  1  0.87847033  0.33160905  0.83627011  1  0  0.158793  0  0.926529  0  0  0.174349  0  0.99132  0  0  0.177632  0  0.989674  0  0  0.108209  0.171832  0  0.992707  0
H  H13  1  0.12153121  0.16839029  0.33627067  1  0  0.158821  0  0.926498  0  0  0.174369  0  0.9913  0  0  0.177651  0  0.989652  0  0  0.108219  0.171853  0  0.992687  0
H  H14  1  0.12153232  0.66839023  0.16372911  1  0  0.158794  0  0.926526  0  0  0.174344  0  0.991328  0  0  0.177626  0  0.989682  0  0  0.108208  0.171827  0  0.992714  0
H  H15  1  0.87847321  0.83161301  0.66373009  1  0  0.158781  0  0.926551  0  0  0.174325  0  0.991353  0  0  0.177609  0  0.9897  0  0  0.108205  0.171809  0  0.992744  0
H  H16  1  0.17700445  0.01218996  0.96722441  1  0  0.150609  0  0.952262  0  0  0.1664  0  1.012558  0  0  0.170142  0  1.010537  0  0  0.100506  0.163701  0  1.014042  0
H  H17  1  0.82299541  0.48780632  0.46722485  1  0  0.150624  0  0.952259  0  0  0.166396  0  1.012578  0  0  0.170137  0  1.010559  0  0  0.100482  0.163692  0  1.014069  0
H  H18  1  0.82298997  0.98780530  0.03277519  1  0  0.150639  0  0.95222  0  0  0.166409  0  1.012536  0  0  0.17015  0  1.010518  0  0  0.100491  0.163707  0  1.014026  0
H  H19  1  0.17700568  0.51219430  0.53277514  1  0  0.150636  0  0.952245  0  0  0.166406  0  1.012562  0  0  0.170147  0  1.010544  0  0  0.10049  0.163705  0  1.014053  0
H  H20  1  0.24907226  0.95708504  0.90207044  1  0  0.155094  0  0.964  0  0  0.174043  0  1.023077  0  0  0.176769  0  1.022277  0  0  0.105505  0.172021  0  1.023727  0
H  H21  1  0.75093060  0.54291351  0.40207059  1  0  0.155102  0  0.964008  0  0  0.174029  0  1.023108  0  0  0.176753  0  1.02231  0  0  0.105501  0.172007  0  1.023756  0
H  H22  1  0.75092765  0.04291290  0.09792916  1  0  0.155082  0  0.963977  0  0  0.174024  0  1.023059  0  0  0.176749  0  1.022261  0  0  0.105492  0.172004  0  1.023703  0
H  H23  1  0.24907049  0.45708711  0.59792902  1  0  0.155094  0  0.964025  0  0  0.174017  0  1.02312  0  0  0.176742  0  1.022321  0  0  0.105492  0.171991  0  1.023773  0
H  H24  1  0.45846521  0.89960855  0.95344963  1  0  0.148744  0  0.933774  0  0  0.167507  0  0.992526  0  0  0.170056  0  0.992249  0  0  0.103017  0.16562  0  0.992815  0
H  H25  1  0.54153411  0.60038718  0.45345017  1  0  0.148702  0  0.933669  0  0  0.167445  0  0.992459  0  0  0.169994  0  0.992182  0  0  0.102974  0.165555  0  0.992749  0
H  H26  1  0.54153136  0.10038671  0.04654997  1  0  0.14874  0  0.933767  0  0  0.167478  0  0.992545  0  0  0.170027  0  0.992268  0  0  0.103001  0.165587  0  0.992838  0
H  H27  1  0.45846423  0.39961210  0.54655059  1  0  0.148717  0  0.933684  0  0  0.167459  0  0.992464  0  0  0.170008  0  0.992187  0  0  0.102984  0.165569  0  0.992752  0
Pd  Pd28  1  0.49999734  0.49999693  0.99999968  1  0  0.596858  0  2.487003  0  0  0.525434  0  3.0358  0  0  0.570181  0  2.992841  0  0  0.778457  0.498942  0  3.063951  0
Pd  Pd29  1  0.49999750  0.99999793  0.50000024  1  0  0.59683  0  2.487057  0  0  0.525391  0  3.035827  0  0  0.570134  0  2.99288  0  0  0.778425  0.498898  0  3.063979  0
C  C30  1  0.90095094  0.28171922  0.87549105  1  0  -0.419997  0  3.628255  0  0  -0.495058  0  3.855309  0  0  -0.504102  0  3.859612  0  0  -0.242195  -0.488516  0  3.852231  0
C  C31  1  0.09904555  0.21827867  0.37549121  1  0  -0.420014  0  3.628358  0  0  -0.495066  0  3.85543  0  0  -0.504092  0  3.859747  0  0  -0.24217  -0.488523  0  3.852347  0
C  C32  1  0.09904896  0.71827872  0.12450933  1  0  -0.419999  0  3.628385  0  0  -0.495067  0  3.855457  0  0  -0.504093  0  3.859771  0  0  -0.242199  -0.488525  0  3.852369  0
C  C33  1  0.90095553  0.78172195  0.62451032  1  0  -0.420006  0  3.628393  0  0  -0.495041  0  3.855445  0  0  -0.504065  0  3.859753  0  0  -0.24217  -0.4885  0  3.852366  0
C  C34  1  0.84526442  0.41195752  0.91434684  1  0  0.511606  0  3.677533  0  0  0.485325  0  3.956263  0  0  0.516965  0  3.956601  0  0  0.139965  0.464108  0  3.955551  0
C  C35  1  0.15473349  0.08803892  0.41434703  1  0  0.511582  0  3.677525  0  0  0.485286  0  3.956279  0  0  0.516931  0  3.956611  0  0  0.139892  0.464066  0  3.95557  0
C  C36  1  0.15473489  0.58803908  0.08565277  1  0  0.511543  0  3.677563  0  0  0.485281  0  3.956293  0  0  0.516926  0  3.956631  0  0  0.139893  0.464061  0  3.955577  0
C  C37  1  0.84526916  0.91196035  0.58565296  1  0  0.511653  0  3.677322  0  0  0.485322  0  3.956099  0  0  0.516964  0  3.956439  0  0  0.139961  0.464103  0  3.955389  0
C  C38  1  0.03897507  0.58935478  0.91535268  1  0  -0.362429  0  3.868665  0  0  -0.35809  0  4.145913  0  0  -0.381278  0  4.159955  0  0  -0.067051  -0.343019  0  4.136632  0
C  C39  1  0.96102009  0.91064106  0.41535351  1  0  -0.362519  0  3.868704  0  0  -0.358146  0  4.145889  0  0  -0.381333  0  4.15994  0  0  -0.067006  -0.343071  0  4.1366  0
C  C40  1  0.96102150  0.41064047  0.08464654  1  0  -0.362424  0  3.8686  0  0  -0.358092  0  4.145816  0  0  -0.381273  0  4.159849  0  0  -0.066988  -0.343004  0  4.136509  0
C  C41  1  0.03898099  0.08935956  0.58464610  1  0  -0.362497  0  3.8686  0  0  -0.358092  0  4.145842  0  0  -0.381275  0  4.159884  0  0  -0.066988  -0.343016  0  4.136548  0
C  C42  1  0.01475631  0.73356321  0.94796125  1  0  0.49639  0  3.695565  0  0  0.469403  0  3.97805  0  0  0.500863  0  3.977978  0  0  0.132728  0.448171  0  3.977805  0
C  C43  1  0.98524147  0.76643387  0.44796211  1  0  0.49636  0  3.695603  0  0  0.469385  0  3.978078  0  0  0.500831  0  3.978026  0  0  0.132716  0.448157  0  3.977832  0
C  C44  1  0.98524085  0.26643339  0.05203797  1  0  0.49627  0  3.695679  0  0  0.469291  0  3.978178  0  0  0.500741  0  3.978123  0  0  0.132683  0.448055  0  3.977944  0
C  C45  1  0.01475805  0.23356809  0.55203788  1  0  0.496444  0  3.695526  0  0  0.469352  0  3.978138  0  0  0.5008  0  3.978082  0  0  0.132667  0.448119  0  3.977892  0
C  C46  1  0.23585774  0.91211625  0.94246316  1  0  -0.427154  0  3.631819  0  0  -0.501165  0  3.858782  0  0  -0.510145  0  3.862201  0  0  -0.246005  -0.494676  0  3.856328  0
C  C47  1  0.76414378  0.58787950  0.44246407  1  0  -0.427093  0  3.631716  0  0  -0.50106  0  3.858667  0  0  -0.510035  0  3.862091  0  0  -0.245915  -0.494569  0  3.856207  0
C  C48  1  0.76413942  0.08788035  0.05753606  1  0  -0.42712  0  3.631759  0  0  -0.501071  0  3.858666  0  0  -0.510047  0  3.86209  0  0  -0.245948  -0.494579  0  3.856205  0
C  C49  1  0.23585457  0.41211978  0.55753631  1  0  -0.427124  0  3.631725  0  0  -0.501055  0  3.858708  0  0  -0.510033  0  3.862136  0  0  -0.245914  -0.494557  0  3.856233  0
C  C50  1  0.27719396  0.62767874  0.87964594  1  0  0.347243  0  3.813501  0  0  0.327575  0  4.093049  0  0  0.343883  0  4.111861  0  0  0.193331  0.316253  0  4.080981  0
C  C51  1  0.72280193  0.87231854  0.37964641  1  0  0.347261  0  3.813594  0  0  0.327579  0  4.093146  0  0  0.343887  0  4.111957  0  0  0.193302  0.316254  0  4.081068  0
C  C52  1  0.72280105  0.37231786  0.12035366  1  0  0.347293  0  3.813523  0  0  0.327626  0  4.093084  0  0  0.343933  0  4.111902  0  0  0.193324  0.316296  0  4.080999  0
C  C53  1  0.27719759  0.12768343  0.62035358  1  0  0.347276  0  3.813629  0  0  0.327596  0  4.093165  0  0  0.343903  0  4.111981  0  0  0.193336  0.31627  0  4.081091  0
N  N54  1  0.47932519  0.66095516  0.85121155  1  0  -0.438229  0  2.956912  0  0  -0.396752  0  3.277926  0  0  -0.413231  0  3.280628  0  0  -0.354547  -0.386137  0  3.2767  0
N  N55  1  0.52067199  0.83904488  0.35121204  1  0  -0.438207  0  2.957011  0  0  -0.396726  0  3.278035  0  0  -0.413206  0  3.28074  0  0  -0.354522  -0.386108  0  3.276797  0
N  N56  1  0.52067315  0.33904412  0.14878806  1  0  -0.438232  0  2.956969  0  0  -0.396749  0  3.277985  0  0  -0.41323  0  3.280695  0  0  -0.354532  -0.386128  0  3.276739  0
N  N57  1  0.47932597  0.16095843  0.64878833  1  0  -0.438211  0  2.957027  0  0  -0.396729  0  3.278048  0  0  -0.413209  0  3.280755  0  0  -0.354542  -0.386114  0  3.276819  0
N  N58  1  0.22020331  0.11203172  0.78483925  1  0  0.689226  0  4.12589  0  0  0.733997  0  4.386196  0  0  0.763664  0  4.393951  0  0  0.090611  0.713906  0  4.380389  0
N  N59  1  0.77979960  0.38797044  0.28483933  1  0  0.689764  0  4.125509  0  0  0.734129  0  4.386263  0  0  0.763797  0  4.394016  0  0  0.090636  0.714036  0  4.380461  0
N  N60  1  0.77979836  0.88797024  0.21516074  1  0  0.689528  0  4.125649  0  0  0.73403  0  4.386245  0  0  0.763699  0  4.394  0  0  0.090647  0.713937  0  4.380444  0
N  N61  1  0.22020481  0.61203286  0.71516067  1  0  0.689436  0  4.12573  0  0  0.734126  0  4.386103  0  0  0.763793  0  4.393858  0  0  0.090668  0.714027  0  4.380304  0
O  O62  1  0.62352616  0.35439405  0.94461225  1  0  -0.427133  0  2.156235  0  0  -0.368109  0  2.426751  0  0  -0.398299  0  2.419869  0  0  -0.289894  -0.348491  0  2.43102  0
O  O63  1  0.37647163  0.14560230  0.44461241  1  0  -0.427107  0  2.156292  0  0  -0.368066  0  2.426787  0  0  -0.398249  0  2.419874  0  0  -0.289844  -0.348448  0  2.431055  0
O  O64  1  0.37647256  0.64560121  0.05538774  1  0  -0.427107  0  2.156322  0  0  -0.368077  0  2.426817  0  0  -0.398257  0  2.419891  0  0  -0.289838  -0.34846  0  2.431084  0
O  O65  1  0.62352671  0.85439698  0.55538797  1  0  -0.427178  0  2.156164  0  0  -0.3681  0  2.42665  0  0  -0.398279  0  2.419735  0  0  -0.289893  -0.348483  0  2.430919  0
O  O66  1  0.81498147  0.72283717  0.98275668  1  0  -0.439819  0  2.186195  0  0  -0.382128  0  2.463328  0  0  -0.41202  0  2.455103  0  0  -0.293539  -0.362639  0  2.468551  0
O  O67  1  0.18501737  0.77716250  0.48275722  1  0  -0.439721  0  2.186146  0  0  -0.382065  0  2.463306  0  0  -0.411952  0  2.455091  0  0  -0.293526  -0.362571  0  2.468503  0
O  O68  1  0.18501629  0.27716077  0.01724292  1  0  -0.439707  0  2.186205  0  0  -0.382048  0  2.463364  0  0  -0.411937  0  2.455147  0  0  -0.293506  -0.362549  0  2.468555  0
O  O69  1  0.81497941  0.22283813  0.51724355  1  0  -0.439849  0  2.186175  0  0  -0.382104  0  2.463323  0  0  -0.411993  0  2.455104  0  0  -0.293522  -0.36261  0  2.46852  0
O  O70  1  0.98104514  0.05485416  0.75698649  1  0  -0.506388  0  1.920133  0  0  -0.472936  0  2.197719  0  0  -0.495685  0  2.183256  0  0  -0.215925  -0.457027  0  2.207367  0
O  O71  1  0.01895787  0.44514808  0.25698662  1  0  -0.506563  0  1.920108  0  0  -0.472968  0  2.197797  0  0  -0.495718  0  2.183337  0  0  -0.215929  -0.457066  0  2.207465  0
O  O72  1  0.01895653  0.94514780  0.24301350  1  0  -0.506502  0  1.920068  0  0  -0.47295  0  2.197721  0  0  -0.495698  0  2.183258  0  0  -0.215942  -0.457038  0  2.207361  0
O  O73  1  0.98104654  0.55485522  0.74301337  1  0  -0.506448  0  1.920148  0  0  -0.472985  0  2.197779  0  0  -0.495735  0  2.183317  0  0  -0.215947  -0.457077  0  2.207438  0
O  O74  1  0.38768153  0.26549617  0.77751054  1  0  -0.441757  0  1.814143  0  0  -0.434521  0  2.04787  0  0  -0.449056  0  2.038913  0  0  -0.175228  -0.424449  0  2.053974  0
O  O75  1  0.61231985  0.23450736  0.27751066  1  0  -0.441965  0  1.814054  0  0  -0.434589  0  2.047908  0  0  -0.449125  0  2.038949  0  0  -0.175254  -0.424523  0  2.054018  0
O  O76  1  0.61231799  0.73450580  0.22248907  1  0  -0.441882  0  1.814084  0  0  -0.43455  0  2.047888  0  0  -0.449087  0  2.03893  0  0  -0.175251  -0.424477  0  2.053989  0
O  O77  1  0.38768026  0.76549595  0.72248972  1  0  -0.441825  0  1.814111  0  0  -0.43458  0  2.047879  0  0  -0.449116  0  2.038921  0  0  -0.17527  -0.42451  0  2.053987  0
O  O78  1  0.27210161  0.00689989  0.81883114  1  0  -0.473044  0  1.831014  0  0  -0.461426  0  2.067479  0  0  -0.479295  0  2.059632  0  0  -0.182167  -0.448888  0  2.072578  0
O  O79  1  0.72790176  0.49310351  0.31883082  1  0  -0.473254  0  1.8309  0  0  -0.461457  0  2.067442  0  0  -0.479324  0  2.059586  0  0  -0.182166  -0.448918  0  2.072544  0
O  O80  1  0.72790006  0.99310207  0.18116885  1  0  -0.473159  0  1.831011  0  0  -0.46143  0  2.067537  0  0  -0.479298  0  2.059681  0  0  -0.18217  -0.448893  0  2.072636  0
O  O81  1  0.27210540  0.50690112  0.68116918  1  0  -0.473138  0  1.830912  0  0  -0.461446  0  2.067363  0  0  -0.479318  0  2.059522  0  0  -0.182162  -0.448899  0  2.072457  0
