# generated using pymatgen
data_ZnPH8C7(NO2)2
_symmetry_space_group_name_H-M   'P 1'
_cell_length_a   8.00174109
_cell_length_b   8.31529708
_cell_length_c   14.11553201
_cell_angle_alpha   79.99156791
_cell_angle_beta   80.46129101
_cell_angle_gamma   75.77299249
_symmetry_Int_Tables_number   1
_chemical_formula_structural   ZnPH8C7(NO2)2
_chemical_formula_sum   'Zn4 P4 H32 C28 N8 O16'
_cell_volume   889.06909169
_cell_formula_units_Z   4
loop_
 _symmetry_equiv_pos_site_id
 _symmetry_equiv_pos_as_xyz
  1  'x, y, z'
loop_
 _atom_site_type_symbol
 _atom_site_label
 _atom_site_symmetry_multiplicity
 _atom_site_fract_x
 _atom_site_fract_y
 _atom_site_fract_z
 _atom_site_occupancy
 _atom_site_hle17_bader_spin_density
 _atom_site_hle17_ddec_charge
 _atom_site_hle17_ddec_spin_density
 _atom_site_hle17_ddec_sum_bond_order
 _atom_site_hle17_magmom
 _atom_site_hse06_10hf_bader_spin_density
 _atom_site_hse06_10hf_ddec_charge
 _atom_site_hse06_10hf_ddec_spin_density
 _atom_site_hse06_10hf_ddec_sum_bond_order
 _atom_site_hse06_10hf_magmom
 _atom_site_hse06_bader_spin_density
 _atom_site_hse06_ddec_charge
 _atom_site_hse06_ddec_spin_density
 _atom_site_hse06_ddec_sum_bond_order
 _atom_site_hse06_magmom
 _atom_site_pbe_bader_spin_density
 _atom_site_pbe_cm5_charge
 _atom_site_pbe_ddec_charge
 _atom_site_pbe_ddec_spin_density
 _atom_site_pbe_ddec_sum_bond_order
 _atom_site_pbe_magmom
Zn  Zn0  1  0.41102242  0.64180380  0.39130311  1  0  1.169238  0  1.817723  0  0  0.996497  0  2.293942  0  0  1.038928  0  2.234885  0  0  0.719163  0.966693  0  2.334688  0
Zn  Zn1  1  0.58897994  0.35820218  0.60869664  1  0  1.169193  0  1.817789  0  0  0.996436  0  2.294  0  0  1.038865  0  2.234949  0  0  0.719119  0.96663  0  2.334745  0
Zn  Zn2  1  0.92423463  0.12375296  0.38272889  1  0  1.163504  0  1.813861  0  0  0.988684  0  2.287616  0  0  1.03111  0  2.229606  0  0  0.722882  0.958898  0  2.32762  0
Zn  Zn3  1  0.07576266  0.87624893  0.61727269  1  0  1.163516  0  1.813836  0  0  0.988688  0  2.287563  0  0  1.031112  0  2.229551  0  0  0.722878  0.958901  0  2.327564  0
P  P4  1  0.78339355  0.51745969  0.41269369  1  0  1.771128  0  4.890503  0  0  1.58693  0  5.404882  0  0  1.645357  0  5.351104  0  0  0.405187  1.546045  0  5.441501  0
P  P5  1  0.21660693  0.48254341  0.58730382  1  0  1.77096  0  4.890634  0  0  1.586788  0  5.404964  0  0  1.645206  0  5.351198  0  0  0.405133  1.545898  0  5.441589  0
P  P6  1  0.28377684  0.02212316  0.43075309  1  0  1.738435  0  4.899527  0  0  1.550544  0  5.417548  0  0  1.608248  0  5.364941  0  0  0.403034  1.510364  0  5.453299  0
P  P7  1  0.71622088  0.97788119  0.56924669  1  0  1.738844  0  4.898897  0  0  1.551002  0  5.416867  0  0  1.608689  0  5.364307  0  0  0.403239  1.510821  0  5.45263  0
H  H8  1  0.87565747  0.73723566  0.43967752  1  0  0.450722  0  0.827237  0  0  0.420622  0  0.895087  0  0  0.431005  0  0.880008  0  0  0.318745  0.413337  0  0.905646  0
H  H9  1  0.12434426  0.26276391  0.56032315  1  0  0.450735  0  0.827262  0  0  0.420621  0  0.89511  0  0  0.430999  0  0.88004  0  0  0.318745  0.413335  0  0.905673  0
H  H10  1  0.46014262  0.17101798  0.45911986  1  0  0.445963  0  0.827745  0  0  0.415154  0  0.901636  0  0  0.425648  0  0.887421  0  0  0.317032  0.407776  0  0.909869  0
H  H11  1  0.53985628  0.82898635  0.54087838  1  0  0.445987  0  0.827679  0  0  0.415195  0  0.901549  0  0  0.425685  0  0.887368  0  0  0.317082  0.407816  0  0.909783  0
H  H12  1  0.45376603  0.39086961  0.87759838  1  0  0.100723  0  0.955932  0  0  0.113103  0  1.013788  0  0  0.115168  0  1.014166  0  0  0.104449  0.111599  0  1.013635  0
H  H13  1  0.54623763  0.60912743  0.12240098  1  0  0.100718  0  0.955903  0  0  0.113084  0  1.013772  0  0  0.115147  0  1.014148  0  0  0.104456  0.11158  0  1.013622  0
H  H14  1  0.29128447  0.53666271  0.01585687  1  0  0.089791  0  0.968589  0  0  0.097967  0  1.035865  0  0  0.100565  0  1.035452  0  0  0.098303  0.096134  0  1.036177  0
H  H15  1  0.70872144  0.46333596  0.98414486  1  0  0.089815  0  0.968519  0  0  0.09797  0  1.035829  0  0  0.100569  0  1.035406  0  0  0.098294  0.096134  0  1.03615  0
H  H16  1  0.05025562  0.12000186  0.12275966  1  0  0.097093  0  0.964885  0  0  0.109101  0  1.024024  0  0  0.111125  0  1.024462  0  0  0.102474  0.10764  0  1.023803  0
H  H17  1  0.94974053  0.87999826  0.87723661  1  0  0.09705  0  0.964919  0  0  0.109058  0  1.024069  0  0  0.11108  0  1.02451  0  0  0.102451  0.107594  0  1.023851  0
H  H18  1  0.21469847  0.97326260  0.98526355  1  0  0.089951  0  0.963153  0  0  0.099322  0  1.028043  0  0  0.101986  0  1.027538  0  0  0.098922  0.097442  0  1.028438  0
H  H19  1  0.78529394  0.02674090  0.01472986  1  0  0.089904  0  0.963213  0  0  0.099301  0  1.028075  0  0  0.101962  0  1.027571  0  0  0.098939  0.097422  0  1.028468  0
H  H20  1  0.46774279  0.18504694  0.77562968  1  0  0.100847  0  0.945236  0  0  0.113445  0  1.013421  0  0  0.115004  0  1.011268  0  0  0.119984  0.112129  0  1.015213  0
H  H21  1  0.53225346  0.81495334  0.22436868  1  0  0.100809  0  0.945241  0  0  0.113403  0  1.013445  0  0  0.114941  0  1.011315  0  0  0.119973  0.11209  0  1.015236  0
H  H22  1  0.57908184  0.01962960  0.85572280  1  0  0.085788  0  0.949501  0  0  0.101091  0  1.01349  0  0  0.101504  0  1.014357  0  0  0.112957  0.100734  0  1.013011  0
H  H23  1  0.42091037  0.98036820  0.14428061  1  0  0.085785  0  0.949543  0  0  0.101094  0  1.013525  0  0  0.101508  0  1.01439  0  0  0.112955  0.100739  0  1.01305  0
H  H24  1  0.20871450  0.14109630  0.70645156  1  0  0.111649  0  0.97588  0  0  0.11531  0  1.044761  0  0  0.118601  0  1.041339  0  0  0.138956  0.112809  0  1.047324  0
H  H25  1  0.79128091  0.85889910  0.29355108  1  0  0.111653  0  0.975907  0  0  0.115337  0  1.044758  0  0  0.118629  0  1.041336  0  0  0.138955  0.112836  0  1.047322  0
H  H26  1  0.30363310  0.61417618  0.77248236  1  0  0.115921  0  0.988954  0  0  0.121785  0  1.054235  0  0  0.124896  0  1.052503  0  0  0.116512  0.119507  0  1.055569  0
H  H27  1  0.69637230  0.38582352  0.22751645  1  0  0.115957  0  0.988892  0  0  0.121827  0  1.054159  0  0  0.124938  0  1.052425  0  0  0.116554  0.119549  0  1.055494  0
H  H28  1  0.49660346  0.73632179  0.88184095  1  0  0.103069  0  0.996301  0  0  0.111643  0  1.061476  0  0  0.113744  0  1.061952  0  0  0.112659  0.110091  0  1.061307  0
H  H29  1  0.50340163  0.26368288  0.11815582  1  0  0.103063  0  0.996293  0  0  0.111615  0  1.061494  0  0  0.113734  0  1.06195  0  0  0.112644  0.110064  0  1.061322  0
H  H30  1  0.92667671  0.48752549  0.14662237  1  0  0.088945  0  0.936908  0  0  0.103859  0  1.001016  0  0  0.104118  0  1.00185  0  0  0.114033  0.10362  0  1.000513  0
H  H31  1  0.07332851  0.51245945  0.85338550  1  0  0.088827  0  0.936889  0  0  0.103722  0  1.001044  0  0  0.103989  0  1.001851  0  0  0.113975  0.103476  0  1.000557  0
H  H32  1  0.03787995  0.32491972  0.22698366  1  0  0.100803  0  0.945766  0  0  0.112861  0  1.014628  0  0  0.114253  0  1.012794  0  0  0.121013  0.111675  0  1.016181  0
H  H33  1  0.96214254  0.67506606  0.77301858  1  0  0.100856  0  0.945699  0  0  0.112899  0  1.014604  0  0  0.114288  0  1.012765  0  0  0.120995  0.111708  0  1.016159  0
H  H34  1  0.27899232  0.38003148  0.30769837  1  0  0.125476  0  0.943671  0  0  0.1309  0  1.008562  0  0  0.133788  0  1.005365  0  0  0.143646  0.128749  0  1.010859  0
H  H35  1  0.72102038  0.61997027  0.69230359  1  0  0.125462  0  0.943724  0  0  0.130937  0  1.008563  0  0  0.133826  0  1.005367  0  0  0.143636  0.128782  0  1.010863  0
H  H36  1  0.19140120  0.90213770  0.22406140  1  0  0.108337  0  0.998799  0  0  0.115031  0  1.064724  0  0  0.117717  0  1.06333  0  0  0.11369  0.113085  0  1.065783  0
H  H37  1  0.80858528  0.09786588  0.77593906  1  0  0.108377  0  0.998721  0  0  0.115048  0  1.06468  0  0  0.117734  0  1.063285  0  0  0.113693  0.1131  0  1.065741  0
H  H38  1  0.01665356  0.76720719  0.11099808  1  0  0.102702  0  0.993075  0  0  0.111372  0  1.057723  0  0  0.113499  0  1.058033  0  0  0.112343  0.109846  0  1.057626  0
H  H39  1  0.98334082  0.23278300  0.88900466  1  0  0.102686  0  0.993055  0  0  0.111351  0  1.057714  0  0  0.113477  0  1.058025  0  0  0.112336  0.109826  0  1.057616  0
C  C40  1  0.34594320  0.17242451  0.92218496  1  0  0.072816  0  3.742198  0  0  0.089563  0  3.984865  0  0  0.088832  0  4.009003  0  0  -0.011923  0.090013  0  3.968533  0
C  C41  1  0.65405106  0.82757820  0.07781331  1  0  0.072726  0  3.742219  0  0  0.089503  0  3.984857  0  0  0.088774  0  4.008986  0  0  -0.011951  0.089957  0  3.968529  0
C  C42  1  0.36610112  0.33105829  0.93209609  1  0  -0.11369  0  3.739451  0  0  -0.130854  0  3.98513  0  0  -0.133057  0  4.005869  0  0  -0.089114  -0.129321  0  3.971133  0
C  C43  1  0.63389476  0.66894325  0.06790214  1  0  -0.113622  0  3.739348  0  0  -0.130785  0  3.985018  0  0  -0.132983  0  4.005749  0  0  -0.089098  -0.129253  0  3.971025  0
C  C44  1  0.27439565  0.41270392  0.00979940  1  0  -0.1284  0  3.773762  0  0  -0.147031  0  4.021917  0  0  -0.149295  0  4.04243  0  0  -0.095871  -0.145432  0  4.008023  0
C  C45  1  0.72560494  0.58729935  0.99020020  1  0  -0.128454  0  3.773779  0  0  -0.14708  0  4.021946  0  0  -0.149341  0  4.042455  0  0  -0.09587  -0.145483  0  4.008051  0
C  C46  1  0.16036009  0.33725020  0.07935466  1  0  0.073291  0  3.745315  0  0  0.089725  0  3.987662  0  0  0.08911  0  4.011654  0  0  -0.011409  0.09009  0  3.971412  0
C  C47  1  0.83963993  0.66275038  0.92064394  1  0  0.073293  0  3.745453  0  0  0.089753  0  3.987774  0  0  0.089136  0  4.011758  0  0  -0.011384  0.090119  0  3.97152  0
C  C48  1  0.13924647  0.17919362  0.06887841  1  0  -0.119819  0  3.747943  0  0  -0.135831  0  3.992216  0  0  -0.138355  0  4.013208  0  0  -0.091869  -0.134081  0  3.978038  0
C  C49  1  0.86074719  0.82080635  0.93111816  1  0  -0.119817  0  3.747903  0  0  -0.135838  0  3.992185  0  0  -0.138362  0  4.013177  0  0  -0.09187  -0.134087  0  3.978005  0
C  C50  1  0.23134048  0.09729837  0.99141269  1  0  -0.127034  0  3.775867  0  0  -0.145774  0  4.023386  0  0  -0.147929  0  4.043829  0  0  -0.096226  -0.144242  0  4.009523  0
C  C51  1  0.76864914  0.90270632  0.00858230  1  0  -0.126911  0  3.775688  0  0  -0.145685  0  4.023216  0  0  -0.147839  0  4.043663  0  0  -0.09621  -0.144153  0  4.00935  0
C  C52  1  0.45005809  0.08860147  0.83772214  1  0  -0.046464  0  3.649293  0  0  -0.112178  0  3.889723  0  0  -0.108109  0  3.900394  0  0  -0.046075  -0.11479  0  3.882592  0
C  C53  1  0.54993786  0.91140017  0.16227749  1  0  -0.046393  0  3.649195  0  0  -0.112123  0  3.889621  0  0  -0.10804  0  3.900296  0  0  -0.046109  -0.11475  0  3.882509  0
C  C54  1  0.25458104  0.01387184  0.74129144  1  0  0.184965  0  3.611452  0  0  0.122298  0  3.87974  0  0  0.136616  0  3.891079  0  0  0.151453  0.113102  0  3.871819  0
C  C55  1  0.74541733  0.98612624  0.25870981  1  0  0.184984  0  3.611403  0  0  0.122286  0  3.879705  0  0  0.136603  0  3.891049  0  0  0.151433  0.113093  0  3.871778  0
C  C56  1  0.30589370  0.74118136  0.78021623  1  0  -0.003563  0  3.749712  0  0  -0.039355  0  4.021507  0  0  -0.0375  0  4.040805  0  0  -0.005315  -0.040547  0  4.008516  0
C  C57  1  0.69410598  0.25881691  0.21978626  1  0  -0.003627  0  3.749756  0  0  -0.039424  0  4.021557  0  0  -0.03757  0  4.040859  0  0  -0.005358  -0.040617  0  4.008567  0
C  C58  1  0.40389906  0.79925260  0.83204671  1  0  -0.077535  0  3.685673  0  0  -0.116374  0  3.945015  0  0  -0.115318  0  3.963713  0  0  -0.006862  -0.117032  0  3.932521  0
C  C59  1  0.59609897  0.20074679  0.16795512  1  0  -0.077476  0  3.685728  0  0  -0.116299  0  3.945074  0  0  -0.115259  0  3.963759  0  0  -0.006842  -0.116955  0  3.932577  0
C  C60  1  0.05654272  0.41989426  0.16435298  1  0  -0.044893  0  3.646512  0  0  -0.109419  0  3.887684  0  0  -0.104986  0  3.89805  0  0  -0.044906  -0.112244  0  3.880671  0
C  C61  1  0.94346792  0.58009707  0.83564917  1  0  -0.044791  0  3.646346  0  0  -0.10935  0  3.88757  0  0  -0.104899  0  3.89791  0  0  -0.044847  -0.112168  0  3.880547  0
C  C62  1  0.23830364  0.50351983  0.26705683  1  0  0.20125  0  3.574811  0  0  0.137643  0  3.843299  0  0  0.152758  0  3.854013  0  0  0.159306  0.127869  0  3.835834  0
C  C63  1  0.76170597  0.49647903  0.73294374  1  0  0.201156  0  3.574834  0  0  0.137424  0  3.843376  0  0  0.152535  0  3.85409  0  0  0.159173  0.127659  0  3.835906  0
C  C64  1  0.18975823  0.77389604  0.21993559  1  0  -0.004539  0  3.775086  0  0  -0.042181  0  4.049467  0  0  -0.04026  0  4.069338  0  0  -0.006862  -0.043397  0  4.036035  0
C  C65  1  0.81023657  0.22610569  0.78006630  1  0  -0.004517  0  3.775004  0  0  -0.042153  0  4.04938  0  0  -0.040234  0  4.069254  0  0  -0.006835  -0.043373  0  4.035954  0
C  C66  1  0.10201221  0.70940842  0.16547259  1  0  -0.087082  0  3.707188  0  0  -0.124827  0  3.967944  0  0  -0.124038  0  3.986929  0  0  -0.009137  -0.125318  0  3.955195  0
C  C67  1  0.89798775  0.29058483  0.83453124  1  0  -0.087037  0  3.707173  0  0  -0.124805  0  3.967952  0  0  -0.124019  0  3.986938  0  0  -0.009202  -0.125291  0  3.955202  0
N  N68  1  0.37025086  0.97133877  0.80615596  1  0  -0.049435  0  3.579899  0  0  0.045282  0  3.795141  0  0  0.030894  0  3.820535  0  0  -0.242325  0.054804  0  3.777795  0
N  N69  1  0.62974484  0.02866434  0.19384635  1  0  -0.049498  0  3.579842  0  0  0.045218  0  3.795104  0  0  0.03083  0  3.820496  0  0  -0.242289  0.054745  0  3.777759  0
N  N70  1  0.21218874  0.87661816  0.72492889  1  0  -0.407435  0  3.309554  0  0  -0.329252  0  3.614603  0  0  -0.349573  0  3.626076  0  0  -0.363167  -0.315495  0  3.606585  0
N  N71  1  0.78780842  0.12337990  0.27507320  1  0  -0.407447  0  3.309553  0  0  -0.329257  0  3.614594  0  0  -0.349576  0  3.626063  0  0  -0.363165  -0.3155  0  3.606578  0
N  N72  1  0.13393492  0.53868784  0.19623313  1  0  -0.051454  0  3.573461  0  0  0.042369  0  3.790099  0  0  0.027685  0  3.815436  0  0  -0.241135  0.052069  0  3.772815  0
N  N73  1  0.86607369  0.46130585  0.80376824  1  0  -0.051436  0  3.573506  0  0  0.04249  0  3.790087  0  0  0.027803  0  3.815417  0  0  -0.240963  0.052182  0  3.772803  0
N  N74  1  0.27534902  0.64433342  0.28203961  1  0  -0.39637  0  3.287392  0  0  -0.317694  0  3.591535  0  0  -0.338143  0  3.602756  0  0  -0.357243  -0.303857  0  3.583682  0
N  N75  1  0.72465123  0.35567114  0.71796057  1  0  -0.39637  0  3.287268  0  0  -0.317616  0  3.591384  0  0  -0.338066  0  3.60261  0  0  -0.357207  -0.303783  0  3.58353  0
O  O76  1  0.90119220  0.65302837  0.39406605  1  0  -0.767593  0  1.989998  0  0  -0.687864  0  2.210591  0  0  -0.710635  0  2.186652  0  0  -0.390169  -0.672009  0  2.227152  0
O  O77  1  0.09880505  0.34697707  0.60593152  1  0  -0.767581  0  1.989964  0  0  -0.687892  0  2.210561  0  0  -0.710647  0  2.186616  0  0  -0.390196  -0.672032  0  2.227115  0
O  O78  1  0.65700154  0.56808524  0.33445967  1  0  -0.930488  0  1.926887  0  0  -0.839217  0  2.218424  0  0  -0.867218  0  2.191586  0  0  -0.402496  -0.819262  0  2.23637  0
O  O79  1  0.34300053  0.43191664  0.66553711  1  0  -0.930386  0  1.926893  0  0  -0.839102  0  2.218389  0  0  -0.867108  0  2.191563  0  0  -0.402471  -0.819146  0  2.236332  0
O  O80  1  0.91340561  0.35175505  0.39830139  1  0  -0.91298  0  2.012244  0  0  -0.814548  0  2.31809  0  0  -0.842988  0  2.288248  0  0  -0.389774  -0.794383  0  2.338125  0
O  O81  1  0.08659491  0.64824810  0.60169682  1  0  -0.912983  0  2.012308  0  0  -0.814536  0  2.318134  0  0  -0.842978  0  2.288296  0  0  -0.389767  -0.794373  0  2.33817  0
O  O82  1  0.68138906  0.52444108  0.51429151  1  0  -0.927604  0  2.044304  0  0  -0.82799  0  2.343726  0  0  -0.85648  0  2.314728  0  0  -0.387711  -0.807833  0  2.363178  0
O  O83  1  0.31861012  0.47556183  0.48570475  1  0  -0.927553  0  2.044222  0  0  -0.827959  0  2.343659  0  0  -0.856444  0  2.31466  0  0  -0.387697  -0.807806  0  2.363116  0
O  O84  1  0.18154539  0.04505332  0.34449492  1  0  -0.888922  0  1.914961  0  0  -0.794648  0  2.199283  0  0  -0.82216  0  2.173302  0  0  -0.385293  -0.775184  0  2.216643  0
O  O85  1  0.81845183  0.95494846  0.65550526  1  0  -0.889068  0  1.914955  0  0  -0.794777  0  2.199251  0  0  -0.822291  0  2.173276  0  0  -0.385301  -0.775296  0  2.216573  0
O  O86  1  0.40035375  0.15769252  0.40499379  1  0  -0.752692  0  2.000938  0  0  -0.675095  0  2.229341  0  0  -0.697681  0  2.206465  0  0  -0.381406  -0.659444  0  2.243617  0
O  O87  1  0.59964522  0.84231191  0.59500584  1  0  -0.752826  0  2.000821  0  0  -0.675286  0  2.229237  0  0  -0.697855  0  2.206368  0  0  -0.381566  -0.659637  0  2.243515  0
O  O88  1  0.40592544  0.84645944  0.44663368  1  0  -0.924852  0  2.022428  0  0  -0.826174  0  2.31935  0  0  -0.853847  0  2.288604  0  0  -0.376358  -0.806697  0  2.339949  0
O  O89  1  0.59407067  0.15354608  0.55336614  1  0  -0.924934  0  2.022204  0  0  -0.826279  0  2.319139  0  0  -0.853938  0  2.28838  0  0  -0.376388  -0.806805  0  2.339743  0
O  O90  1  0.15971644  0.05848742  0.52522464  1  0  -0.929532  0  2.033205  0  0  -0.825713  0  2.31929  0  0  -0.854502  0  2.291234  0  0  -0.374048  -0.805466  0  2.338197  0
O  O91  1  0.84028309  0.94151970  0.47477600  1  0  -0.929659  0  2.033124  0  0  -0.825885  0  2.319245  0  0  -0.854699  0  2.291221  0  0  -0.374119  -0.805631  0  2.338148  0
