# generated using pymatgen
data_CuH2C2N3
_symmetry_space_group_name_H-M   'P 1'
_cell_length_a   4.86296964
_cell_length_b   4.94766318
_cell_length_c   14.64259471
_cell_angle_alpha   90.00009639
_cell_angle_beta   90.00002591
_cell_angle_gamma   108.46994679
_symmetry_Int_Tables_number   1
_chemical_formula_structural   CuH2C2N3
_chemical_formula_sum   'Cu4 H8 C8 N12'
_cell_volume   334.15846294
_cell_formula_units_Z   4
loop_
 _symmetry_equiv_pos_site_id
 _symmetry_equiv_pos_as_xyz
  1  'x, y, z'
loop_
 _atom_site_type_symbol
 _atom_site_label
 _atom_site_symmetry_multiplicity
 _atom_site_fract_x
 _atom_site_fract_y
 _atom_site_fract_z
 _atom_site_occupancy
 _atom_site_hle17_bader_spin_density
 _atom_site_hle17_ddec_charge
 _atom_site_hle17_ddec_spin_density
 _atom_site_hle17_ddec_sum_bond_order
 _atom_site_hle17_magmom
 _atom_site_hse06_10hf_bader_spin_density
 _atom_site_hse06_10hf_ddec_charge
 _atom_site_hse06_10hf_ddec_spin_density
 _atom_site_hse06_10hf_ddec_sum_bond_order
 _atom_site_hse06_10hf_magmom
 _atom_site_hse06_bader_spin_density
 _atom_site_hse06_ddec_charge
 _atom_site_hse06_ddec_spin_density
 _atom_site_hse06_ddec_sum_bond_order
 _atom_site_hse06_magmom
 _atom_site_pbe_bader_spin_density
 _atom_site_pbe_cm5_charge
 _atom_site_pbe_ddec_charge
 _atom_site_pbe_ddec_spin_density
 _atom_site_pbe_ddec_sum_bond_order
 _atom_site_pbe_magmom
Cu  Cu0  1  0.83779752  0.16347335  0.45061218  1  0  0.35119  0  1.949403  0  0  0.207144  0  2.451744  0  0  0.21626  0  2.399551  0  0  0.532796  0.203755  0  2.486372  0
Cu  Cu1  1  0.16219140  0.33653683  0.95061851  1  0  0.351152  0  1.94886  0  0  0.207118  0  2.45124  0  0  0.216283  0  2.399041  0  0  0.532534  0.203733  0  2.485902  0
Cu  Cu2  1  0.16219269  0.83653125  0.54938102  1  0  0.35117  0  1.948788  0  0  0.207146  0  2.451161  0  0  0.216329  0  2.398983  0  0  0.532534  0.203754  0  2.485822  0
Cu  Cu3  1  0.83780088  0.66347416  0.04938699  1  0  0.351218  0  1.949404  0  0  0.20719  0  2.451762  0  0  0.21631  0  2.399574  0  0  0.532803  0.203802  0  2.486396  0
H  H4  1  0.17132257  0.33074187  0.69608848  1  0  0.107059  0  0.943916  0  0  0.120883  0  0.998964  0  0  0.123  0  0.998093  0  0  0.119743  0.119291  0  0.999847  0
H  H5  1  0.82869085  0.16926246  0.19608626  1  0  0.106997  0  0.943902  0  0  0.120821  0  0.998963  0  0  0.122938  0  0.998095  0  0  0.119712  0.119221  0  0.999832  0
H  H6  1  0.82868956  0.66926055  0.30391360  1  0  0.107  0  0.943885  0  0  0.120824  0  0.998949  0  0  0.122941  0  0.99808  0  0  0.119723  0.119225  0  0.99982  0
H  H7  1  0.17132335  0.83074635  0.80391378  1  0  0.107061  0  0.943915  0  0  0.120886  0  0.998963  0  0  0.123003  0  0.998093  0  0  0.119751  0.119294  0  0.999845  0
H  H8  1  0.66077789  0.81697285  0.69520084  1  0  0.101051  0  0.979154  0  0  0.111806  0  1.040262  0  0  0.113286  0  1.040787  0  0  0.112891  0.110709  0  1.040119  0
H  H9  1  0.33920997  0.68302065  0.19520469  1  0  0.101052  0  0.979137  0  0  0.111812  0  1.040245  0  0  0.113295  0  1.040764  0  0  0.112885  0.110708  0  1.040089  0
H  H10  1  0.33921023  0.18301895  0.30479373  1  0  0.101056  0  0.979279  0  0  0.111842  0  1.040342  0  0  0.113324  0  1.040862  0  0  0.11291  0.110738  0  1.040188  0
H  H11  1  0.66077953  0.31697542  0.80480081  1  0  0.101065  0  0.979146  0  0  0.111803  0  1.040276  0  0  0.11328  0  1.0408  0  0  0.112904  0.110706  0  1.040132  0
C  C12  1  0.36920923  0.38095733  0.65652654  1  0  -0.025844  0  3.763252  0  0  -0.056454  0  4.026474  0  0  -0.055498  0  4.042657  0  0  0.000234  -0.057279  0  4.01616  0
C  C13  1  0.63081923  0.11908725  0.15651469  1  0  -0.025754  0  3.763011  0  0  -0.056363  0  4.026242  0  0  -0.055409  0  4.042418  0  0  0.000315  -0.057184  0  4.015889  0
C  C14  1  0.63081532  0.61908345  0.34348579  1  0  -0.025788  0  3.763031  0  0  -0.056406  0  4.026276  0  0  -0.055449  0  4.042447  0  0  0.000278  -0.057227  0  4.015928  0
C  C15  1  0.36920877  0.88095778  0.84347442  1  0  -0.025815  0  3.763209  0  0  -0.05643  0  4.026435  0  0  -0.055473  0  4.04261  0  0  0.000235  -0.057254  0  4.016119  0
C  C16  1  0.61233085  0.62151298  0.65631013  1  0  -0.041024  0  3.776458  0  0  -0.072757  0  4.040208  0  0  -0.071674  0  4.056456  0  0  -0.007285  -0.073681  0  4.029832  0
C  C17  1  0.38761437  0.87846971  0.15630249  1  0  -0.041084  0  3.776174  0  0  -0.072849  0  4.039927  0  0  -0.071765  0  4.056166  0  0  -0.007187  -0.073765  0  4.029513  0
C  C18  1  0.38762366  0.37846397  0.34369605  1  0  -0.041063  0  3.776224  0  0  -0.07284  0  4.039943  0  0  -0.071756  0  4.056179  0  0  -0.007194  -0.073757  0  4.029533  0
C  C19  1  0.61233330  0.12151151  0.84369071  1  0  -0.040995  0  3.776457  0  0  -0.072727  0  4.04022  0  0  -0.07164  0  4.05646  0  0  -0.007271  -0.073651  0  4.029842  0
N  N20  1  0.67840027  0.31837093  0.55711656  1  0  -0.071986  0  3.210964  0  0  -0.021382  0  3.516073  0  0  -0.022981  0  3.521362  0  0  -0.175327  -0.021248  0  3.513439  0
N  N21  1  0.32160991  0.18161765  0.05712520  1  0  -0.072649  0  3.209962  0  0  -0.022228  0  3.51536  0  0  -0.023864  0  3.520659  0  0  -0.175553  -0.022098  0  3.512743  0
N  N22  1  0.32160633  0.68161444  0.44287391  1  0  -0.072751  0  3.209986  0  0  -0.02238  0  3.515455  0  0  -0.024017  0  3.520764  0  0  -0.17561  -0.022248  0  3.512834  0
N  N23  1  0.67840288  0.81837411  0.94288372  1  0  -0.071984  0  3.210917  0  0  -0.021401  0  3.516058  0  0  -0.023006  0  3.521348  0  0  -0.175315  -0.02127  0  3.513428  0
N  N24  1  0.80026030  0.57771696  0.59416336  1  0  -0.209795  0  3.393794  0  0  -0.144164  0  3.708307  0  0  -0.150726  0  3.713635  0  0  -0.291463  -0.140333  0  3.705266  0
N  N25  1  0.19967429  0.92220781  0.09416870  1  0  -0.209507  0  3.393957  0  0  -0.143796  0  3.708467  0  0  -0.150323  0  3.713761  0  0  -0.291551  -0.139981  0  3.705404  0
N  N26  1  0.19967284  0.42220672  0.40582916  1  0  -0.209426  0  3.393893  0  0  -0.1437  0  3.708403  0  0  -0.15023  0  3.713693  0  0  -0.291527  -0.139886  0  3.70534  0
N  N27  1  0.80026297  0.07772226  0.90583749  1  0  -0.20985  0  3.393817  0  0  -0.144196  0  3.70832  0  0  -0.150748  0  3.713626  0  0  -0.291493  -0.140364  0  3.705279  0
N  N28  1  0.41504949  0.19630464  0.59461396  1  0  -0.210618  0  3.382679  0  0  -0.145005  0  3.697092  0  0  -0.151649  0  3.702505  0  0  -0.291351  -0.141124  0  3.693992  0
N  N29  1  0.58502948  0.30375013  0.09461792  1  0  -0.210256  0  3.382513  0  0  -0.144609  0  3.696944  0  0  -0.151215  0  3.70232  0  0  -0.291387  -0.140744  0  3.693821  0
N  N30  1  0.58502784  0.80374669  0.40538198  1  0  -0.210235  0  3.382431  0  0  -0.144557  0  3.69684  0  0  -0.151159  0  3.70221  0  0  -0.291359  -0.140693  0  3.693717  0
N  N31  1  0.41504854  0.69630334  0.90538621  1  0  -0.210645  0  3.382638  0  0  -0.145032  0  3.697063  0  0  -0.151667  0  3.702454  0  0  -0.291375  -0.14115  0  3.693965  0
