# generated using pymatgen
data_CdH9C10N5O2
_symmetry_space_group_name_H-M   'P 1'
_cell_length_a   9.96207230
_cell_length_b   10.74988154
_cell_length_c   10.89532484
_cell_angle_alpha   89.99966879
_cell_angle_beta   90.00068382
_cell_angle_gamma   90.00024094
_symmetry_Int_Tables_number   1
_chemical_formula_structural   CdH9C10N5O2
_chemical_formula_sum   'Cd4 H36 C40 N20 O8'
_cell_volume   1166.79228942
_cell_formula_units_Z   4
loop_
 _symmetry_equiv_pos_site_id
 _symmetry_equiv_pos_as_xyz
  1  'x, y, z'
loop_
 _atom_site_type_symbol
 _atom_site_label
 _atom_site_symmetry_multiplicity
 _atom_site_fract_x
 _atom_site_fract_y
 _atom_site_fract_z
 _atom_site_occupancy
 _atom_site_hle17_bader_spin_density
 _atom_site_hle17_ddec_charge
 _atom_site_hle17_ddec_spin_density
 _atom_site_hle17_ddec_sum_bond_order
 _atom_site_hle17_magmom
 _atom_site_hse06_10hf_bader_spin_density
 _atom_site_hse06_10hf_ddec_charge
 _atom_site_hse06_10hf_ddec_spin_density
 _atom_site_hse06_10hf_ddec_sum_bond_order
 _atom_site_hse06_10hf_magmom
 _atom_site_hse06_bader_spin_density
 _atom_site_hse06_ddec_charge
 _atom_site_hse06_ddec_spin_density
 _atom_site_hse06_ddec_sum_bond_order
 _atom_site_hse06_magmom
 _atom_site_pbe_bader_spin_density
 _atom_site_pbe_cm5_charge
 _atom_site_pbe_ddec_charge
 _atom_site_pbe_ddec_spin_density
 _atom_site_pbe_ddec_sum_bond_order
 _atom_site_pbe_magmom
Cd  Cd0  1  0.94913091  0.23799678  0.08132930  1  0  1.091207  0  1.689055  0  0  0.887811  0  2.145218  0  0  0.941994  0  2.097191  0  0  0.798291  0.850165  0  2.17747  0
Cd  Cd1  1  0.55086883  0.76200777  0.58133458  1  0  1.0912  0  1.68915  0  0  0.887807  0  2.145333  0  0  0.941992  0  2.097303  0  0  0.798288  0.850166  0  2.17759  0
Cd  Cd2  1  0.05086833  0.73799119  0.41866948  1  0  1.091185  0  1.689125  0  0  0.88777  0  2.145309  0  0  0.941957  0  2.097274  0  0  0.798297  0.850127  0  2.177565  0
Cd  Cd3  1  0.44912700  0.26200572  0.91867188  1  0  1.091193  0  1.689127  0  0  0.887782  0  2.145335  0  0  0.941967  0  2.097303  0  0  0.798273  0.850136  0  2.17759  0
H  H4  1  0.92141368  0.07579350  0.89240226  1  0  0.293839  0  0.887139  0  0  0.290143  0  0.932799  0  0  0.294817  0  0.931025  0  0  0.301185  0.286887  0  0.933943  0
H  H5  1  0.57858208  0.92420458  0.39239726  1  0  0.293849  0  0.887151  0  0  0.290153  0  0.932817  0  0  0.294828  0  0.93104  0  0  0.301172  0.286897  0  0.933961  0
H  H6  1  0.07858029  0.57579542  0.60760251  1  0  0.293836  0  0.887166  0  0  0.290138  0  0.932829  0  0  0.294813  0  0.931053  0  0  0.30118  0.286881  0  0.933971  0
H  H7  1  0.42141901  0.42420518  0.10759953  1  0  0.29384  0  0.887127  0  0  0.290149  0  0.932788  0  0  0.294824  0  0.931013  0  0  0.301157  0.286892  0  0.933933  0
H  H8  1  0.82168738  0.18684769  0.84523438  1  0  0.302086  0  0.933568  0  0  0.279666  0  1.012711  0  0  0.286777  0  1.007447  0  0  0.287493  0.274785  0  1.016257  0
H  H9  1  0.67830977  0.81314973  0.34523753  1  0  0.301983  0  0.9338  0  0  0.279592  0  1.012893  0  0  0.286702  0  1.00763  0  0  0.287448  0.27471  0  1.016438  0
H  H10  1  0.17831010  0.68685065  0.65476700  1  0  0.301979  0  0.933783  0  0  0.2796  0  1.012882  0  0  0.286711  0  1.007619  0  0  0.287465  0.274718  0  1.016428  0
H  H11  1  0.32169182  0.31314781  0.15476541  1  0  0.301861  0  0.933836  0  0  0.279489  0  1.012922  0  0  0.286599  0  1.007661  0  0  0.2874  0.274607  0  1.016466  0
H  H12  1  0.03166213  0.15968530  0.72012051  1  0  0.061684  0  0.912285  0  0  0.077248  0  0.967521  0  0  0.077802  0  0.968087  0  0  0.111175  0.076564  0  0.967786  0
H  H13  1  0.46833162  0.84031278  0.22012393  1  0  0.061674  0  0.912249  0  0  0.077245  0  0.967482  0  0  0.077787  0  0.968059  0  0  0.111174  0.076561  0  0.967743  0
H  H14  1  0.96833524  0.65968686  0.77987919  1  0  0.061718  0  0.912302  0  0  0.077287  0  0.967512  0  0  0.077841  0  0.968077  0  0  0.111196  0.076601  0  0.967774  0
H  H15  1  0.53167009  0.34031187  0.27987427  1  0  0.061688  0  0.912235  0  0  0.077262  0  0.967473  0  0  0.077822  0  0.968029  0  0  0.111167  0.076577  0  0.967737  0
H  H16  1  0.99145984  0.40803462  0.85278103  1  0  0.077433  0  0.94116  0  0  0.094003  0  1.008225  0  0  0.095343  0  1.006793  0  0  0.094835  0.092962  0  1.009451  0
H  H17  1  0.50853941  0.59196183  0.35278084  1  0  0.077395  0  0.941182  0  0  0.093972  0  1.008229  0  0  0.095312  0  1.006799  0  0  0.094817  0.092936  0  1.009456  0
H  H18  1  0.00853765  0.90803604  0.64721633  1  0  0.07742  0  0.941151  0  0  0.09396  0  1.008236  0  0  0.095299  0  1.006804  0  0  0.094828  0.092926  0  1.009466  0
H  H19  1  0.49146317  0.09195967  0.14722153  1  0  0.077415  0  0.941147  0  0  0.093982  0  1.0082  0  0  0.095321  0  1.006769  0  0  0.094809  0.092941  0  1.009425  0
H  H20  1  0.09038837  0.38343486  0.71990083  1  0  0.09807  0  0.927657  0  0  0.112648  0  0.989233  0  0  0.114661  0  0.987994  0  0  0.102042  0.111196  0  0.990162  0
H  H21  1  0.40961139  0.61656508  0.21990121  1  0  0.098071  0  0.92764  0  0  0.112625  0  0.989245  0  0  0.114635  0  0.988009  0  0  0.102041  0.111175  0  0.990176  0
H  H22  1  0.90960901  0.88343247  0.78009483  1  0  0.098063  0  0.92769  0  0  0.11264  0  0.989255  0  0  0.114652  0  0.988016  0  0  0.102069  0.111192  0  0.990187  0
H  H23  1  0.59039231  0.11656812  0.28010193  1  0  0.098042  0  0.927643  0  0  0.112615  0  0.989209  0  0  0.114625  0  0.987975  0  0  0.102059  0.111161  0  0.990139  0
H  H24  1  0.75108814  0.43549962  0.83792648  1  0  0.104262  0  0.969303  0  0  0.113705  0  1.036889  0  0  0.116385  0  1.036294  0  0  0.101234  0.111659  0  1.037747  0
H  H25  1  0.74891494  0.56450622  0.33792448  1  0  0.104162  0  0.969311  0  0  0.11364  0  1.036905  0  0  0.11632  0  1.03631  0  0  0.101176  0.111592  0  1.037762  0
H  H26  1  0.24891952  0.93549723  0.66207899  1  0  0.104175  0  0.969283  0  0  0.11361  0  1.03693  0  0  0.116287  0  1.036337  0  0  0.101189  0.111563  0  1.037789  0
H  H27  1  0.25108250  0.06450305  0.16208355  1  0  0.104087  0  0.969416  0  0  0.113575  0  1.037014  0  0  0.116254  0  1.036419  0  0  0.101145  0.111527  0  1.037871  0
H  H28  1  0.77263273  0.33757058  0.39180250  1  0  0.105084  0  0.980337  0  0  0.113009  0  1.042352  0  0  0.117148  0  1.039661  0  0  0.098402  0.109866  0  1.044678  0
H  H29  1  0.72735900  0.66242750  0.89180202  1  0  0.105083  0  0.980279  0  0  0.112999  0  1.042319  0  0  0.117137  0  1.03963  0  0  0.098399  0.109897  0  1.0446  0
H  H30  1  0.22735190  0.83756842  0.10820030  1  0  0.105077  0  0.980366  0  0  0.112979  0  1.042409  0  0  0.117118  0  1.039718  0  0  0.09839  0.10986  0  1.044708  0
H  H31  1  0.27265042  0.16243031  0.60820409  1  0  0.105098  0  0.980365  0  0  0.112994  0  1.042409  0  0  0.117134  0  1.039716  0  0  0.0984  0.109893  0  1.044691  0
H  H32  1  0.56210604  0.42349643  0.48356707  1  0  0.081975  0  0.966118  0  0  0.09148  0  1.033566  0  0  0.094433  0  1.031779  0  0  0.097243  0.089174  0  1.035341  0
H  H33  1  0.93789191  0.57650576  0.98356662  1  0  0.082005  0  0.966124  0  0  0.091509  0  1.033579  0  0  0.094462  0  1.031792  0  0  0.097269  0.089203  0  1.035353  0
H  H34  1  0.43788702  0.92348353  0.01643157  1  0  0.082028  0  0.966146  0  0  0.091532  0  1.033597  0  0  0.094489  0  1.031802  0  0  0.097275  0.089226  0  1.03537  0
H  H35  1  0.06211712  0.07651573  0.51643355  1  0  0.081976  0  0.966095  0  0  0.091492  0  1.033524  0  0  0.094446  0  1.031734  0  0  0.09727  0.089188  0  1.0353  0
H  H36  1  0.97495889  0.31009029  0.52236335  1  0  0.093016  0  0.950277  0  0  0.103927  0  1.011927  0  0  0.106516  0  1.011476  0  0  0.098825  0.102043  0  1.012244  0
H  H37  1  0.52503505  0.68990809  0.02236094  1  0  0.092997  0  0.950432  0  0  0.103931  0  1.012046  0  0  0.106517  0  1.011595  0  0  0.098827  0.102047  0  1.012363  0
H  H38  1  0.02502812  0.81009449  0.97763182  1  0  0.093064  0  0.950366  0  0  0.103956  0  1.012032  0  0  0.106544  0  1.011581  0  0  0.098848  0.102071  0  1.01235  0
H  H39  1  0.47497400  0.18990952  0.47763995  1  0  0.093059  0  0.95042  0  0  0.103942  0  1.012087  0  0  0.106535  0  1.011634  0  0  0.098825  0.102059  0  1.012408  0
C  C40  1  0.15922303  0.21038055  0.87102340  1  0  0.62946  0  3.888785  0  0  0.580404  0  4.18696  0  0  0.613364  0  4.183181  0  0  0.199651  0.558151  0  4.188424  0
C  C41  1  0.34077669  0.78961851  0.37102021  1  0  0.629386  0  3.888996  0  0  0.580458  0  4.186947  0  0  0.613418  0  4.183165  0  0  0.199656  0.558207  0  4.18841  0
C  C42  1  0.84077457  0.71037878  0.62897784  1  0  0.629344  0  3.888887  0  0  0.580336  0  4.186975  0  0  0.613296  0  4.183196  0  0  0.199627  0.558086  0  4.188435  0
C  C43  1  0.65922579  0.28961618  0.12897920  1  0  0.629438  0  3.88905  0  0  0.580518  0  4.186989  0  0  0.613475  0  4.183212  0  0  0.199668  0.558266  0  4.188453  0
C  C44  1  0.02348378  0.21572286  0.80443353  1  0  0.073929  0  3.624918  0  0  0.057504  0  3.864567  0  0  0.056843  0  3.878659  0  0  4.3e-05  0.057977  0  3.855015  0
C  C45  1  0.47651407  0.78427472  0.30443644  1  0  0.07398  0  3.62495  0  0  0.057522  0  3.86457  0  0  0.05687  0  3.878656  0  0  8.9e-05  0.058  0  3.855011  0
C  C46  1  0.97651484  0.71572309  0.69556585  1  0  0.073871  0  3.625061  0  0  0.05746  0  3.864629  0  0  0.056797  0  3.878722  0  0  2.9e-05  0.057937  0  3.855073  0
C  C47  1  0.52348738  0.28427241  0.19556391  1  0  0.07394  0  3.62499  0  0  0.057428  0  3.86467  0  0  0.05677  0  3.878751  0  0  0.000102  0.0579  0  3.855112  0
C  C48  1  0.99931095  0.35256078  0.76804856  1  0  -0.193449  0  3.692071  0  0  -0.242345  0  3.93949  0  0  -0.243451  0  3.951954  0  0  -0.154933  -0.241448  0  3.930819  0
C  C49  1  0.50068921  0.64743988  0.26804888  1  0  -0.193296  0  3.691951  0  0  -0.242217  0  3.939431  0  0  -0.243323  0  3.95189  0  0  -0.154873  -0.241334  0  3.93078  0
C  C50  1  0.00068730  0.85256075  0.73194912  1  0  -0.193332  0  3.691975  0  0  -0.24221  0  3.939369  0  0  -0.243315  0  3.951832  0  0  -0.154892  -0.241332  0  3.930723  0
C  C51  1  0.49931362  0.14744005  0.23195225  1  0  -0.19328  0  3.691943  0  0  -0.242148  0  3.939353  0  0  -0.243254  0  3.951816  0  0  -0.154876  -0.241247  0  3.930672  0
C  C52  1  0.75710728  0.41522713  0.74006349  1  0  -0.136581  0  3.683962  0  0  -0.168512  0  3.931601  0  0  -0.170819  0  3.951595  0  0  -0.087576  -0.167036  0  3.918504  0
C  C53  1  0.74289251  0.58477834  0.24006223  1  0  -0.136377  0  3.683843  0  0  -0.16837  0  3.931455  0  0  -0.170677  0  3.95145  0  0  -0.087524  -0.166893  0  3.918354  0
C  C54  1  0.24289225  0.91521578  0.75993842  1  0  -0.136355  0  3.684028  0  0  -0.168334  0  3.931629  0  0  -0.170638  0  3.951625  0  0  -0.087499  -0.166859  0  3.918534  0
C  C55  1  0.25710904  0.08478300  0.25994109  1  0  -0.136312  0  3.684083  0  0  -0.168349  0  3.931687  0  0  -0.170653  0  3.951683  0  0  -0.087514  -0.166873  0  3.918585  0
C  C56  1  0.64457002  0.43627295  0.66576214  1  0  0.005575  0  3.821996  0  0  0.026453  0  4.060267  0  0  0.024988  0  4.082218  0  0  -0.007535  0.027397  0  4.045152  0
C  C57  1  0.85542880  0.56372459  0.16576131  1  0  0.005433  0  3.822153  0  0  0.026332  0  4.060398  0  0  0.024866  0  4.08235  0  0  -0.007555  0.027279  0  4.045279  0
C  C58  1  0.35543162  0.93626531  0.83423965  1  0  0.005279  0  3.822279  0  0  0.026244  0  4.060461  0  0  0.024779  0  4.082411  0  0  -0.007596  0.027189  0  4.045346  0
C  C59  1  0.14457164  0.06373582  0.33424213  1  0  0.005314  0  3.822198  0  0  0.026296  0  4.060373  0  0  0.02483  0  4.082324  0  0  -0.007585  0.027243  0  4.045258  0
C  C60  1  0.87690321  0.37136192  0.68909929  1  0  0.090702  0  3.759558  0  0  0.114244  0  3.998853  0  0  0.113716  0  4.024021  0  0  -0.016366  0.11471  0  3.981669  0
C  C61  1  0.62309492  0.62864851  0.18909739  1  0  0.090565  0  3.759648  0  0  0.114139  0  3.998927  0  0  0.11361  0  4.024094  0  0  -0.016395  0.114609  0  3.981743  0
C  C62  1  0.12309311  0.87135724  0.81090103  1  0  0.0906  0  3.759565  0  0  0.114163  0  3.998843  0  0  0.113632  0  4.02401  0  0  -0.016395  0.114632  0  3.981662  0
C  C63  1  0.37690784  0.12864496  0.31090752  1  0  0.090648  0  3.759433  0  0  0.114209  0  3.998722  0  0  0.113679  0  4.02389  0  0  -0.016331  0.114675  0  3.981533  0
C  C64  1  0.76878984  0.36091380  0.48926531  1  0  -0.058575  0  3.764916  0  0  -0.070533  0  4.017074  0  0  -0.072057  0  4.036936  0  0  -0.093275  -0.069457  0  4.003741  0
C  C65  1  0.73120417  0.63908650  0.98926501  1  0  -0.058551  0  3.764753  0  0  -0.070505  0  4.016927  0  0  -0.072029  0  4.036786  0  0  -0.093253  -0.069464  0  4.003583  0
C  C66  1  0.23120193  0.86090386  0.01073735  1  0  -0.058575  0  3.764573  0  0  -0.070505  0  4.016726  0  0  -0.072031  0  4.036586  0  0  -0.093254  -0.069446  0  4.003374  0
C  C67  1  0.26880314  0.13909451  0.51074032  1  0  -0.05865  0  3.764582  0  0  -0.070579  0  4.016744  0  0  -0.072107  0  4.036612  0  0  -0.093282  -0.069532  0  4.00339  0
C  C68  1  0.65097243  0.40864139  0.54023135  1  0  -0.110407  0  3.75659  0  0  -0.137369  0  4.012966  0  0  -0.139486  0  4.033042  0  0  -0.092357  -0.135904  0  3.999486  0
C  C69  1  0.84902276  0.59135223  0.04022938  1  0  -0.110386  0  3.756651  0  0  -0.137365  0  4.013014  0  0  -0.139482  0  4.033092  0  0  -0.092381  -0.135903  0  3.999544  0
C  C70  1  0.34901905  0.90863951  0.95977152  1  0  -0.110372  0  3.756624  0  0  -0.137384  0  4.012985  0  0  -0.139501  0  4.033062  0  0  -0.092391  -0.135919  0  3.99951  0
C  C71  1  0.15098585  0.09135996  0.45977391  1  0  -0.110311  0  3.756467  0  0  -0.137322  0  4.012809  0  0  -0.139438  0  4.032883  0  0  -0.09239  -0.13586  0  3.999343  0
C  C72  1  0.88165034  0.34415362  0.56314262  1  0  -0.111586  0  3.713044  0  0  -0.134163  0  3.959575  0  0  -0.136206  0  3.980384  0  0  -0.090907  -0.132652  0  3.945122  0
C  C73  1  0.61834715  0.65585568  0.06314326  1  0  -0.111583  0  3.713142  0  0  -0.134175  0  3.959638  0  0  -0.136215  0  3.980444  0  0  -0.090915  -0.132663  0  3.945192  0
C  C74  1  0.11834084  0.84414354  0.93685603  1  0  -0.111622  0  3.712904  0  0  -0.134192  0  3.959408  0  0  -0.136233  0  3.980216  0  0  -0.090963  -0.132677  0  3.944956  0
C  C75  1  0.38166175  0.15585699  0.43686149  1  0  -0.111637  0  3.712957  0  0  -0.134186  0  3.959423  0  0  -0.136234  0  3.980236  0  0  -0.090948  -0.132678  0  3.944983  0
C  C76  1  0.52167436  0.49007129  0.71751746  1  0  0.312558  0  3.780993  0  0  0.280363  0  4.039814  0  0  0.293806  0  4.056941  0  0  0.224755  0.271685  0  4.027754  0
C  C77  1  0.97832815  0.50993153  0.21752104  1  0  0.312608  0  3.781087  0  0  0.280452  0  4.039854  0  0  0.293896  0  4.056983  0  0  0.224798  0.271771  0  4.027793  0
C  C78  1  0.47832953  0.99006443  0.78248494  1  0  0.312683  0  3.780871  0  0  0.280488  0  4.039647  0  0  0.293932  0  4.056774  0  0  0.224792  0.271812  0  4.027586  0
C  C79  1  0.02167105  0.00993700  0.28248639  1  0  0.312591  0  3.780964  0  0  0.280371  0  4.039775  0  0  0.293813  0  4.056906  0  0  0.22476  0.271694  0  4.027711  0
N  N80  1  0.91461204  0.17037781  0.88376155  1  0  -0.649485  0  3.124292  0  0  -0.591503  0  3.367306  0  0  -0.611596  0  3.36621  0  0  -0.621934  -0.57761  0  3.367496  0
N  N81  1  0.58538662  0.82962032  0.38376543  1  0  -0.649425  0  3.124524  0  0  -0.59147  0  3.367548  0  0  -0.611561  0  3.366446  0  0  -0.621903  -0.577577  0  3.367741  0
N  N82  1  0.08538638  0.67037971  0.61623809  1  0  -0.649365  0  3.124511  0  0  -0.591409  0  3.367424  0  0  -0.611498  0  3.366331  0  0  -0.621911  -0.577511  0  3.367606  0
N  N83  1  0.41461404  0.32961898  0.11623466  1  0  -0.649278  0  3.124496  0  0  -0.591315  0  3.367481  0  0  -0.611406  0  3.366386  0  0  -0.621828  -0.57742  0  3.36767  0
N  N84  1  0.45094462  0.44527689  0.81269656  1  0  -0.351476  0  3.154547  0  0  -0.281535  0  3.444166  0  0  -0.301341  0  3.45839  0  0  -0.244838  -0.267996  0  3.433771  0
N  N85  1  0.04905936  0.55472343  0.31269886  1  0  -0.351441  0  3.154611  0  0  -0.281516  0  3.444223  0  0  -0.301323  0  3.458451  0  0  -0.244859  -0.267977  0  3.433828  0
N  N86  1  0.54906108  0.94527552  0.68730702  1  0  -0.351483  0  3.154512  0  0  -0.281543  0  3.444118  0  0  -0.301349  0  3.458344  0  0  -0.244844  -0.268005  0  3.433727  0
N  N87  1  0.95093903  0.05472655  0.18730648  1  0  -0.351414  0  3.154497  0  0  -0.281475  0  3.444107  0  0  -0.30128  0  3.458334  0  0  -0.244832  -0.267935  0  3.43371  0
N  N88  1  0.45977957  0.59252731  0.67441302  1  0  -0.364926  0  3.147679  0  0  -0.29443  0  3.431722  0  0  -0.314752  0  3.445832  0  0  -0.249714  -0.280854  0  3.421806  0
N  N89  1  0.04022161  0.40747569  0.17441515  1  0  -0.365009  0  3.147812  0  0  -0.294539  0  3.43187  0  0  -0.314862  0  3.445979  0  0  -0.249744  -0.280962  0  3.421951  0
N  N90  1  0.54022050  0.09252337  0.82558890  1  0  -0.364936  0  3.147576  0  0  -0.294455  0  3.431624  0  0  -0.314777  0  3.445735  0  0  -0.249704  -0.280878  0  3.421705  0
N  N91  1  0.95977940  0.90747881  0.32559184  1  0  -0.364934  0  3.147615  0  0  -0.294454  0  3.431694  0  0  -0.314778  0  3.445805  0  0  -0.249695  -0.280878  0  3.421778  0
N  N92  1  0.34934923  0.60959685  0.74527395  1  0  -0.081865  0  3.013178  0  0  -0.066112  0  3.304406  0  0  -0.066152  0  3.317509  0  0  -0.092795  -0.066082  0  3.295348  0
N  N93  1  0.15065187  0.39040388  0.24527463  1  0  -0.081835  0  3.013263  0  0  -0.066091  0  3.304499  0  0  -0.066131  0  3.317602  0  0  -0.092794  -0.066062  0  3.295439  0
N  N94  1  0.65064690  0.10960119  0.75472604  1  0  -0.081905  0  3.013186  0  0  -0.066132  0  3.304392  0  0  -0.066172  0  3.317496  0  0  -0.092803  -0.066099  0  3.295334  0
N  N95  1  0.84935108  0.89040234  0.25472695  1  0  -0.081804  0  3.013161  0  0  -0.066045  0  3.304369  0  0  -0.066086  0  3.317473  0  0  -0.092773  -0.066014  0  3.29531  0
N  N96  1  0.34349837  0.52124957  0.82757645  1  0  -0.092017  0  2.939298  0  0  -0.094349  0  3.229667  0  0  -0.091934  0  3.240699  0  0  -0.111742  -0.095399  0  3.221522  0
N  N97  1  0.15650380  0.47874881  0.32757852  1  0  -0.092027  0  2.939151  0  0  -0.094348  0  3.229512  0  0  -0.091932  0  3.240544  0  0  -0.111743  -0.095399  0  3.221369  0
N  N98  1  0.65650037  0.02125535  0.67242313  1  0  -0.091979  0  2.939242  0  0  -0.094321  0  3.229614  0  0  -0.091904  0  3.240646  0  0  -0.111731  -0.095369  0  3.221472  0
N  N99  1  0.84349854  0.97874773  0.17242255  1  0  -0.092071  0  2.939322  0  0  -0.09439  0  3.229667  0  0  -0.091974  0  3.2407  0  0  -0.111748  -0.095439  0  3.221521  0
O  O100  1  0.16267486  0.20431503  0.98708331  1  0  -0.642033  0  2.00621  0  0  -0.576247  0  2.25833  0  0  -0.605177  0  2.250049  0  0  -0.327591  -0.555985  0  2.263418  0
O  O101  1  0.33732336  0.79568428  0.48707912  1  0  -0.642032  0  2.006316  0  0  -0.576304  0  2.258385  0  0  -0.605233  0  2.250103  0  0  -0.327598  -0.556043  0  2.263477  0
O  O102  1  0.83732170  0.70431207  0.51291797  1  0  -0.641985  0  2.006246  0  0  -0.576211  0  2.258315  0  0  -0.605139  0  2.250032  0  0  -0.32756  -0.555948  0  2.263406  0
O  O103  1  0.66267814  0.29567427  0.01291841  1  0  -0.642065  0  2.006289  0  0  -0.576343  0  2.258369  0  0  -0.605274  0  2.250087  0  0  -0.327618  -0.55608  0  2.263462  0
O  O104  1  0.26195826  0.21943221  0.80255788  1  0  -0.628455  0  2.044098  0  0  -0.565475  0  2.296467  0  0  -0.595591  0  2.289275  0  0  -0.3236  -0.544777  0  2.300595  0
O  O105  1  0.23804158  0.78056818  0.30255085  1  0  -0.628449  0  2.044024  0  0  -0.565499  0  2.29631  0  0  -0.59561  0  2.28911  0  0  -0.323632  -0.544801  0  2.300443  0
O  O106  1  0.73804038  0.71943244  0.69744516  1  0  -0.628417  0  2.044051  0  0  -0.565474  0  2.296408  0  0  -0.595589  0  2.289215  0  0  -0.323632  -0.544776  0  2.300543  0
O  O107  1  0.76195986  0.28057143  0.19744676  1  0  -0.628431  0  2.044125  0  0  -0.565501  0  2.296425  0  0  -0.595615  0  2.289229  0  0  -0.323614  -0.5448  0  2.300551  0
