# generated using pymatgen
data_NiHC6O7
_symmetry_space_group_name_H-M   'P 1'
_cell_length_a   6.81323888
_cell_length_b   15.00398224
_cell_length_c   15.00730957
_cell_angle_alpha   117.75980442
_cell_angle_beta   98.70418868
_cell_angle_gamma   98.70684593
_symmetry_Int_Tables_number   1
_chemical_formula_structural   NiHC6O7
_chemical_formula_sum   'Ni6 H6 C36 O42'
_cell_volume   1298.04753004
_cell_formula_units_Z   6
loop_
 _symmetry_equiv_pos_site_id
 _symmetry_equiv_pos_as_xyz
  1  'x, y, z'
loop_
 _atom_site_type_symbol
 _atom_site_label
 _atom_site_symmetry_multiplicity
 _atom_site_fract_x
 _atom_site_fract_y
 _atom_site_fract_z
 _atom_site_occupancy
 _atom_site_pbe_bader_charge
 _atom_site_pbe_bader_spin_density
 _atom_site_pbe_cm5_charge
 _atom_site_pbe_ddec_charge
 _atom_site_pbe_ddec_spin_density
 _atom_site_pbe_ddec_sum_bond_order
 _atom_site_pbe_magmom
Ni  Ni0  1  0.12028302  0.32240039  0.58989274  1  1.229848  1.575773  0.644409  0.944434  1.762118  2.386495  1.558
Ni  Ni1  1  0.53052527  0.41017580  0.73251382  1  1.232238  1.57617  0.643951  0.943996  1.762568  2.385577  1.558
Ni  Ni2  1  0.79793666  0.26747591  0.67755803  1  1.230484  1.576296  0.643949  0.944606  1.762641  2.384986  1.558
Ni  Ni3  1  0.87971974  0.67759564  0.41011077  1  1.229661  1.575774  0.64437  0.944385  1.762126  2.38661  1.558
Ni  Ni4  1  0.46947792  0.58982412  0.26748819  1  1.231988  1.576172  0.643929  0.944  1.762564  2.385608  1.558
Ni  Ni5  1  0.20206401  0.73252479  0.32245151  1  1.230495  1.576301  0.643949  0.944566  1.762664  2.385104  1.558
H  H6  1  0.37187761  0.55680057  0.02166437  1  0.09713  0.000873  0.108589  0.13793  0.000402  1.006576  0.0
H  H7  1  0.35035371  0.97849427  0.53504121  1  0.096809  0.000849  0.108221  0.13795  0.000392  1.005667  0.0
H  H8  1  0.81523685  0.46493775  0.44334516  1  0.114575  0.000825  0.108309  0.137861  0.000392  1.006109  0.0
H  H9  1  0.62813056  0.44320636  0.97833925  1  0.097201  0.000873  0.108576  0.1379  0.000402  1.006519  0.0
H  H10  1  0.64965031  0.02150409  0.46497479  1  0.098201  0.000848  0.108189  0.137923  0.000392  1.005754  0.0
H  H11  1  0.18476402  0.53505750  0.55665652  1  0.11466  0.000825  0.108227  0.137813  0.000393  1.005995  0.0
C  C12  1  0.18320515  0.43172400  0.82479348  1  1.509949  0.002345  0.224804  0.624108  0.00133  4.090577  0.001
C  C13  1  0.35831109  0.17526226  0.60680958  1  1.482995  0.002537  0.22537  0.62468  0.001515  4.089544  0.001
C  C14  1  0.75148914  0.39314068  0.56835561  1  1.497183  0.002524  0.224343  0.622498  0.00156  4.088172  0.001
C  C15  1  0.81679475  0.56827826  0.17520873  1  1.51006  0.002344  0.224894  0.624231  0.001329  4.090625  0.001
C  C16  1  0.64169329  0.82473688  0.39320348  1  1.482616  0.002539  0.225335  0.624572  0.001515  4.089405  0.001
C  C17  1  0.24851462  0.60685145  0.43164415  1  1.497292  0.002523  0.2244  0.622513  0.001559  4.08772  0.001
C  C18  1  0.08186924  0.46270865  0.91173361  1  -0.012021  0.020251  -0.038165  -0.158452  0.011677  3.977313  0.015
C  C19  1  0.17002018  0.08832277  0.55084637  1  -0.009745  0.020266  -0.03776  -0.15698  0.011687  3.975958  0.015
C  C20  1  0.61916104  0.44907188  0.53734947  1  -0.032643  0.020397  -0.038071  -0.15606  0.011711  3.972379  0.015
C  C21  1  0.91813634  0.53729906  0.08827020  1  -0.012047  0.020249  -0.038142  -0.158349  0.011676  3.977243  0.015
C  C22  1  0.82998124  0.91167637  0.44916782  1  -0.009392  0.020264  -0.037734  -0.156855  0.011686  3.975849  0.015
C  C23  1  0.38083975  0.55092026  0.46265008  1  -0.032722  0.020394  -0.038081  -0.155972  0.01171  3.972261  0.015
C  C24  1  0.20791236  0.53137122  0.01190646  1  -0.005386  0.019081  -0.106919  -0.205298  0.011213  3.961331  0.013
C  C25  1  0.19609982  0.98817490  0.51934752  1  -0.024345  0.019415  -0.106936  -0.206614  0.011354  3.961628  0.013
C  C26  1  0.67667522  0.48059649  0.46872992  1  -0.018708  0.019258  -0.107396  -0.207219  0.011274  3.961032  0.013
C  C27  1  0.79209283  0.46863571  0.98809696  1  -0.00527  0.019082  -0.106935  -0.205367  0.011213  3.961093  0.013
C  C28  1  0.80390348  0.01182502  0.48066850  1  -0.035797  0.019462  -0.106948  -0.20665  0.011354  3.961882  0.013
C  C29  1  0.32333158  0.51939876  0.53127083  1  -0.019073  0.019259  -0.107312  -0.207168  0.011274  3.96097  0.013
C  C30  1  0.13442979  0.57104788  0.10160465  1  0.587598  0.008581  0.065079  0.29248  0.006606  4.110373  0.005
C  C31  1  0.03302615  0.89842630  0.46947436  1  0.602288  0.008598  0.065286  0.292499  0.006631  4.109917  0.005
C  C32  1  0.56344783  0.53054622  0.42897003  1  0.592159  0.008573  0.065588  0.292348  0.006618  4.112653  0.005
C  C33  1  0.86557424  0.42895672  0.89839760  1  0.587546  0.008579  0.06526  0.29283  0.006604  4.110292  0.005
C  C34  1  0.96697572  0.10157674  0.53054102  1  0.612565  0.008555  0.065348  0.292513  0.006632  4.110382  0.005
C  C35  1  0.43655186  0.46944669  0.57102915  1  0.592043  0.008571  0.06559  0.292298  0.006617  4.112775  0.005
C  C36  1  0.20904215  0.25474509  0.35663362  1  2.12639  0.004647  0.374649  0.734206  0.002971  4.107475  0.004
C  C37  1  0.85270832  0.64353555  0.89826333  1  2.158671  0.004683  0.376218  0.736966  0.002971  4.105039  0.004
C  C38  1  0.95533634  0.10161821  0.74507231  1  2.130586  0.004593  0.376199  0.736797  0.002929  4.103017  0.004
C  C39  1  0.79094273  0.74525094  0.64336135  1  2.126737  0.004648  0.374828  0.73453  0.002971  4.107058  0.004
C  C40  1  0.14729870  0.35646904  0.10174312  1  2.159038  0.004682  0.37623  0.737227  0.002971  4.105235  0.004
C  C41  1  0.04464828  0.89837159  0.25490575  1  2.130963  0.004589  0.375921  0.736662  0.002927  4.102975  0.004
C  C42  1  0.64770152  0.16429146  0.31734162  1  2.116762  -1.3e-05  0.367833  0.726145  -7.6e-05  4.109363  0.0
C  C43  1  0.32979709  0.68245717  0.84653354  1  2.15011  -1.2e-05  0.368381  0.726531  -7.4e-05  4.110655  0.0
C  C44  1  0.48371420  0.15344757  0.83614387  1  2.102187  -1e-05  0.368619  0.7284  -7e-05  4.111593  0.0
C  C45  1  0.35231651  0.83572092  0.68263055  1  2.116673  -1.3e-05  0.367835  0.725831  -7.5e-05  4.109348  0.0
C  C46  1  0.67018298  0.31754120  0.15345820  1  2.150044  -1.2e-05  0.368128  0.726296  -7.4e-05  4.11048  0.0
C  C47  1  0.51628510  0.84655936  0.16386449  1  2.102277  -1e-05  0.368698  0.728457  -7e-05  4.111436  0.0
O  O48  1  0.06823434  0.37159730  0.73146655  1  -1.128314  0.136688  -0.311558  -0.568095  0.075411  2.65931  0.127
O  O49  1  0.33670998  0.26861959  0.64009527  1  -1.123443  0.136665  -0.311681  -0.567768  0.075558  2.659259  0.127
O  O50  1  0.69660752  0.35990377  0.62844277  1  -1.121823  0.136717  -0.311296  -0.567549  0.075415  2.65908  0.127
O  O51  1  0.93176815  0.62840418  0.26853615  1  -1.128359  0.136686  -0.311627  -0.568182  0.075411  2.659297  0.127
O  O52  1  0.66329841  0.73137878  0.35991103  1  -1.123461  0.136665  -0.311731  -0.567881  0.07556  2.659314  0.127
O  O53  1  0.30339405  0.64008993  0.37155756  1  -1.12193  0.136719  -0.311367  -0.567666  0.075417  2.658945  0.127
O  O54  1  0.27315528  0.63805463  0.19216167  1  -1.118563  0.135271  -0.352533  -0.58978  0.075386  2.566083  0.123
O  O55  1  0.08127174  0.80788941  0.44599398  1  -1.115734  0.135686  -0.353173  -0.590513  0.075668  2.566303  0.123
O  O56  1  0.63518097  0.55408607  0.36197325  1  -1.117663  0.135304  -0.352396  -0.588975  0.07541  2.567779  0.123
O  O57  1  0.72684838  0.36194919  0.80784286  1  -1.118515  0.135267  -0.352644  -0.589997  0.075384  2.566408  0.123
O  O58  1  0.91873490  0.19211130  0.55401996  1  -1.115776  0.135672  -0.353127  -0.590453  0.075659  2.566528  0.123
O  O59  1  0.36482207  0.44590763  0.63802518  1  -1.117934  0.135299  -0.352413  -0.58898  0.075405  2.567849  0.123
O  O60  1  0.37547299  0.46600349  0.84294003  1  -1.150115  0.073763  -0.298769  -0.533394  0.040489  2.339948  0.066
O  O61  1  0.53242347  0.15710867  0.62291385  1  -1.128233  0.073954  -0.299369  -0.534072  0.04064  2.340305  0.066
O  O62  1  0.90956600  0.37706535  0.53413874  1  -1.132204  0.073951  -0.298858  -0.532887  0.040605  2.339234  0.066
O  O63  1  0.62453025  0.53399955  0.15706077  1  -1.15009  0.073754  -0.298773  -0.533408  0.040484  2.340064  0.066
O  O64  1  0.46758060  0.84289282  0.37710095  1  -1.128146  0.073953  -0.299271  -0.53392  0.04064  2.340255  0.066
O  O65  1  0.09044042  0.62292912  0.46586295  1  -1.132067  0.07395  -0.298808  -0.532797  0.040603  2.339151  0.066
O  O66  1  0.16384970  0.23785562  0.42106146  1  -1.080739  0.017512  -0.164339  -0.366338  0.00968  2.369252  0.01
O  O67  1  0.74353994  0.57906660  0.81680682  1  -1.105741  0.01736  -0.164973  -0.36805  0.009663  2.368838  0.01
O  O68  1  0.92663769  0.18288785  0.76194704  1  -1.084942  0.017457  -0.16479  -0.367139  0.009634  2.367131  0.01
O  O69  1  0.83615137  0.76213418  0.57893169  1  -1.081123  0.017514  -0.164387  -0.366395  0.009682  2.369038  0.01
O  O70  1  0.25645485  0.42093722  0.18320244  1  -1.105981  0.017361  -0.165029  -0.368262  0.009664  2.36879  0.01
O  O71  1  0.07337117  0.81711441  0.23806312  1  -1.085135  0.017457  -0.164767  -0.367174  0.009634  2.367242  0.01
O  O72  1  0.25339968  0.26902535  0.29099730  1  -1.054021  0.004386  -0.165538  -0.338039  0.00218  2.170586  0.003
O  O73  1  0.96231974  0.70921136  0.97830016  1  -1.060944  0.004404  -0.166213  -0.338987  0.002185  2.168594  0.003
O  O74  1  0.98577233  0.02174703  0.73081422  1  -1.053922  0.004335  -0.166538  -0.339677  0.002153  2.167457  0.003
O  O75  1  0.74656304  0.73097691  0.70899577  1  -1.053972  0.004386  -0.165643  -0.338266  0.00218  2.170449  0.003
O  O76  1  0.03768806  0.29079479  0.02170574  1  -1.061029  0.004405  -0.166169  -0.33906  0.002186  2.168902  0.003
O  O77  1  0.01418133  0.97822876  0.26913191  1  -1.054147  0.00433  -0.166268  -0.33947  0.00215  2.167248  0.003
O  O78  1  0.54200439  0.15280837  0.36813220  1  -1.054176  2.8e-05  -0.165582  -0.334576  -0.000103  2.194834  0.0
O  O79  1  0.17337180  0.63156678  0.78423016  1  -1.075239  2.6e-05  -0.1657  -0.334792  -0.000106  2.197737  0.0
O  O80  1  0.38924064  0.21560303  0.84745214  1  -1.053767  2.5e-05  -0.165426  -0.335877  -0.000105  2.198321  0.0
O  O81  1  0.45800428  0.84718532  0.63182929  1  -1.054316  2.8e-05  -0.16552  -0.334446  -0.000104  2.195493  0.0
O  O82  1  0.82660870  0.36843548  0.21575876  1  -1.074983  2.6e-05  -0.165575  -0.334686  -0.000106  2.197693  0.0
O  O83  1  0.61077681  0.78441324  0.15257578  1  -1.053611  2.5e-05  -0.165534  -0.335926  -0.000105  2.198056  0.0
O  O84  1  0.75124819  0.17546931  0.26544482  1  -1.065509  -5e-06  -0.181388  -0.365292  -3.4e-05  2.180165  0.0
O  O85  1  0.48515236  0.73446489  0.90966685  1  -1.078033  -5e-06  -0.18192  -0.365522  -3.4e-05  2.178604  0.0
O  O86  1  0.57626774  0.09045352  0.82509927  1  -1.051721  -3e-06  -0.182596  -0.366592  -3.3e-05  2.178753  0.0
O  O87  1  0.24877624  0.82456176  0.73453916  1  -1.065266  -5e-06  -0.181461  -0.365108  -3.4e-05  2.179443  0.0
O  O88  1  0.51482502  0.26552802  0.09032617  1  -1.078235  -5e-06  -0.181792  -0.365388  -3.4e-05  2.178423  0.0
O  O89  1  0.42372164  0.90954563  0.17489479  1  -1.051951  -3e-06  -0.182563  -0.366619  -3.3e-05  2.178948  0.0
