# generated using pymatgen
data_CoH8C8S2(BrN)2
_symmetry_space_group_name_H-M   'P 1'
_cell_length_a   7.36123041
_cell_length_b   9.49520548
_cell_length_c   9.49525776
_cell_angle_alpha   112.82342606
_cell_angle_beta   97.71422806
_cell_angle_gamma   97.71310275
_symmetry_Int_Tables_number   1
_chemical_formula_structural   CoH8C8S2(BrN)2
_chemical_formula_sum   'Co2 H16 C16 S4 Br4 N4'
_cell_volume   593.44352590
_cell_formula_units_Z   2
loop_
 _symmetry_equiv_pos_site_id
 _symmetry_equiv_pos_as_xyz
  1  'x, y, z'
loop_
 _atom_site_type_symbol
 _atom_site_label
 _atom_site_symmetry_multiplicity
 _atom_site_fract_x
 _atom_site_fract_y
 _atom_site_fract_z
 _atom_site_occupancy
 _atom_site_hle17_ddec_charge
 _atom_site_hle17_ddec_spin_density
 _atom_site_hle17_ddec_sum_bond_order
 _atom_site_hle17_magmom
 _atom_site_hse06_10hf_ddec_charge
 _atom_site_hse06_10hf_ddec_spin_density
 _atom_site_hse06_10hf_ddec_sum_bond_order
 _atom_site_hse06_10hf_magmom
 _atom_site_hse06_ddec_charge
 _atom_site_hse06_ddec_spin_density
 _atom_site_hse06_ddec_sum_bond_order
 _atom_site_hse06_magmom
 _atom_site_pbe_cm5_charge
 _atom_site_pbe_ddec_charge
 _atom_site_pbe_ddec_spin_density
 _atom_site_pbe_ddec_sum_bond_order
 _atom_site_pbe_magmom
Co  Co0  1  0.25000244  0.87848257  0.12152201  1  0.4778  -2.641264  2.670699  -2.281  0.484457  -2.681506  3.160434  -2.369  0.596991  -2.780378  3.064239  -2.529  0.321454  0.403405  -2.593463  3.232226  -2.233
Co  Co1  1  0.74999732  0.12151743  0.87847741  1  0.477814  -2.641264  2.670689  -2.281  0.484474  -2.681503  3.160412  -2.369  0.597023  -2.780378  3.064214  -2.529  0.321465  0.403432  -2.593461  3.232195  -2.233
H  H2  1  0.74999832  0.35319726  0.64680700  1  0.08283  0.000334  1.011115  0.0  0.088803  0.000294  1.086399  0.0  0.092057  0.00034  1.084049  0.0  0.09131  0.086365  0.000235  1.088043  0.0
H  H3  1  0.24999976  0.64680157  0.35319389  1  0.082821  0.000333  1.011129  0.0  0.088795  0.000294  1.086419  0.0  0.092049  0.00034  1.084068  0.0  0.091329  0.086361  0.000235  1.088051  0.0
H  H4  1  0.58824674  0.38946397  0.21022807  1  0.093796  -0.000879  0.984953  0.0  0.099627  -0.000815  1.055831  0.0  0.103905  -0.000519  1.051995  0.0  0.087885  0.096308  -0.001086  1.058849  0.0
H  H5  1  0.91175721  0.78977485  0.61054224  1  0.093772  -0.00088  0.984925  0.0  0.099627  -0.000815  1.055775  0.0  0.103905  -0.000519  1.051936  0.0  0.087899  0.096309  -0.001086  1.058796  0.0
H  H6  1  0.41175684  0.61053485  0.78977129  1  0.093791  -0.000885  0.98496  0.0  0.099631  -0.000814  1.055826  0.0  0.103909  -0.000519  1.051986  0.0  0.087884  0.096311  -0.001086  1.058854  0.0
H  H7  1  0.08824607  0.21022280  0.38945663  1  0.093814  -0.000882  0.984827  0.0  0.099665  -0.000815  1.055677  0.0  0.103943  -0.000518  1.051838  0.0  0.087927  0.096347  -0.001086  1.058698  0.0
H  H8  1  0.75000185  0.66755959  0.33244620  1  0.098266  -0.001038  0.980903  0.0  0.106326  -0.001073  1.044886  0.0  0.111476  -0.000717  1.041477  0.0  0.082624  0.102332  -0.00142  1.04775  0.0
H  H9  1  0.25000340  0.33244040  0.66755169  1  0.098258  -0.001035  0.980903  0.0  0.106318  -0.001073  1.044881  0.0  0.111468  -0.000718  1.041472  0.0  0.08263  0.102327  -0.00142  1.047747  0.0
H  H10  1  0.73825548  0.12387227  0.49541980  1  0.316032  -5.3e-05  0.928157  0.0  0.297478  -0.000396  0.997674  0.0  0.307156  -0.00021  0.989124  0.0  0.279278  0.290461  -0.000557  1.004038  0.0
H  H11  1  0.76174469  0.50458736  0.87612927  1  0.316045  -5.3e-05  0.928051  0.0  0.297481  -0.000396  0.997586  0.0  0.30716  -0.00021  0.989037  0.0  0.279276  0.290464  -0.000557  1.00395  0.0
H  H12  1  0.26174534  0.87612655  0.50458137  1  0.31603  -5.3e-05  0.928109  0.0  0.297481  -0.000396  0.997623  0.0  0.307159  -0.00021  0.989074  0.0  0.279288  0.290463  -0.000557  1.003989  0.0
H  H13  1  0.23825291  0.49541499  0.12387084  1  0.315989  -5.3e-05  0.92808  0.0  0.297428  -0.000396  0.997621  0.0  0.307107  -0.00021  0.989072  0.0  0.279254  0.290411  -0.000557  1.003984  0.0
H  H14  1  0.57467221  0.97159472  0.34462683  1  0.313392  6.8e-05  0.921702  0.0  0.293424  -0.00046  0.99381  0.0  0.301737  -0.000299  0.987035  0.0  0.280677  0.287112  -0.000632  0.999395  0.0
H  H15  1  0.92533163  0.65537778  0.02840542  1  0.313416  6.7e-05  0.921776  0.0  0.293448  -0.000459  0.993857  0.0  0.30176  -0.000299  0.987081  0.0  0.280731  0.287139  -0.000632  0.999434  0.0
H  H16  1  0.42532918  0.02840641  0.65537742  1  0.313309  6.7e-05  0.921698  0.0  0.293338  -0.00046  0.993821  0.0  0.30165  -0.000299  0.98705  0.0  0.280656  0.287028  -0.000632  0.999405  0.0
H  H17  1  0.07466872  0.34462457  0.97159393  1  0.313347  6.8e-05  0.921743  0.0  0.293377  -0.000459  0.993842  0.0  0.301689  -0.000299  0.987068  0.0  0.280684  0.287067  -0.000632  0.999424  0.0
C  C18  1  0.57151660  0.18465414  0.34313201  1  0.350631  0.011182  3.726673  0.013  0.337166  -0.003758  3.996784  -0.001  0.367428  -0.003421  4.002988  -0.001  0.156033  0.315278  -0.003254  3.992663  0.001
C  C19  1  0.92848882  0.65687162  0.81535033  1  0.350892  0.011185  3.72647  0.013  0.337319  -0.003757  3.996758  -0.001  0.367581  -0.003422  4.002963  -0.001  0.156013  0.315429  -0.003253  3.992651  0.001
C  C20  1  0.42848559  0.81534467  0.65686930  1  0.350759  0.011188  3.726486  0.013  0.337218  -0.003758  3.996748  -0.001  0.367481  -0.003423  4.00295  -0.001  0.156047  0.315331  -0.003254  3.992627  0.001
C  C21  1  0.07151016  0.34313074  0.18464888  1  0.350814  0.011188  3.726501  0.013  0.337215  -0.003757  3.996837  -0.001  0.367478  -0.003421  4.003042  -0.001  0.156019  0.31533  -0.003253  3.992714  0.001
C  C22  1  0.66042116  0.35223181  0.41981783  1  -0.014267  -0.005701  3.763155  -0.008  0.012079  -0.002823  3.988227  -0.004  0.0017  -0.001709  4.010972  -0.002  -0.011743  0.018944  -0.003891  3.973465  -0.005
C  C23  1  0.83957948  0.58018611  0.64777171  1  -0.014252  -0.005704  3.762859  -0.008  0.012057  -0.002823  3.988094  -0.004  0.001675  -0.001709  4.01084  -0.002  -0.011719  0.018924  -0.003891  3.973333  -0.005
C  C24  1  0.33957693  0.64776702  0.58018200  1  -0.01422  -0.005748  3.762948  -0.008  0.0121  -0.002823  3.988112  -0.004  0.001719  -0.001709  4.010858  -0.002  -0.011727  0.018965  -0.003891  3.973352  -0.005
C  C25  1  0.16041812  0.41981624  0.35222840  1  -0.014254  -0.005747  3.762817  -0.008  0.012079  -0.002823  3.98803  -0.004  0.001695  -0.00171  4.010778  -0.002  -0.011732  0.018944  -0.003891  3.973268  -0.005
C  C26  1  0.74999944  0.42216580  0.57783818  1  -0.087851  0.004874  3.648525  0.004  -0.117685  -0.001626  3.889288  -0.002  -0.113394  -0.001496  3.908951  -0.002  -0.079558  -0.120911  -0.001483  3.876577  -0.002
C  C27  1  0.24999757  0.57783420  0.42216305  1  -0.087906  0.004951  3.64851  0.004  -0.117742  -0.001624  3.889296  -0.002  -0.113448  -0.001494  3.908958  -0.002  -0.079606  -0.120965  -0.001483  3.876585  -0.002
C  C28  1  0.65834796  0.44299170  0.33283595  1  -0.047827  0.001878  3.691344  0.002  -0.07098  -0.002417  3.935763  -0.002  -0.0659  -0.001988  3.95242  -0.002  -0.076868  -0.074656  -0.002621  3.925321  -0.003
C  C29  1  0.84165513  0.66716763  0.55701334  1  -0.047846  0.001886  3.691277  0.002  -0.070998  -0.002416  3.935723  -0.002  -0.065918  -0.001988  3.952381  -0.002  -0.076875  -0.074666  -0.002621  3.925259  -0.003
C  C30  1  0.34165316  0.55700829  0.66716361  1  -0.047868  0.001974  3.691342  0.002  -0.071011  -0.002416  3.935765  -0.002  -0.065932  -0.001988  3.952425  -0.002  -0.076868  -0.074685  -0.002621  3.925317  -0.003
C  C31  1  0.15834491  0.33283353  0.44298866  1  -0.047933  0.001962  3.691229  0.002  -0.071077  -0.002416  3.935672  -0.002  -0.065998  -0.001988  3.95233  -0.002  -0.076925  -0.074747  -0.002621  3.925217  -0.003
C  C32  1  0.75000179  0.59875512  0.40125110  1  -0.070213  -0.002167  3.738781  -0.003  -0.082653  -0.001072  3.991437  -0.001  -0.089226  -0.000395  4.010421  -0.001  -0.097399  -0.078679  -0.001654  3.979625  -0.002
C  C33  1  0.25000070  0.40124486  0.59874966  1  -0.070149  -0.002222  3.738825  -0.003  -0.082591  -0.001072  3.991468  -0.001  -0.089161  -0.000395  4.010451  -0.001  -0.097382  -0.078617  -0.001654  3.97966  -0.002
S  S34  1  0.40130424  0.12067201  0.17957003  1  -0.268974  -0.083209  2.353146  -0.109  -0.285488  -0.056579  2.74632  -0.063  -0.329204  -0.037463  2.735679  -0.041  -0.127403  -0.25365  -0.074643  2.755518  -0.082
S  S35  1  0.09870341  0.82042635  0.87932823  1  -0.269001  -0.083205  2.35322  -0.109  -0.2855  -0.056578  2.746489  -0.063  -0.329191  -0.037461  2.735805  -0.041  -0.127345  -0.253639  -0.07464  2.755646  -0.082
S  S36  1  0.59869689  0.87932798  0.82042953  1  -0.269013  -0.083214  2.353161  -0.109  -0.285513  -0.05658  2.746407  -0.063  -0.329215  -0.037464  2.735732  -0.041  -0.127389  -0.253673  -0.074642  2.755596  -0.082
S  S37  1  0.90129743  0.17957248  0.12066979  1  -0.26902  -0.083214  2.353186  -0.109  -0.285526  -0.056581  2.746494  -0.063  -0.329212  -0.037464  2.735793  -0.041  -0.127368  -0.253666  -0.074643  2.755645  -0.082
Br  Br38  1  0.45841379  0.71029444  0.13059320  1  -0.43892  -0.09994  1.12833  -0.116  -0.413239  -0.083244  1.428543  -0.088  -0.454984  -0.057649  1.400975  -0.061  -0.210657  -0.380017  -0.106095  1.447817  -0.11
Br  Br39  1  0.04158685  0.86940744  0.28970377  1  -0.438918  -0.099936  1.128332  -0.116  -0.413253  -0.08324  1.428552  -0.088  -0.454999  -0.057646  1.400987  -0.061  -0.210655  -0.380036  -0.10609  1.447826  -0.11
Br  Br40  1  0.54158431  0.28970441  0.86940454  1  -0.438923  -0.099938  1.12834  -0.116  -0.41324  -0.083244  1.42854  -0.088  -0.45499  -0.057648  1.400975  -0.061  -0.21066  -0.380022  -0.106093  1.447814  -0.11
Br  Br41  1  0.95841320  0.13059373  0.71029614  1  -0.438921  -0.099936  1.128331  -0.116  -0.413251  -0.083241  1.428547  -0.088  -0.455002  -0.057646  1.400982  -0.061  -0.210657  -0.380035  -0.106089  1.447821  -0.11
N  N42  1  0.62658759  0.08922441  0.40372333  1  -0.554298  -0.003745  3.193584  -0.006  -0.509677  -0.007022  3.413094  -0.01  -0.530791  -0.005422  3.408868  -0.008  -0.536437  -0.496039  -0.008334  3.417478  -0.011
N  N43  1  0.87341379  0.59628170  0.91077863  1  -0.554491  -0.003743  3.193568  -0.006  -0.509801  -0.007021  3.41311  -0.01  -0.530916  -0.005422  3.408878  -0.008  -0.536519  -0.496166  -0.008333  3.417496  -0.011
N  N44  1  0.37341431  0.91077323  0.59627749  1  -0.554282  -0.003749  3.1935  -0.006  -0.509617  -0.007022  3.413021  -0.01  -0.530733  -0.005421  3.4088  -0.008  -0.536452  -0.495982  -0.008334  3.417407  -0.011
N  N45  1  0.12658381  0.40372065  0.08922253  1  -0.554268  -0.003746  3.193545  -0.006  -0.509571  -0.007021  3.413093  -0.01  -0.530686  -0.005421  3.408866  -0.008  -0.536418  -0.495938  -0.008333  3.417477  -0.011
