# generated using pymatgen
data_NaPH16C11(NO4)2
_symmetry_space_group_name_H-M   'P 1'
_cell_length_a   8.34080888
_cell_length_b   8.78945504
_cell_length_c   10.44163807
_cell_angle_alpha   103.33485130
_cell_angle_beta   90.00007696
_cell_angle_gamma   89.99990060
_symmetry_Int_Tables_number   1
_chemical_formula_structural   NaPH16C11(NO4)2
_chemical_formula_sum   'Na2 P2 H32 C22 N4 O16'
_cell_volume   744.85012469
_cell_formula_units_Z   2
loop_
 _symmetry_equiv_pos_site_id
 _symmetry_equiv_pos_as_xyz
  1  'x, y, z'
loop_
 _atom_site_type_symbol
 _atom_site_label
 _atom_site_symmetry_multiplicity
 _atom_site_fract_x
 _atom_site_fract_y
 _atom_site_fract_z
 _atom_site_occupancy
 _atom_site_hle17_bader_spin_density
 _atom_site_hle17_ddec_charge
 _atom_site_hle17_ddec_spin_density
 _atom_site_hle17_ddec_sum_bond_order
 _atom_site_hle17_magmom
 _atom_site_hse06_10hf_bader_spin_density
 _atom_site_hse06_10hf_ddec_charge
 _atom_site_hse06_10hf_ddec_spin_density
 _atom_site_hse06_10hf_ddec_sum_bond_order
 _atom_site_hse06_10hf_magmom
 _atom_site_hse06_bader_spin_density
 _atom_site_hse06_ddec_charge
 _atom_site_hse06_ddec_spin_density
 _atom_site_hse06_ddec_sum_bond_order
 _atom_site_hse06_magmom
 _atom_site_pbe_bader_spin_density
 _atom_site_pbe_cm5_charge
 _atom_site_pbe_ddec_charge
 _atom_site_pbe_ddec_spin_density
 _atom_site_pbe_ddec_sum_bond_order
 _atom_site_pbe_magmom
Na  Na0  1  0.89750837  0.14494893  0.97448397  1  0  0.895434  0  0.402957  0  0  0.842217  0  0.563348  0  0  0.853601  0  0.541356  0  0  0.720398  0.83384  0  0.579143  0
Na  Na1  1  0.39750745  0.85505201  0.02551581  1  0  0.895426  0  0.402966  0  0  0.842217  0  0.56334  0  0  0.853599  0  0.541351  0  0  0.720388  0.833839  0  0.579135  0
P  P2  1  0.52672944  0.19494980  0.15568771  1  0  1.598677  0  4.954532  0  0  1.421723  0  5.486939  0  0  1.479466  0  5.434375  0  0  0.407438  1.381287  0  5.5226  0
P  P3  1  0.02672760  0.80505050  0.84431346  1  0  1.598657  0  4.954533  0  0  1.421684  0  5.486969  0  0  1.479434  0  5.434398  0  0  0.407398  1.381249  0  5.522627  0
H  H4  1  0.17135268  0.14816750  0.15098034  1  0  0.391676  0  0.902945  0  0  0.369577  0  0.969467  0  0  0.378932  0  0.956323  0  0  0.296473  0.36294  0  0.976797  0
H  H5  1  0.67135210  0.85183142  0.84901976  1  0  0.391695  0  0.902928  0  0  0.369597  0  0.969447  0  0  0.378953  0  0.956296  0  0  0.296477  0.362961  0  0.976777  0
H  H6  1  0.29617616  0.42842386  0.28839289  1  0  0.076052  0  0.924234  0  0  0.083793  0  0.990026  0  0  0.085161  0  0.989195  0  0  0.12214  0.082626  0  0.990969  0
H  H7  1  0.79617466  0.57157606  0.71160658  1  0  0.076057  0  0.924256  0  0  0.083808  0  0.990039  0  0  0.085175  0  0.989208  0  0  0.122134  0.08264  0  0.990983  0
H  H8  1  0.21447047  0.43124135  0.07170529  1  0  0.08997  0  0.94864  0  0  0.103238  0  1.017954  0  0  0.104609  0  1.016926  0  0  0.099679  0.102228  0  1.018681  0
H  H9  1  0.71446934  0.56875868  0.92829507  1  0  0.089987  0  0.948622  0  0  0.103252  0  1.017938  0  0  0.104624  0  1.016908  0  0  0.099676  0.102242  0  1.018664  0
H  H10  1  0.12466964  0.59796894  0.02877287  1  0  0.112878  0  0.963673  0  0  0.126108  0  1.030326  0  0  0.127793  0  1.029109  0  0  0.109291  0.124787  0  1.031305  0
H  H11  1  0.62466889  0.40203006  0.97122623  1  0  0.112901  0  0.963696  0  0  0.126134  0  1.030343  0  0  0.127817  0  1.029128  0  0  0.109302  0.124812  0  1.031323  0
H  H12  1  0.10710796  0.57293646  0.19341576  1  0  0.079738  0  0.966724  0  0  0.092149  0  1.041243  0  0  0.093353  0  1.040015  0  0  0.095714  0.091123  0  1.042347  0
H  H13  1  0.60710808  0.42706373  0.80658356  1  0  0.07973  0  0.966706  0  0  0.092139  0  1.04123  0  0  0.093342  0  1.040001  0  0  0.095697  0.09111  0  1.042331  0
H  H14  1  0.44055868  0.94127529  0.41007508  1  0  0.078897  0  0.94055  0  0  0.095583  0  1.007735  0  0  0.09627  0  1.007617  0  0  0.094227  0.095091  0  1.007688  0
H  H15  1  0.94055910  0.05872443  0.58992355  1  0  0.078945  0  0.940574  0  0  0.095631  0  1.007741  0  0  0.096319  0  1.007623  0  0  0.094259  0.09514  0  1.007693  0
H  H16  1  0.23933005  0.93397457  0.46777154  1  0  0.090578  0  0.932451  0  0  0.111586  0  0.992604  0  0  0.111775  0  0.992831  0  0  0.103214  0.111054  0  0.992746  0
H  H17  1  0.73932916  0.06602659  0.53222812  1  0  0.090626  0  0.93246  0  0  0.111618  0  0.992624  0  0  0.111806  0  0.992853  0  0  0.103242  0.111086  0  0.992766  0
H  H18  1  0.27783577  0.92570237  0.29679918  1  0  0.090684  0  0.957933  0  0  0.103646  0  1.030199  0  0  0.105766  0  1.027898  0  0  0.102826  0.1016  0  1.032532  0
H  H19  1  0.77783636  0.07429640  0.70320005  1  0  0.090668  0  0.957964  0  0  0.103647  0  1.030192  0  0  0.105765  0  1.027891  0  0  0.102823  0.101602  0  1.032524  0
H  H20  1  0.79335636  0.92947056  0.11489867  1  0  0.099521  0  0.960147  0  0  0.101751  0  1.03123  0  0  0.10616  0  1.027843  0  0  0.127706  0.098827  0  1.033164  0
H  H21  1  0.29335712  0.07052936  0.88510080  1  0  0.099493  0  0.960184  0  0  0.101743  0  1.031246  0  0  0.106153  0  1.027858  0  0  0.127705  0.098816  0  1.033178  0
H  H22  1  0.00481073  0.83919806  0.25366102  1  0  0.089711  0  0.931158  0  0  0.099682  0  0.988431  0  0  0.102441  0  0.986923  0  0  0.124164  0.097681  0  0.989745  0
H  H23  1  0.50481124  0.16079993  0.74633871  1  0  0.08969  0  0.931174  0  0  0.099655  0  0.988453  0  0  0.102414  0  0.986945  0  0  0.124165  0.097655  0  0.989767  0
H  H24  1  0.44570970  0.52998342  0.48442575  1  0  0.079684  0  0.923369  0  0  0.084893  0  0.994789  0  0  0.086105  0  0.993092  0  0  0.120728  0.083413  0  0.99642  0
H  H25  1  0.94570685  0.47001862  0.51557335  1  0  0.079677  0  0.92328  0  0  0.084858  0  0.994773  0  0  0.086066  0  0.993088  0  0  0.120695  0.083376  0  0.996406  0
H  H26  1  0.61922186  0.29970029  0.49396673  1  0  0.090904  0  0.947463  0  0  0.096884  0  1.019816  0  0  0.09904  0  1.017414  0  0  0.111208  0.095321  0  1.021505  0
H  H27  1  0.11922084  0.70029987  0.50603452  1  0  0.090964  0  0.947455  0  0  0.096913  0  1.019795  0  0  0.099069  0  1.017391  0  0  0.111225  0.095348  0  1.021485  0
H  H28  1  0.42493374  0.24903937  0.42588875  1  0  0.070708  0  0.93531  0  0  0.079164  0  1.006764  0  0  0.080011  0  1.005931  0  0  0.105849  0.078554  0  1.007178  0
H  H29  1  0.92493407  0.75096386  0.57411343  1  0  0.070757  0  0.935311  0  0  0.079187  0  1.006739  0  0  0.080034  0  1.005907  0  0  0.105859  0.078577  0  1.007152  0
H  H30  1  0.05971118  0.36374207  0.32330717  1  0  0.048563  0  0.966177  0  0  0.062876  0  1.042608  0  0  0.064222  0  1.040937  0  0  0.079814  0.061826  0  1.044046  0
H  H31  1  0.55970950  0.63625819  0.67669211  1  0  0.048556  0  0.966188  0  0  0.062869  0  1.042628  0  0  0.064214  0  1.040957  0  0  0.079819  0.061817  0  1.044066  0
H  H32  1  0.08219601  0.17578167  0.35991057  1  0  0.05401  0  0.945408  0  0  0.071061  0  1.015156  0  0  0.07163  0  1.014991  0  0  0.084002  0.070332  0  1.015838  0
H  H33  1  0.58219512  0.82421855  0.64008969  1  0  0.05402  0  0.945398  0  0  0.071069  0  1.015148  0  0  0.071638  0  1.014984  0  0  0.084006  0.07034  0  1.015832  0
H  H34  1  0.89180084  0.23548305  0.30946554  1  0  0.090014  0  0.968019  0  0  0.105002  0  1.03327  0  0  0.106592  0  1.032382  0  0  0.097469  0.103954  0  1.033601  0
H  H35  1  0.39180002  0.76451790  0.69053328  1  0  0.090009  0  0.968002  0  0  0.104993  0  1.033261  0  0  0.106583  0  1.032373  0  0  0.097455  0.103946  0  1.033591  0
C  C36  1  0.41750128  0.47156338  0.27493492  1  0  0.071494  0  3.630319  0  0  0.036543  0  3.877283  0  0  0.040476  0  3.885777  0  0  0.008557  0.033536  0  3.872222  0
C  C37  1  0.91749987  0.52843636  0.72506560  1  0  0.071419  0  3.630374  0  0  0.036477  0  3.877401  0  0  0.040418  0  3.885892  0  0  0.008526  0.033471  0  3.872339  0
C  C38  1  0.40753445  0.63850732  0.25365693  1  0  0.351105  0  3.682089  0  0  0.325161  0  3.935044  0  0  0.339929  0  3.938368  0  0  0.158859  0.314595  0  3.933661  0
C  C39  1  0.90753338  0.36149244  0.74634263  1  0  0.351216  0  3.68191  0  0  0.325136  0  3.935125  0  0  0.339897  0  3.938455  0  0  0.15885  0.314572  0  3.933741  0
C  C40  1  0.18524900  0.55576309  0.10665168  1  0  -0.074667  0  3.580693  0  0  -0.168746  0  3.849104  0  0  -0.162317  0  3.850137  0  0  -0.149023  -0.172892  0  3.848298  0
C  C41  1  0.68524924  0.44423698  0.89334866  1  0  -0.074704  0  3.580747  0  0  -0.168784  0  3.849134  0  0  -0.162357  0  3.850168  0  0  -0.149031  -0.172926  0  3.848325  0
C  C42  1  0.32084729  0.89034844  0.38505509  1  0  -0.070138  0  3.638537  0  0  -0.168904  0  3.913558  0  0  -0.162465  0  3.9163  0  0  -0.144828  -0.173017  0  3.912114  0
C  C43  1  0.82084767  0.10965144  0.61494440  1  0  -0.070235  0  3.638615  0  0  -0.168962  0  3.913638  0  0  -0.162521  0  3.916375  0  0  -0.144864  -0.173074  0  3.912197  0
C  C44  1  0.57773971  0.69711145  0.24923341  1  0  -0.006499  0  3.736369  0  0  -0.006839  0  3.9831  0  0  -0.009275  0  4.001205  0  0  0.1086  -0.005488  0  3.971841  0
C  C45  1  0.07773982  0.30288994  0.75076708  1  0  -0.006557  0  3.736183  0  0  -0.006851  0  3.982935  0  0  -0.009286  0  4.001039  0  0  0.108585  -0.005499  0  3.971673  0
C  C46  1  0.76578002  0.84778607  0.17576497  1  0  0.059019  0  3.705049  0  0  0.026644  0  3.978039  0  0  0.02697  0  3.99363  0  0  0.04561  0.026354  0  3.967479  0
C  C47  1  0.26578173  0.15221388  0.82423448  1  0  0.059002  0  3.705062  0  0  0.026602  0  3.978074  0  0  0.026928  0  3.993666  0  0  0.045594  0.026315  0  3.967513  0
C  C48  1  0.88145596  0.79758330  0.25291386  1  0  0.090627  0  3.715056  0  0  0.069023  0  3.97155  0  0  0.072685  0  3.988775  0  0  0.057232  0.066695  0  3.959766  0
C  C49  1  0.38145626  0.20241532  0.74708640  1  0  0.090707  0  3.714982  0  0  0.069108  0  3.97148  0  0  0.07277  0  3.988706  0  0  0.05725  0.066782  0  3.959688  0
C  C50  1  0.69734692  0.64476435  0.32494029  1  0  0.369743  0  3.79146  0  0  0.337366  0  4.068424  0  0  0.353536  0  4.078168  0  0  0.219762  0.326369  0  4.061874  0
C  C51  1  0.19734681  0.35523688  0.67505933  1  0  0.369797  0  3.791381  0  0  0.33739  0  4.068372  0  0  0.35356  0  4.078115  0  0  0.219763  0.326393  0  4.061822  0
C  C52  1  0.51354603  0.46765892  0.39798914  1  0  0.115678  0  3.586776  0  0  0.077027  0  3.854878  0  0  0.083555  0  3.862311  0  0  0.00406  0.072497  0  3.850454  0
C  C53  1  0.01354427  0.53234257  0.60201225  1  0  0.11575  0  3.586727  0  0  0.077024  0  3.854895  0  0  0.083547  0  3.862335  0  0  0.004063  0.072497  0  3.850461  0
C  C54  1  0.54112864  0.30067782  0.40989340  1  0  0.062434  0  3.613359  0  0  -0.006311  0  3.896285  0  0  0.00164  0  3.897488  0  0  -0.067692  -0.011566  0  3.895125  0
C  C55  1  0.04112897  0.69932362  0.59010802  1  0  0.06229  0  3.61354  0  0  -0.006289  0  3.896272  0  0  0.001664  0  3.897473  0  0  -0.067668  -0.01154  0  3.895109  0
C  C56  1  0.02159266  0.24010768  0.29460673  1  0  -0.017024  0  3.712807  0  0  -0.105085  0  3.985298  0  0  -0.099554  0  3.989132  0  0  -0.159632  -0.108658  0  3.982684  0
C  C57  1  0.52159200  0.75989263  0.70539348  1  0  -0.017  0  3.712772  0  0  -0.105059  0  3.985257  0  0  -0.099529  0  3.989091  0  0  -0.159618  -0.108633  0  3.982647  0
N  N58  1  0.61420724  0.79603914  0.17407967  1  0  -0.299365  0  3.159659  0  0  -0.271508  0  3.437991  0  0  -0.275655  0  3.451132  0  0  -0.349844  -0.268927  0  3.430268  0
N  N59  1  0.11420766  0.20395870  0.82592015  1  0  -0.299346  0  3.159554  0  0  -0.271487  0  3.437882  0  0  -0.275631  0  3.451023  0  0  -0.349843  -0.268906  0  3.430157  0
N  N60  1  0.84835022  0.69474744  0.32615985  1  0  -0.351939  0  3.059484  0  0  -0.319961  0  3.33018  0  0  -0.330975  0  3.342443  0  0  -0.306687  -0.312165  0  3.321487  0
N  N61  1  0.34835020  0.30525240  0.67383967  1  0  -0.351985  0  3.059376  0  0  -0.319998  0  3.330077  0  0  -0.331011  0  3.34234  0  0  -0.306685  -0.312201  0  3.321383  0
O  O62  1  0.64262704  0.13686279  0.04715274  1  0  -0.886039  0  1.864063  0  0  -0.823913  0  2.123905  0  0  -0.848382  0  2.101258  0  0  -0.444944  -0.806602  0  2.138776  0
O  O63  1  0.14262408  0.86313615  0.95285117  1  0  -0.886  0  1.86405  0  0  -0.823874  0  2.123895  0  0  -0.848342  0  2.101246  0  0  -0.444886  -0.806562  0  2.138764  0
O  O64  1  0.36920283  0.11075668  0.15759752  1  0  -0.91765  0  1.936383  0  0  -0.845648  0  2.192409  0  0  -0.870796  0  2.170703  0  0  -0.42769  -0.826783  0  2.206822  0
O  O65  1  0.86920217  0.88924430  0.84240224  1  0  -0.917665  0  1.936386  0  0  -0.845673  0  2.192438  0  0  -0.87082  0  2.170726  0  0  -0.427712  -0.826807  0  2.206852  0
O  O66  1  0.49141256  0.37867981  0.15901668  1  0  -0.528705  0  2.256145  0  0  -0.448245  0  2.497081  0  0  -0.467859  0  2.488764  0  0  -0.209851  -0.434236  0  2.502741  0
O  O67  1  0.99141118  0.62131982  0.84098390  1  0  -0.528729  0  2.256194  0  0  -0.448239  0  2.497114  0  0  -0.467864  0  2.488803  0  0  -0.209847  -0.434231  0  2.502771  0
O  O68  1  0.33048066  0.64731043  0.13569201  1  0  -0.350427  0  2.281691  0  0  -0.285902  0  2.533393  0  0  -0.300984  0  2.530812  0  0  -0.255495  -0.274936  0  2.534646  0
O  O69  1  0.83048101  0.35268826  0.86430726  1  0  -0.350454  0  2.28172  0  0  -0.285871  0  2.533441  0  0  -0.300951  0  2.530863  0  0  -0.255464  -0.27491  0  2.534694  0
O  O70  1  0.32299950  0.72331651  0.36739242  1  0  -0.333095  0  2.245637  0  0  -0.266964  0  2.4965  0  0  -0.283742  0  2.496897  0  0  -0.21836  -0.255038  0  2.495958  0
O  O71  1  0.82299840  0.27668337  0.63260707  1  0  -0.333077  0  2.245611  0  0  -0.266957  0  2.49653  0  0  -0.283728  0  2.496925  0  0  -0.218365  -0.255036  0  2.495989  0
O  O72  1  0.67096355  0.54047136  0.39996462  1  0  -0.295832  0  2.266525  0  0  -0.228818  0  2.506424  0  0  -0.247971  0  2.50761  0  0  -0.156898  -0.21555  0  2.50534  0
O  O73  1  0.17096192  0.45952756  0.60003548  1  0  -0.295853  0  2.266556  0  0  -0.228806  0  2.506473  0  0  -0.247961  0  2.507663  0  0  -0.156872  -0.21554  0  2.505388  0
O  O74  1  0.61915104  0.20808007  0.29467416  1  0  -0.519714  0  2.225072  0  0  -0.438414  0  2.475333  0  0  -0.458481  0  2.465941  0  0  -0.219962  -0.424355  0  2.481033  0
O  O75  1  0.11915139  0.79191892  0.70532781  1  0  -0.51968  0  2.22508  0  0  -0.438419  0  2.475294  0  0  -0.458486  0  2.465906  0  0  -0.219979  -0.424365  0  2.480997  0
O  O76  1  0.05470331  0.17277155  0.15969721  1  0  -0.596714  0  2.08556  0  0  -0.537444  0  2.322633  0  0  -0.553264  0  2.308315  0  0  -0.494114  -0.52632  0  2.330685  0
O  O77  1  0.55470275  0.82722754  0.84030280  1  0  -0.596743  0  2.08553  0  0  -0.537476  0  2.322607  0  0  -0.553296  0  2.308282  0  0  -0.494126  -0.526353  0  2.33066  0
