# generated using pymatgen
data_CdH12C12(N5O)2
_symmetry_space_group_name_H-M   'P 1'
_cell_length_a   7.92383949
_cell_length_b   8.42872178
_cell_length_c   10.86474876
_cell_angle_alpha   95.53685399
_cell_angle_beta   89.99992115
_cell_angle_gamma   89.99995110
_symmetry_Int_Tables_number   1
_chemical_formula_structural   CdH12C12(N5O)2
_chemical_formula_sum   'Cd2 H24 C24 N20 O4'
_cell_volume   722.24752975
_cell_formula_units_Z   2
loop_
 _symmetry_equiv_pos_site_id
 _symmetry_equiv_pos_as_xyz
  1  'x, y, z'
loop_
 _atom_site_type_symbol
 _atom_site_label
 _atom_site_symmetry_multiplicity
 _atom_site_fract_x
 _atom_site_fract_y
 _atom_site_fract_z
 _atom_site_occupancy
 _atom_site_hle17_bader_spin_density
 _atom_site_hle17_ddec_charge
 _atom_site_hle17_ddec_spin_density
 _atom_site_hle17_ddec_sum_bond_order
 _atom_site_hle17_magmom
 _atom_site_hse06_10hf_bader_spin_density
 _atom_site_hse06_10hf_ddec_charge
 _atom_site_hse06_10hf_ddec_spin_density
 _atom_site_hse06_10hf_ddec_sum_bond_order
 _atom_site_hse06_10hf_magmom
 _atom_site_hse06_bader_spin_density
 _atom_site_hse06_ddec_charge
 _atom_site_hse06_ddec_spin_density
 _atom_site_hse06_ddec_sum_bond_order
 _atom_site_hse06_magmom
 _atom_site_pbe_bader_spin_density
 _atom_site_pbe_cm5_charge
 _atom_site_pbe_ddec_charge
 _atom_site_pbe_ddec_spin_density
 _atom_site_pbe_ddec_sum_bond_order
 _atom_site_pbe_magmom
Cd  Cd0  1  0.00000057  0.49999978  0.49999948  1  0  1.090201  0  1.697483  0  0  0.884868  0  2.149041  0  0  0.93769  0  2.102672  0  0  0.78483  0.847596  0  2.180612  0
Cd  Cd1  1  0.50000035  0.00000065  0.99999993  1  0  1.090188  0  1.697479  0  0  0.884843  0  2.149049  0  0  0.937661  0  2.102678  0  0  0.784829  0.847571  0  2.180618  0
H  H2  1  0.71142321  0.42854718  0.69010548  1  0  0.077341  0  0.947424  0  0  0.081269  0  1.017888  0  0  0.083922  0  1.015851  0  0  0.112996  0.079319  0  1.019406  0
H  H3  1  0.21142449  0.07145185  0.80989361  1  0  0.077338  0  0.947408  0  0  0.081257  0  1.017885  0  0  0.08391  0  1.015848  0  0  0.113  0.079307  0  1.019402  0
H  H4  1  0.28857546  0.57145310  0.30989395  1  0  0.077332  0  0.947436  0  0  0.081276  0  1.017877  0  0  0.083928  0  1.01584  0  0  0.113009  0.079325  0  1.019393  0
H  H5  1  0.78857671  0.92854843  0.19010766  1  0  0.077316  0  0.947443  0  0  0.081255  0  1.017889  0  0  0.083909  0  1.015851  0  0  0.112994  0.079304  0  1.019404  0
H  H6  1  0.53782936  0.21286430  0.76694285  1  0  0.109993  0  0.966841  0  0  0.119715  0  1.02617  0  0  0.122206  0  1.026361  0  0  0.108179  0.117942  0  1.026189  0
H  H7  1  0.03782933  0.28713610  0.73305651  1  0  0.109974  0  0.966846  0  0  0.119692  0  1.026182  0  0  0.122183  0  1.026372  0  0  0.108165  0.117919  0  1.0262  0
H  H8  1  0.46217057  0.78713598  0.23305657  1  0  0.109985  0  0.966834  0  0  0.119706  0  1.026169  0  0  0.122196  0  1.026359  0  0  0.108177  0.117931  0  1.026186  0
H  H9  1  0.96217061  0.71286299  0.26694374  1  0  0.109991  0  0.966869  0  0  0.119712  0  1.026196  0  0  0.122203  0  1.026385  0  0  0.108192  0.117937  0  1.026215  0
H  H10  1  0.93134982  0.11715751  0.41883053  1  0  0.070436  0  0.985916  0  0  0.074827  0  1.057946  0  0  0.077085  0  1.05676  0  0  0.110537  0.073212  0  1.058794  0
H  H11  1  0.43134998  0.38284163  0.08116913  1  0  0.070442  0  0.985902  0  0  0.07483  0  1.057933  0  0  0.077088  0  1.056748  0  0  0.110543  0.073214  0  1.058783  0
H  H12  1  0.06864885  0.88284157  0.58116881  1  0  0.070434  0  0.985982  0  0  0.074823  0  1.05801  0  0  0.077082  0  1.056825  0  0  0.110554  0.073206  0  1.058863  0
H  H13  1  0.56864995  0.61716104  0.91883139  1  0  0.070441  0  0.985924  0  0  0.074831  0  1.057951  0  0  0.07709  0  1.056766  0  0  0.110542  0.073216  0  1.058802  0
H  H14  1  0.76468652  0.88775193  0.48224725  1  0  0.119355  0  0.955528  0  0  0.131101  0  1.014566  0  0  0.134292  0  1.013076  0  0  0.113225  0.128809  0  1.015758  0
H  H15  1  0.26468705  0.61224723  0.01775144  1  0  0.119345  0  0.955505  0  0  0.131084  0  1.014559  0  0  0.134271  0  1.013069  0  0  0.113223  0.128792  0  1.015752  0
H  H16  1  0.23531215  0.11224835  0.51775217  1  0  0.119348  0  0.955508  0  0  0.131091  0  1.014556  0  0  0.134282  0  1.013065  0  0  0.113214  0.128799  0  1.015752  0
H  H17  1  0.73531163  0.38775424  0.98224716  1  0  0.119339  0  0.955513  0  0  0.131091  0  1.014551  0  0  0.134282  0  1.01306  0  0  0.113219  0.128799  0  1.015745  0
H  H18  1  0.65913298  0.65556317  0.49899220  1  0  0.385479  0  0.938671  0  0  0.342618  0  1.023373  0  0  0.354212  0  1.006864  0  0  0.276617  0.334464  0  1.034948  0
H  H19  1  0.15913207  0.84443609  0.00100845  1  0  0.385447  0  0.938717  0  0  0.342582  0  1.02342  0  0  0.354176  0  1.006912  0  0  0.276608  0.334429  0  1.034996  0
H  H20  1  0.34086822  0.34443592  0.50100806  1  0  0.38543  0  0.938739  0  0  0.342563  0  1.023446  0  0  0.354156  0  1.006939  0  0  0.276604  0.334409  0  1.035022  0
H  H21  1  0.84086787  0.15556300  0.99899181  1  0  0.385377  0  0.938805  0  0  0.342507  0  1.023519  0  0  0.3541  0  1.007013  0  0  0.276577  0.334353  0  1.035095  0
H  H22  1  0.67233129  0.51059629  0.39291261  1  0  0.37971  0  0.94082  0  0  0.336146  0  1.02709  0  0  0.347272  0  1.011356  0  0  0.276688  0.328312  0  1.038124  0
H  H23  1  0.17233131  0.98940415  0.10708719  1  0  0.379686  0  0.940876  0  0  0.336116  0  1.027137  0  0  0.347243  0  1.011403  0  0  0.276673  0.328282  0  1.038171  0
H  H24  1  0.32766864  0.48940399  0.60708681  1  0  0.379712  0  0.940812  0  0  0.336147  0  1.027086  0  0  0.347273  0  1.011353  0  0  0.276692  0.328313  0  1.03812  0
H  H25  1  0.82766862  0.01059613  0.89291316  1  0  0.379711  0  0.94085  0  0  0.336144  0  1.027102  0  0  0.347269  0  1.01137  0  0  0.276696  0.32831  0  1.038137  0
C  C26  1  0.72020945  0.30647692  0.64701737  1  0  0.128557  0  3.70727  0  0  0.097515  0  3.96468  0  0  0.104727  0  3.980789  0  0  0.044037  0.092829  0  3.95371  0
C  C27  1  0.22020928  0.19352211  0.85298171  1  0  0.128552  0  3.707294  0  0  0.097509  0  3.96471  0  0  0.104722  0  3.980818  0  0  0.044018  0.092822  0  3.953742  0
C  C28  1  0.27978922  0.69352336  0.35298206  1  0  0.128555  0  3.707275  0  0  0.097507  0  3.96468  0  0  0.10472  0  3.980789  0  0  0.044025  0.092819  0  3.95371  0
C  C29  1  0.77979066  0.80647817  0.14701863  1  0  0.128552  0  3.707312  0  0  0.097512  0  3.964714  0  0  0.104725  0  3.980822  0  0  0.044035  0.092826  0  3.953739  0
C  C30  1  0.62323627  0.18566134  0.68953815  1  0  -0.115725  0  3.662513  0  0  -0.133711  0  3.907464  0  0  -0.138944  0  3.925423  0  0  -0.074791  -0.130457  0  3.895587  0
C  C31  1  0.12323733  0.31433778  0.81046104  1  0  -0.115709  0  3.662529  0  0  -0.133671  0  3.907465  0  0  -0.138904  0  3.925426  0  0  -0.074773  -0.130418  0  3.895589  0
C  C32  1  0.37676240  0.81433894  0.31046128  1  0  -0.115698  0  3.662466  0  0  -0.133674  0  3.907435  0  0  -0.138907  0  3.925395  0  0  -0.074777  -0.130421  0  3.895555  0
C  C33  1  0.87676260  0.68566131  0.18953922  1  0  -0.115719  0  3.662576  0  0  -0.133699  0  3.90752  0  0  -0.138933  0  3.925481  0  0  -0.074803  -0.130445  0  3.895637  0
C  C34  1  0.84224773  0.13288768  0.49547653  1  0  0.122831  0  3.717537  0  0  0.091639  0  3.973275  0  0  0.098037  0  3.991879  0  0  0.036204  0.087187  0  3.961091  0
C  C35  1  0.34224805  0.36711155  0.00452231  1  0  0.122873  0  3.717465  0  0  0.09169  0  3.973198  0  0  0.098089  0  3.991801  0  0  0.036234  0.08725  0  3.960995  0
C  C36  1  0.15775094  0.86711260  0.50452289  1  0  0.122938  0  3.717493  0  0  0.091759  0  3.973211  0  0  0.098157  0  3.991816  0  0  0.036245  0.087333  0  3.960985  0
C  C37  1  0.65775188  0.63288873  0.99547712  1  0  0.122889  0  3.717403  0  0  0.091714  0  3.97314  0  0  0.098111  0  3.991745  0  0  0.036254  0.087272  0  3.960938  0
C  C38  1  0.74940640  0.00558630  0.53134967  1  0  -0.141019  0  3.690305  0  0  -0.164122  0  3.943572  0  0  -0.170209  0  3.962979  0  0  -0.078751  -0.160169  0  3.930592  0
C  C39  1  0.24940700  0.49441270  0.96864845  1  0  -0.141033  0  3.690183  0  0  -0.164135  0  3.943485  0  0  -0.170217  0  3.962889  0  0  -0.07878  -0.160184  0  3.930506  0
C  C40  1  0.25059227  0.99441398  0.46864975  1  0  -0.141066  0  3.690178  0  0  -0.164156  0  3.943462  0  0  -0.170244  0  3.962869  0  0  -0.078751  -0.16021  0  3.93049  0
C  C41  1  0.75059294  0.50558758  0.03135005  1  0  -0.14102  0  3.69014  0  0  -0.164141  0  3.943449  0  0  -0.170229  0  3.962856  0  0  -0.078775  -0.160193  0  3.930472  0
C  C42  1  0.54870518  0.89520243  0.67603813  1  0  0.265245  0  3.79334  0  0  0.234942  0  4.067742  0  0  0.244414  0  4.084818  0  0  0.215594  0.228675  0  4.056006  0
C  C43  1  0.04870514  0.60479782  0.82396191  1  0  0.265292  0  3.793365  0  0  0.234996  0  4.067759  0  0  0.24447  0  4.084835  0  0  0.215627  0.228729  0  4.056021  0
C  C44  1  0.45129349  0.10479785  0.32396221  1  0  0.265229  0  3.793361  0  0  0.234945  0  4.067755  0  0  0.244419  0  4.08483  0  0  0.21559  0.228677  0  4.056012  0
C  C45  1  0.95129353  0.39520246  0.17603844  1  0  0.265259  0  3.793336  0  0  0.234968  0  4.067731  0  0  0.244442  0  4.084806  0  0  0.215609  0.228699  0  4.055988  0
C  C46  1  0.63981043  0.02984117  0.63292401  1  0  0.070568  0  3.751063  0  0  0.082357  0  3.988479  0  0  0.085896  0  4.007596  0  0  0.021193  0.080068  0  3.975577  0
C  C47  1  0.13981124  0.47015793  0.86707515  1  0  0.070593  0  3.750976  0  0  0.082366  0  3.988419  0  0  0.085904  0  4.007535  0  0  0.021185  0.080077  0  3.975517  0
C  C48  1  0.36018824  0.97015792  0.36707532  1  0  0.070596  0  3.750963  0  0  0.082341  0  3.988446  0  0  0.085879  0  4.007562  0  0  0.02116  0.080052  0  3.975543  0
C  C49  1  0.86018869  0.52984235  0.13292428  1  0  0.070577  0  3.751026  0  0  0.082353  0  3.988475  0  0  0.085892  0  4.00759  0  0  0.021178  0.080065  0  3.975568  0
N  N50  1  0.83132109  0.28106412  0.55343769  1  0  -0.346554  0  3.256582  0  0  -0.269268  0  3.522484  0  0  -0.288288  0  3.54097  0  0  -0.332157  -0.256143  0  3.509516  0
N  N51  1  0.33132198  0.21893600  0.94656135  1  0  -0.346569  0  3.256573  0  0  -0.269285  0  3.522481  0  0  -0.288305  0  3.540965  0  0  -0.332143  -0.256163  0  3.509514  0
N  N52  1  0.16867758  0.71893616  0.44656173  1  0  -0.346606  0  3.256545  0  0  -0.269338  0  3.522478  0  0  -0.288359  0  3.540962  0  0  -0.332178  -0.25622  0  3.509516  0
N  N53  1  0.66867922  0.78106547  0.05343816  1  0  -0.346574  0  3.256566  0  0  -0.269305  0  3.522477  0  0  -0.288324  0  3.54096  0  0  -0.33217  -0.256183  0  3.509509  0
N  N54  1  0.47229515  0.88982854  0.78714960  1  0  -0.345259  0  3.090955  0  0  -0.284729  0  3.379489  0  0  -0.302379  0  3.395483  0  0  -0.230854  -0.272607  0  3.368324  0
N  N55  1  0.97229411  0.61017011  0.71284990  1  0  -0.345295  0  3.090992  0  0  -0.284776  0  3.379538  0  0  -0.302427  0  3.395531  0  0  -0.230866  -0.272655  0  3.368374  0
N  N56  1  0.52770479  0.11017054  0.21284974  1  0  -0.345263  0  3.090908  0  0  -0.284737  0  3.379436  0  0  -0.30239  0  3.395431  0  0  -0.230863  -0.272615  0  3.368265  0
N  N57  1  0.02770582  0.38982897  0.28714944  1  0  -0.345269  0  3.090924  0  0  -0.284747  0  3.379463  0  0  -0.302398  0  3.395458  0  0  -0.230867  -0.272624  0  3.368293  0
N  N58  1  0.40415401  0.74334335  0.78517900  1  0  -0.086102  0  2.98958  0  0  -0.080157  0  3.285146  0  0  -0.080367  0  3.300193  0  0  -0.10031  -0.079674  0  3.274725  0
N  N59  1  0.90415410  0.75665656  0.71482066  1  0  -0.086124  0  2.989621  0  0  -0.080173  0  3.285182  0  0  -0.080384  0  3.30023  0  0  -0.100323  -0.079692  0  3.274761  0
N  N60  1  0.59584593  0.25665693  0.21482043  1  0  -0.08611  0  2.98955  0  0  -0.080161  0  3.285111  0  0  -0.080371  0  3.300158  0  0  -0.100316  -0.079679  0  3.274684  0
N  N61  1  0.09584583  0.24334253  0.28517868  1  0  -0.086087  0  2.989567  0  0  -0.080138  0  3.285133  0  0  -0.080351  0  3.300182  0  0  -0.100309  -0.079658  0  3.274707  0
N  N62  1  0.43839386  0.66334271  0.67754086  1  0  -0.102306  0  3.057225  0  0  -0.071449  0  3.342556  0  0  -0.074295  0  3.35466  0  0  -0.089303  -0.069234  0  3.334245  0
N  N63  1  0.93839494  0.83665717  0.82245876  1  0  -0.102267  0  3.057215  0  0  -0.071411  0  3.342538  0  0  -0.074257  0  3.354644  0  0  -0.089282  -0.069195  0  3.334226  0
N  N64  1  0.56160607  0.33665638  0.32245940  1  0  -0.102275  0  3.057227  0  0  -0.071421  0  3.342556  0  0  -0.074266  0  3.35466  0  0  -0.089287  -0.069205  0  3.334239  0
N  N65  1  0.06160626  0.16334311  0.17754066  1  0  -0.102318  0  3.057231  0  0  -0.071461  0  3.342556  0  0  -0.074305  0  3.35466  0  0  -0.089306  -0.069246  0  3.334239  0
N  N66  1  0.52879198  0.75456276  0.60770289  1  0  -0.301353  0  3.071326  0  0  -0.260452  0  3.339304  0  0  -0.273155  0  3.354674  0  0  -0.204952  -0.251799  0  3.328867  0
N  N67  1  0.02879295  0.74543632  0.89229708  1  0  -0.301393  0  3.071389  0  0  -0.260492  0  3.339361  0  0  -0.273196  0  3.354732  0  0  -0.204979  -0.251839  0  3.328923  0
N  N68  1  0.47120669  0.24543752  0.39229653  1  0  -0.301379  0  3.071392  0  0  -0.260478  0  3.339363  0  0  -0.273181  0  3.354734  0  0  -0.204964  -0.251825  0  3.328922  0
N  N69  1  0.97120699  0.25456277  0.10770318  1  0  -0.301347  0  3.071324  0  0  -0.260447  0  3.339297  0  0  -0.273151  0  3.354669  0  0  -0.204955  -0.251794  0  3.328856  0
O  O70  1  0.73892897  0.59901188  0.43753874  1  0  -0.836296  0  1.963655  0  0  -0.77067  0  2.190428  0  0  -0.793265  0  2.156732  0  0  -0.596565  -0.754528  0  2.213697  0
O  O71  1  0.23892916  0.90098731  0.06246090  1  0  -0.836245  0  1.963703  0  0  -0.770605  0  2.190472  0  0  -0.793198  0  2.156774  0  0  -0.596541  -0.754463  0  2.213739  0
O  O72  1  0.26107096  0.40098721  0.56246152  1  0  -0.836273  0  1.96373  0  0  -0.77064  0  2.190519  0  0  -0.793234  0  2.156825  0  0  -0.596556  -0.754496  0  2.213786  0
O  O73  1  0.76107078  0.09901178  0.93753844  1  0  -0.836203  0  1.963786  0  0  -0.77056  0  2.190545  0  0  -0.793152  0  2.156853  0  0  -0.596527  -0.754417  0  2.213812  0
