# generated using pymatgen
data_CuH10C9SN3O4
_symmetry_space_group_name_H-M   'P 1'
_cell_length_a   8.17886061
_cell_length_b   8.17884348
_cell_length_c   9.30032705
_cell_angle_alpha   98.15454694
_cell_angle_beta   98.15429630
_cell_angle_gamma   112.97380066
_symmetry_Int_Tables_number   1
_chemical_formula_structural   CuH10C9SN3O4
_chemical_formula_sum   'Cu2 H20 C18 S2 N6 O8'
_cell_volume   553.56325633
_cell_formula_units_Z   2
loop_
 _symmetry_equiv_pos_site_id
 _symmetry_equiv_pos_as_xyz
  1  'x, y, z'
loop_
 _atom_site_type_symbol
 _atom_site_label
 _atom_site_symmetry_multiplicity
 _atom_site_fract_x
 _atom_site_fract_y
 _atom_site_fract_z
 _atom_site_occupancy
 _atom_site_pbe_bader_spin_density
 _atom_site_pbe_cm5_charge
 _atom_site_pbe_ddec_charge
 _atom_site_pbe_ddec_spin_density
 _atom_site_pbe_ddec_sum_bond_order
 _atom_site_pbe_magmom
Cu  Cu0  1  0.21995550  0.77835996  0.26967767  1  0  0.61077  0.479823  0  2.44664  0
Cu  Cu1  1  0.77835730  0.21995437  0.76968063  1  0  0.610656  0.479727  0  2.446505  0
H  H2  1  0.10177386  0.08404141  0.51736940  1  0  0.305853  0.381863  0  0.955825  0
H  H3  1  0.08405260  0.10177877  0.01737133  1  0  0.305856  0.381891  0  0.955802  0
H  H4  1  0.37617382  0.22468675  0.13809857  1  0  0.111161  0.133213  0  1.022479  0
H  H5  1  0.22468644  0.37617001  0.63810064  1  0  0.111177  0.133216  0  1.022618  0
H  H6  1  0.55821427  0.56106597  0.19265688  1  0  0.100955  0.101475  0  1.022725  0
H  H7  1  0.56105929  0.55820603  0.69265514  1  0  0.100942  0.101443  0  1.022732  0
H  H8  1  0.79318123  0.72179117  0.42111959  1  0  0.102251  0.106254  0  1.03954  0
H  H9  1  0.72179002  0.79317927  0.92111519  1  0  0.102264  0.106308  0  1.039427  0
H  H10  1  0.86089900  0.55721276  0.61179238  1  0  0.107273  0.126467  0  1.046151  0
H  H11  1  0.55720880  0.86089688  0.11178554  1  0  0.107328  0.12652  0  1.046166  0
H  H12  1  0.52356641  0.87134915  0.64935414  1  0  0.121649  0.119298  0  1.007235  0
H  H13  1  0.87135097  0.52357242  0.14935541  1  0  0.121655  0.119279  0  1.007183  0
H  H14  1  0.54648296  0.77029093  0.47574681  1  0  0.122358  0.121735  0  0.985927  0
H  H15  1  0.77029820  0.54648466  0.97574555  1  0  0.12236  0.121715  0  0.985971  0
H  H16  1  0.19083729  0.78966501  0.54319978  1  0  0.106692  0.127226  0  1.011485  0
H  H17  1  0.78966634  0.19083720  0.04320084  1  0  0.106709  0.127221  0  1.011497  0
H  H18  1  0.26867350  0.50075172  0.34169047  1  0  0.097631  0.146225  0  1.034813  0
H  H19  1  0.50075422  0.26867820  0.84170080  1  0  0.097622  0.146243  0  1.034796  0
H  H20  1  0.04472152  0.48410563  0.37219892  1  0  0.099278  0.151948  0  1.016861  0
H  H21  1  0.48410319  0.04472741  0.87220840  1  0  0.099253  0.151949  0  1.016881  0
C  C22  1  0.51672001  0.20173513  0.34677665  1  0  0.1102  0.148341  0  4.027055  0
C  C23  1  0.20173268  0.51671864  0.84677690  1  0  0.110257  0.148408  0  4.026963  0
C  C24  1  0.47972571  0.29534076  0.23981183  1  0  -0.079901  -0.128897  0  3.910631  0
C  C25  1  0.29533920  0.47971992  0.73980279  1  0  -0.080037  -0.129058  0  3.910793  0
C  C26  1  0.58164320  0.48168998  0.27156818  1  0  -0.086996  -0.074513  0  3.972706  0
C  C27  1  0.48168480  0.58164315  0.77156786  1  0  -0.086935  -0.074395  0  3.972785  0
C  C28  1  0.71808177  0.57524747  0.40399957  1  0  -0.088415  -0.075209  0  3.984712  0
C  C29  1  0.57524331  0.71807735  0.90399460  1  0  -0.088405  -0.075207  0  3.984776  0
C  C30  1  0.75816402  0.48504597  0.50923026  1  0  -0.09032  -0.163702  0  3.972753  0
C  C31  1  0.48504589  0.75816368  0.00922732  1  0  -0.090395  -0.16385  0  3.972887  0
C  C32  1  0.65467160  0.29601003  0.47839760  1  0  0.103674  0.125448  0  4.057836  0
C  C33  1  0.29601101  0.65467109  0.97839417  1  0  0.10364  0.125491  0  4.057834  0
C  C34  1  0.47380821  0.84165022  0.52859339  1  0  -0.046051  -0.125569  0  3.872153  0
C  C35  1  0.84165214  0.47381053  0.02859095  1  0  -0.046068  -0.125511  0  3.872132  0
C  C36  1  0.27038599  0.73709189  0.48103338  1  0  -0.14977  -0.104259  0  4.027414  0
C  C37  1  0.73709661  0.27039236  0.98103841  1  0  -0.149809  -0.104258  0  4.02724  0
C  C38  1  0.18915699  0.56905729  0.38494747  1  0  -0.219548  -0.346636  0  3.930079  0
C  C39  1  0.56905659  0.18916039  0.88495050  1  0  -0.219468  -0.346624  0  3.929901  0
S  S40  1  0.96702898  0.02259231  0.28308019  1  0  0.58369  1.410359  0  6.312072  0
S  S41  1  0.02260063  0.96703878  0.78307578  1  0  0.583653  1.41034  0  6.312382  0
N  N42  1  0.43746444  0.02340854  0.35470741  1  0  -0.23177  -0.244698  0  3.370875  0
N  N43  1  0.02340811  0.43746180  0.85470793  1  0  -0.231733  -0.244684  0  3.370846  0
N  N44  1  0.52536597  0.01626546  0.48422403  1  0  -0.006849  0.334211  0  3.75343  0
N  N45  1  0.01626568  0.52536292  0.98422261  1  0  -0.006848  0.334245  0  3.753432  0
N  N46  1  0.65580573  0.17269032  0.56252984  1  0  -0.24687  -0.233889  0  3.488899  0
N  N47  1  0.17269204  0.65580405  0.06253057  1  0  -0.24687  -0.233938  0  3.488984  0
O  O48  1  0.11546694  0.14700234  0.43042757  1  0  -0.380191  -0.596719  0  2.242997  0
O  O49  1  0.14701045  0.11546803  0.93042992  1  0  -0.38022  -0.596761  0  2.242945  0
O  O50  1  0.78808013  0.98961310  0.31270152  1  0  -0.347409  -0.630048  0  2.187563  0
O  O51  1  0.98961906  0.78807768  0.81270068  1  0  -0.347455  -0.630106  0  2.18736  0
O  O52  1  0.01639410  0.13463209  0.17196206  1  0  -0.342042  -0.626832  0  2.199014  0
O  O53  1  0.13463249  0.01639636  0.67196449  1  0  -0.341978  -0.626749  0  2.199406  0
O  O54  1  0.99181953  0.85283408  0.24992385  1  0  -0.36724  -0.662875  0  2.387569  0
O  O55  1  0.85284363  0.99182754  0.74993080  1  0  -0.367213  -0.662895  0  2.387745  0
