# generated using pymatgen
data_AlH8C21NO7F
_symmetry_space_group_name_H-M   'P 1'
_cell_length_a   6.80637983
_cell_length_b   10.39233833
_cell_length_c   29.97557114
_cell_angle_alpha   90.00046871
_cell_angle_beta   87.26650758
_cell_angle_gamma   90.00023814
_symmetry_Int_Tables_number   1
_chemical_formula_structural   AlH8C21NO7F
_chemical_formula_sum   'Al4 H32 C84 N4 O28 F4'
_cell_volume   2117.88556067
_cell_formula_units_Z   4
loop_
 _symmetry_equiv_pos_site_id
 _symmetry_equiv_pos_as_xyz
  1  'x, y, z'
loop_
 _atom_site_type_symbol
 _atom_site_label
 _atom_site_symmetry_multiplicity
 _atom_site_fract_x
 _atom_site_fract_y
 _atom_site_fract_z
 _atom_site_occupancy
 _atom_site_pbe_bader_charge
 _atom_site_pbe_bader_spin_density
 _atom_site_pbe_cm5_charge
 _atom_site_pbe_ddec_charge
 _atom_site_pbe_ddec_spin_density
 _atom_site_pbe_ddec_sum_bond_order
 _atom_site_pbe_magmom
Al  Al0  1  0.24313393  0.74607789  0.38023761  1  2.50199  0  0.40852  1.637075  0  2.563061  0
Al  Al1  1  0.75686243  0.25394401  0.61976648  1  2.502005  0  0.408547  1.637301  0  2.562775  0
Al  Al2  1  0.25686088  0.24608900  0.61976468  1  2.501853  0  0.408503  1.636953  0  2.563123  0
Al  Al3  1  0.74313330  0.75394252  0.38023574  1  2.502063  0  0.408607  1.637192  0  2.562939  0
H  H4  1  0.20741130  0.85006550  0.23724514  1  0.091338  0  0.110478  0.116578  0  0.986842  0
H  H5  1  0.79264860  0.14991406  0.76276428  1  0.091957  0  0.110547  0.116632  0  0.986753  0
H  H6  1  0.29266184  0.35008538  0.76276363  1  0.09214  0  0.11051  0.116555  0  0.98673  0
H  H7  1  0.70740889  0.64992882  0.23724312  1  0.091473  0  0.110513  0.116627  0  0.986786  0
H  H8  1  0.16674838  0.97715598  0.16848287  1  0.122657  0  0.100319  0.102434  0  1.054819  0
H  H9  1  0.83340307  0.02278605  0.83151719  1  0.123754  0  0.100306  0.102423  0  1.054974  0
H  H10  1  0.33340013  0.47719852  0.83151943  1  0.12358  0  0.100288  0.102431  0  1.054819  0
H  H11  1  0.66674301  0.52282049  0.16848530  1  0.123035  0  0.100315  0.102355  0  1.054858  0
H  H12  1  0.95484277  0.04936748  0.03366043  1  0.095857  0  0.106453  0.105654  0  1.020663  0
H  H13  1  0.04551086  0.95053125  0.96630687  1  0.097616  0  0.106254  0.105522  0  1.020824  0
H  H14  1  0.54551684  0.54946000  0.96631367  1  0.097411  0  0.106253  0.105634  0  1.020778  0
H  H15  1  0.45481039  0.45061963  0.03366766  1  0.096054  0  0.106397  0.10564  0  1.020699  0
H  H16  1  0.20327354  0.89758995  0.69231561  1  0.099888  0  0.122202  0.148612  0  0.965853  0
H  H17  1  0.79672804  0.10243099  0.30765609  1  0.100622  0  0.12225  0.148834  0  0.965626  0
H  H18  1  0.29672694  0.39757709  0.30766358  1  0.100611  0  0.122261  0.148787  0  0.965717  0
H  H19  1  0.70328042  0.60243904  0.69232281  1  0.100096  0  0.122157  0.148707  0  0.965895  0
H  H20  1  0.99657589  0.41662190  0.84239790  1  0.12512  0  0.122962  0.129463  0  0.965616  0
H  H21  1  0.00341110  0.58331917  0.15755911  1  0.126726  0  0.122996  0.129664  0  0.965668  0
H  H22  1  0.50345285  0.91666685  0.15756673  1  0.126163  0  0.123048  0.129705  0  0.965337  0
H  H23  1  0.49662961  0.08337718  0.84240462  1  0.125901  0  0.123091  0.12965  0  0.965482  0
H  H24  1  0.99054650  0.28001338  0.90974034  1  0.084662  0  0.111302  0.117567  0  0.998708  0
H  H25  1  0.00953408  0.71990266  0.09021164  1  0.085346  0  0.111367  0.117643  0  0.99863  0
H  H26  1  0.50958053  0.78008660  0.09021881  1  0.085168  0  0.111415  0.117594  0  0.998697  0
H  H27  1  0.49060147  0.21998148  0.90974717  1  0.084791  0  0.111365  0.117626  0  0.998611  0
H  H28  1  0.97731744  0.17702404  0.96403019  1  0.053166  0  0.106272  0.107346  0  1.018589  0
H  H29  1  0.02308418  0.82285736  0.03593242  1  0.054743  0  0.106177  0.107237  0  1.018779  0
H  H30  1  0.52310682  0.67712999  0.03593977  1  0.05498  0  0.106178  0.10725  0  1.01884  0
H  H31  1  0.47729190  0.32296600  0.96403687  1  0.053496  0  0.106268  0.107297  0  1.018601  0
H  H32  1  0.48078825  0.91065207  0.39862162  1  0.63351  0  0.350504  0.431808  0  0.852608  0
H  H33  1  0.51920339  0.08935444  0.60139817  1  0.634405  0  0.350472  0.431551  0  0.852932  0
H  H34  1  0.01920220  0.41067078  0.60138948  1  0.633852  0  0.350487  0.431722  0  0.852716  0
H  H35  1  0.98078107  0.58936267  0.39861395  1  0.633871  0  0.350476  0.431621  0  0.852814  0
C  C36  1  0.51328030  0.61021627  0.31876207  1  1.593631  0  0.27976  0.654346  0  4.073825  0
C  C37  1  0.48671282  0.38981045  0.68123635  1  1.593667  0  0.279827  0.654285  0  4.073698  0
C  C38  1  0.98671264  0.11022292  0.68123778  1  1.594012  0  0.279841  0.654484  0  4.073879  0
C  C39  1  0.01328867  0.88980571  0.31876364  1  1.593537  0  0.279881  0.654485  0  4.073486  0
C  C40  1  0.47909203  0.60376356  0.44211261  1  1.660167  0  0.283185  0.718349  0  4.139812  0
C  C41  1  0.52091606  0.39624102  0.55788447  1  1.660174  0  0.282979  0.71813  0  4.140121  0
C  C42  1  0.02090116  0.10377154  0.55788930  1  1.659006  0  0.28307  0.718405  0  4.139867  0
C  C43  1  0.97908241  0.89624363  0.44211980  1  1.66004  0  0.282947  0.71805  0  4.140258  0
C  C44  1  0.95480375  0.13061375  0.11728643  1  1.285837  0  0.235511  0.424959  0  4.080587  0
C  C45  1  0.04543200  0.86930519  0.88268256  1  1.284368  0  0.235779  0.424731  0  4.080954  0
C  C46  1  0.54541891  0.63068823  0.88268977  1  1.284428  0  0.235729  0.424664  0  4.081014  0
C  C47  1  0.45478294  0.36936927  0.11729391  1  1.285188  0  0.235524  0.424819  0  4.080451  0
C  C48  1  0.98906093  0.33024709  0.16270059  1  1.310409  0  0.234438  0.413764  0  4.090587  0
C  C49  1  0.01107174  0.66969302  0.83726240  1  1.307585  0  0.234434  0.413729  0  4.090893  0
C  C50  1  0.51106458  0.83030479  0.83726968  1  1.308438  0  0.23432  0.413472  0  4.090688  0
C  C51  1  0.48904855  0.16973635  0.16270968  1  1.30958  0  0.234406  0.413724  0  4.090596  0
C  C52  1  0.87296241  0.15063111  0.23979187  1  0.544496  0  0.11118  0.249557  0  4.036803  0
C  C53  1  0.12710536  0.84934749  0.76017949  1  0.542271  0  0.110955  0.248746  0  4.036204  0
C  C54  1  0.62709814  0.65066284  0.76018681  1  0.542721  0  0.111002  0.249145  0  4.036503  0
C  C55  1  0.37295316  0.34936291  0.23980025  1  0.543898  0  0.111192  0.249503  0  4.036088  0
C  C56  1  0.88247838  0.07476418  0.27759735  1  0.073588  0  -0.085242  -0.204723  0  3.955735  0
C  C57  1  0.11755274  0.92523655  0.72238068  1  0.075058  0  -0.084955  -0.204058  0  3.955693  0
C  C58  1  0.61755498  0.57478239  0.72238619  1  0.074857  0  -0.085027  -0.204579  0  3.956029  0
C  C59  1  0.38247226  0.42523854  0.27760353  1  0.073605  0  -0.085175  -0.204631  0  3.955901  0
C  C60  1  0.10965746  0.93308374  0.23766491  1  -0.013506  0  -0.085218  -0.098602  0  3.972688  0
C  C61  1  0.89040737  0.06689774  0.76233483  1  -0.01332  0  -0.08532  -0.09871  0  3.972467  0
C  C62  1  0.39041163  0.43310677  0.76233624  1  -0.013881  0  -0.085326  -0.098759  0  3.972298  0
C  C63  1  0.60965273  0.56691128  0.23766584  1  -0.013567  0  -0.085289  -0.098701  0  3.97261  0
C  C64  1  0.08844357  0.00547402  0.19924667  1  0.02398  0  -0.089192  -0.128694  0  3.999108  0
C  C65  1  0.91166672  0.99448533  0.80074639  1  0.023731  0  -0.089139  -0.128588  0  3.998761  0
C  C66  1  0.41166252  0.50550954  0.80074966  1  0.023806  0  -0.089115  -0.12847  0  3.998611  0
C  C67  1  0.58843752  0.49451139  0.19925041  1  0.023913  0  -0.089235  -0.128724  0  3.998956  0
C  C68  1  0.97192018  0.11684545  0.19922707  1  0.30935  0  0.082129  0.081541  0  3.952396  0
C  C69  1  0.02818748  0.88311294  0.80075029  1  0.308811  0  0.081974  0.081638  0  3.952143  0
C  C70  1  0.52817656  0.61688718  0.80075632  1  0.3087  0  0.08213  0.081555  0  3.952231  0
C  C71  1  0.47190784  0.38314145  0.19923406  1  0.309342  0  0.082118  0.081788  0  3.951726  0
C  C72  1  0.97350436  0.34794989  0.07930520  1  -0.044118  0  -0.000753  0.033826  0  4.025606  0
C  C73  1  0.02679075  0.65195749  0.92065376  1  -0.045248  0  -0.000624  0.033631  0  4.025759  0
C  C74  1  0.52679075  0.84803578  0.92066117  1  -0.045079  0  -0.000567  0.033747  0  4.026044  0
C  C75  1  0.47350567  0.15203519  0.07931281  1  -0.044903  0  -0.000905  0.03348  0  4.026184  0
C  C76  1  0.96385508  0.21231916  0.07677581  1  0.040022  0  -0.016601  -0.084413  0  4.013552  0
C  C77  1  0.03646404  0.78758630  0.92318782  1  0.041105  0  -0.017168  -0.084669  0  4.01436  0
C  C78  1  0.53645845  0.71240609  0.92319510  1  0.040972  0  -0.017033  -0.084691  0  4.01457  0
C  C79  1  0.46384148  0.28766584  0.07678322  1  0.039804  0  -0.016614  -0.084277  0  4.013618  0
C  C80  1  0.96412046  0.15380400  0.03506022  1  -0.073875  0  -0.073044  -0.068402  0  3.974458  0
C  C81  1  0.03624407  0.84609472  0.96490407  1  -0.047317  0  -0.07242  -0.067822  0  3.974262  0
C  C82  1  0.53624738  0.65389562  0.96491135  1  -0.046577  0  -0.072509  -0.06806  0  3.974444  0
C  C83  1  0.46410090  0.34618305  0.03506764  1  -0.07387  0  -0.072879  -0.068382  0  3.974616  0
C  C84  1  0.97972203  0.40704043  0.12151426  1  0.026757  0  -0.014953  -0.081855  0  4.017179  0
C  C85  1  0.02046009  0.59288140  0.87844405  1  0.026841  0  -0.014972  -0.081551  0  4.01727  0
C  C86  1  0.52047327  0.90711403  0.87845145  1  0.026108  0  -0.015121  -0.081683  0  4.017269  0
C  C87  1  0.47972919  0.09294443  0.12152221  1  0.026632  0  -0.015055  -0.081893  0  4.017369  0
C  C88  1  0.00361289  0.96674913  0.27708175  1  -0.039461  0  -0.004841  -0.004439  0  3.989817  0
C  C89  1  0.99641513  0.03325160  0.72291132  1  -0.040102  0  -0.004869  -0.004571  0  3.989983  0
C  C90  1  0.49641881  0.46676694  0.72291335  1  -0.039151  0  -0.00484  -0.004226  0  3.9895  0
C  C91  1  0.50360831  0.53325496  0.27708406  1  -0.03943  0  -0.004855  -0.004456  0  3.989866  0
C  C92  1  0.00226402  0.43890713  0.95649188  1  -0.045498  0  0.005556  0.040046  0  3.961897  0
C  C93  1  0.99803031  0.56098968  0.04346373  1  -0.044101  0  0.005187  0.040219  0  3.962132  0
C  C94  1  0.49804406  0.93899875  0.04347109  1  -0.043893  0  0.005306  0.04041  0  3.96206  0
C  C95  1  0.50227075  0.06108377  0.95649922  1  -0.044657  0  0.00554  0.040198  0  3.961672  0
C  C96  1  0.01340321  0.63840206  0.00281074  1  -0.014569  0  0.003852  0.040269  0  3.974829  0
C  C97  1  0.98695123  0.36149090  0.99714553  1  -0.012587  0  0.003425  0.040088  0  3.974728  0
C  C98  1  0.48695158  0.13849855  0.99715297  1  -0.014402  0  0.003462  0.040164  0  3.975031  0
C  C99  1  0.51340564  0.86158685  0.00281833  1  -0.014615  0  0.003916  0.040422  0  3.974634  0
C  C100  1  0.01573111  0.57566854  0.96036851  1  -0.023751  0  0.001935  -0.002865  0  3.918605  0
C  C101  1  0.98460128  0.42422826  0.03958777  1  -0.023524  0  0.002623  -0.00213  0  3.918506  0
C  C102  1  0.48460581  0.07575983  0.03959525  1  -0.02248  0  0.002658  -0.002222  0  3.918883  0
C  C103  1  0.51572937  0.92432173  0.96037605  1  -0.02298  0  0.001994  -0.002962  0  3.918589  0
C  C104  1  0.00085134  0.38391086  0.91376129  1  -0.027031  0  -0.073493  -0.107166  0  3.920348  0
C  C105  1  0.99930516  0.61600134  0.08619301  1  -0.02796  0  -0.073624  -0.107376  0  3.9206  0
C  C106  1  0.49933830  0.88398609  0.08620066  1  -0.027559  0  -0.073722  -0.107461  0  3.920692  0
C  C107  1  0.50088423  0.11608392  0.91376833  1  -0.027557  0  -0.073546  -0.107277  0  3.919953  0
C  C108  1  0.00697529  0.45967650  0.87535058  1  -0.023816  0  -0.059553  -0.04246  0  3.939728  0
C  C109  1  0.99312490  0.54024917  0.12460608  1  -0.024176  0  -0.059549  -0.042717  0  3.940081  0
C  C110  1  0.49315332  0.95973591  0.12461386  1  -0.024053  0  -0.059641  -0.04271  0  3.939801  0
C  C111  1  0.50700849  0.04032063  0.87535748  1  -0.02399  0  -0.059603  -0.042524  0  3.939313  0
C  C112  1  0.97579827  0.22698322  0.99600606  1  0.043148  0  -0.08183  -0.122824  0  3.961162  0
C  C113  1  0.02458745  0.77290781  0.00395521  1  0.016048  0  -0.08175  -0.122616  0  3.96143  0
C  C114  1  0.52459614  0.72708192  0.00396266  1  0.015021  0  -0.081878  -0.122675  0  3.961379  0
C  C115  1  0.47578516  0.27300637  0.99601298  1  0.043355  0  -0.08186  -0.122751  0  3.961472  0
C  C116  1  0.00948775  0.02982407  0.51718077  1  0.179103  0  -0.013064  -0.115342  0  3.908716  0
C  C117  1  0.99047951  0.97019013  0.48282900  1  -0.304693  0  -0.013009  -0.114812  0  3.908494  0
C  C118  1  0.49050099  0.52981168  0.48282331  1  0.179258  0  -0.013162  -0.115307  0  3.908794  0
C  C119  1  0.50951192  0.47018424  0.51717176  1  -0.305028  0  -0.013033  -0.114898  0  3.908743  0
N  N120  1  0.96465185  0.19373314  0.15920461  1  -1.128059  0  -0.222559  -0.200212  0  3.538932  0
N  N121  1  0.03550588  0.80620312  0.84076506  1  -1.128062  0  -0.222328  -0.199774  0  3.539085  0
N  N122  1  0.53549607  0.69379260  0.84077189  1  -1.128086  0  -0.222461  -0.199812  0  3.538821  0
N  N123  1  0.46463806  0.30625047  0.15921248  1  -1.127975  0  -0.222388  -0.200105  0  3.53897  0
O  O124  1  0.64273041  0.62153073  0.42044806  1  -1.238714  0  -0.228213  -0.594771  0  2.292218  0
O  O125  1  0.35727741  0.37848636  0.57955036  1  -1.238695  0  -0.227938  -0.594513  0  2.292443  0
O  O126  1  0.85726810  0.12152993  0.57955734  1  -1.237854  0  -0.228219  -0.594868  0  2.292057  0
O  O127  1  0.14272744  0.87847465  0.42045777  1  -1.238581  0  -0.22794  -0.594521  0  2.292368  0
O  O128  1  0.35371583  0.61702211  0.34282102  1  -1.270722  0  -0.235255  -0.601803  0  2.349214  0
O  O129  1  0.64626636  0.38300941  0.65717339  1  -1.270876  0  -0.235126  -0.60175  0  2.349055  0
O  O130  1  0.14626632  0.11702963  0.65717507  1  -1.270543  0  -0.235321  -0.601876  0  2.349338  0
O  O131  1  0.85372387  0.88300478  0.34282335  1  -1.270856  0  -0.235205  -0.601748  0  2.348834  0
O  O132  1  0.17664275  0.83891477  0.32775623  1  -1.248108  0  -0.225974  -0.571949  0  2.302047  0
O  O133  1  0.82335845  0.16112734  0.67225287  1  -1.248286  0  -0.225959  -0.571974  0  2.30192  0
O  O134  1  0.32335537  0.33891583  0.67224901  1  -1.248021  0  -0.22598  -0.571815  0  2.30195  0
O  O135  1  0.67663133  0.66111665  0.32775208  1  -1.24812  0  -0.225929  -0.571876  0  2.302102  0
O  O136  1  0.30972850  0.64310274  0.43215996  1  -1.221837  0  -0.224576  -0.576136  0  2.262823  0
O  O137  1  0.69027498  0.35689799  0.56783812  1  -1.22186  0  -0.22456  -0.5762  0  2.262806  0
O  O138  1  0.19026069  0.14312109  0.56783983  1  -1.221754  0  -0.224518  -0.576123  0  2.262694  0
O  O139  1  0.80972426  0.85690658  0.43216259  1  -1.221839  0  -0.224616  -0.576174  0  2.262916  0
O  O140  1  0.49059608  0.83036187  0.38212912  1  -1.436382  0  -0.447795  -0.98389  0  2.12749  0
O  O141  1  0.50939504  0.16966388  0.61787898  1  -1.437206  0  -0.447844  -0.983622  0  2.127799  0
O  O142  1  0.00939866  0.33036959  0.61787522  1  -1.436756  0  -0.447763  -0.983762  0  2.127545  0
O  O143  1  0.99059552  0.66966000  0.38212520  1  -1.436704  0  -0.447817  -0.983712  0  2.127627  0
O  O144  1  0.94069192  0.01258159  0.11440739  1  -1.101139  0  -0.274462  -0.44403  0  2.158489  0
O  O145  1  0.05953852  0.98733831  0.88556594  1  -1.100032  0  -0.274587  -0.443943  0  2.158913  0
O  O146  1  0.55950636  0.51265417  0.88557350  1  -1.100136  0  -0.274554  -0.443926  0  2.158925  0
O  O147  1  0.44066374  0.48740140  0.11441453  1  -1.100785  0  -0.274502  -0.44393  0  2.158378  0
O  O148  1  0.97957395  0.61814090  0.80160896  1  -1.071542  0  -0.241962  -0.405335  0  2.256134  0
O  O149  1  0.02049862  0.38182230  0.19835337  1  -1.072291  0  -0.241949  -0.405167  0  2.256128  0
O  O150  1  0.52047088  0.11815901  0.19836307  1  -1.071823  0  -0.2419  -0.405154  0  2.255915  0
O  O151  1  0.47954794  0.88185904  0.80161764  1  -1.071936  0  -0.241825  -0.405084  0  2.256124  0
F  F152  1  0.23476694  0.74115549  0.75555608  1  -0.636256  0  -0.0781  -0.114289  0  1.51146  0
F  F153  1  0.76530304  0.25882792  0.24440459  1  -0.636925  0  -0.0782  -0.114565  0  1.511751  0
F  F154  1  0.26529087  0.24116762  0.24441687  1  -0.636466  0  -0.078213  -0.11455  0  1.51154  0
F  F155  1  0.73475084  0.75886005  0.75556684  1  -0.636725  0  -0.078113  -0.114376  0  1.5115  0
