# generated using pymatgen
data_ZnH14C24N5O8
_symmetry_space_group_name_H-M   'P 1'
_cell_length_a   17.15113672
_cell_length_b   17.81094223
_cell_length_c   19.23765936
_cell_angle_alpha   85.96743645
_cell_angle_beta   89.97956261
_cell_angle_gamma   89.94561599
_symmetry_Int_Tables_number   1
_chemical_formula_structural   ZnH14C24N5O8
_chemical_formula_sum   'Zn2 H28 C48 N10 O16'
_cell_volume   5862.12776730
_cell_formula_units_Z   2
loop_
 _symmetry_equiv_pos_site_id
 _symmetry_equiv_pos_as_xyz
  1  'x, y, z'
loop_
 _atom_site_type_symbol
 _atom_site_label
 _atom_site_symmetry_multiplicity
 _atom_site_fract_x
 _atom_site_fract_y
 _atom_site_fract_z
 _atom_site_occupancy
 _atom_site_pbe_bader_charge
 _atom_site_pbe_bader_spin_density
 _atom_site_pbe_cm5_charge
 _atom_site_pbe_ddec_charge
 _atom_site_pbe_ddec_spin_density
 _atom_site_pbe_ddec_sum_bond_order
 _atom_site_pbe_magmom
Zn  Zn0  1  0.58433058  0.50175088  0.49771814  1  1.310196  0  0.668102  0.862849  0  2.284508  0
Zn  Zn1  1  0.41447933  0.50305366  0.49862207  1  1.324718  0  0.669439  0.861095  0  2.301957  0
H  H2  1  0.62124635  0.49180270  0.27987119  1  0.124964  0  0.099517  0.113711  0  1.044025  0
H  H3  1  0.37471072  0.87300395  0.54856274  1  0.041102  0  0.095906  0.111091  0  1.015038  0
H  H4  1  0.62571855  0.87976646  0.54439316  1  0.062066  0  0.096334  0.111692  0  1.014217  0
H  H5  1  0.37543237  0.12327350  0.51628189  1  0.042403  0  0.095652  0.111881  0  1.014744  0
H  H6  1  0.86715642  0.54988237  0.39059223  1  0.125039  0  0.12805  0.145404  0  0.965262  0
H  H7  1  0.13036983  0.45593536  0.60436528  1  0.141609  0  0.127371  0.145283  0  0.966213  0
H  H8  1  0.86868282  0.45375986  0.60353813  1  0.105318  0  0.126921  0.143788  0  0.966133  0
H  H9  1  0.13228037  0.54619967  0.38958345  1  0.118593  0  0.127797  0.145367  0  0.964881  0
H  H10  1  0.69420009  0.23167579  0.50742233  1  0.456576  0  0.305233  0.298756  0  0.944017  0
H  H11  1  0.64764745  0.31902892  0.49006494  1  0.495578  0  0.292212  0.313234  0  1.001222  0
H  H12  1  0.31227389  0.75978043  0.53602998  1  0.428495  0  0.306556  0.299933  0  0.943511  0
H  H13  1  0.36976951  0.50121284  0.72367876  1  0.127185  0  0.09991  0.114158  0  1.044526  0
H  H14  1  0.36211373  0.67670145  0.51857027  1  0.51763  0  0.292293  0.311853  0  1.003264  0
H  H15  1  0.69452284  0.76799891  0.53717813  1  0.430996  0  0.309344  0.303979  0  0.943877  0
H  H16  1  0.64826098  0.68081458  0.52461025  1  0.498016  0  0.295027  0.317782  0  0.997684  0
H  H17  1  0.31289785  0.23824528  0.49997134  1  0.431696  0  0.303974  0.296475  0  0.945567  0
H  H18  1  0.36232253  0.32420832  0.49264475  1  0.48453  0  0.291643  0.311449  0  1.002199  0
H  H19  1  0.64742917  0.64434049  0.35064330  1  0.633216  0  0.3632  0.403437  0  0.814462  0
H  H20  1  0.34611504  0.35994059  0.65086195  1  0.640907  0  0.363026  0.40206  0  0.817528  0
H  H21  1  0.64879964  0.36033023  0.64709769  1  0.640254  0  0.363699  0.404218  0  0.815489  0
H  H22  1  0.34962440  0.64376647  0.34931113  1  0.64736  0  0.363133  0.402231  0  0.8146  0
H  H23  1  0.62045140  0.49289787  0.71843109  1  0.136259  0  0.097908  0.110286  0  1.055024  0
H  H24  1  0.37049610  0.48347963  0.27731727  1  0.131645  0  0.100484  0.115653  0  1.036391  0
H  H25  1  0.62423270  0.47047278  0.15337169  1  0.128696  0  0.107198  0.107785  0  1.006279  0
H  H26  1  0.37292391  0.48437459  0.85318987  1  0.096242  0  0.106844  0.107719  0  1.007699  0
H  H27  1  0.62386250  0.47770391  0.84787125  1  0.108046  0  0.106882  0.107909  0  1.006985  0
H  H28  1  0.37328359  0.46280349  0.15057864  1  0.094725  0  0.106771  0.106734  0  1.010024  0
H  H29  1  0.62645833  0.11832115  0.52196274  1  0.047831  0  0.095477  0.111817  0  1.013907  0
C  C30  1  0.50613565  0.64784079  0.51227469  1  1.494889  0  0.206014  0.612467  0  4.127838  0
C  C31  1  0.15975784  0.47563735  0.55637165  1  0.080515  0  -0.058452  -0.177632  0  3.856803  0
C  C32  1  0.83932088  0.47456237  0.55586097  1  -0.029001  0  -0.05854  -0.17738  0  3.860409  0
C  C33  1  0.16078761  0.52653198  0.43801661  1  -0.029399  0  -0.057966  -0.175647  0  3.854086  0
C  C34  1  0.75739303  0.53006005  0.44209362  1  0.514793  0  0.132692  0.141894  0  3.923859  0
C  C35  1  0.24086939  0.47416405  0.55398500  1  0.441544  0  0.131965  0.140417  0  3.921324  0
C  C36  1  0.75826722  0.47294068  0.55311642  1  0.540456  0  0.131777  0.13837  0  3.931482  0
C  C37  1  0.24179595  0.52858575  0.44189028  1  0.519791  0  0.132247  0.140228  0  3.920981  0
C  C38  1  0.88180317  0.50160624  0.49689246  1  0.129658  0  0.024574  0.188567  0  4.113459  0
C  C39  1  0.11732489  0.50104631  0.49687347  1  0.147197  0  0.024208  0.18725  0  4.115298  0
C  C40  1  0.96400892  0.50148500  0.49652204  1  -0.073433  0  -0.020832  -0.081463  0  4.060969  0
C  C41  1  0.50589901  0.35502008  0.49410787  1  1.486191  0  0.206244  0.611257  0  4.129735  0
C  C42  1  0.03512963  0.50117459  0.49647517  1  -0.293185  0  -0.020179  -0.07953  0  4.061655  0
C  C43  1  0.49381009  0.50284697  0.36273375  1  1.56167  0  0.214535  0.593022  0  4.156923  0
C  C44  1  0.49273424  0.49583328  0.63453870  1  1.530477  0  0.213912  0.592785  0  4.157865  0
C  C45  1  0.56708661  0.48571452  0.25140112  1  -0.009066  0  -0.086778  -0.092567  0  3.960997  0
C  C46  1  0.42521427  0.49526438  0.75094921  1  -0.032323  0  -0.087941  -0.097403  0  3.969543  0
C  C47  1  0.56634177  0.49067716  0.74797839  1  0.004404  0  -0.090085  -0.099169  0  3.972047  0
C  C48  1  0.42583878  0.48094493  0.24993345  1  -0.119525  0  -0.085523  -0.092175  0  3.963321  0
C  C49  1  0.56886699  0.47391082  0.18074765  1  -0.099133  0  -0.081184  -0.103378  0  3.955475  0
C  C50  1  0.42690842  0.48636147  0.82328098  1  -0.070138  0  -0.082457  -0.104588  0  3.962108  0
C  C51  1  0.56840661  0.48250351  0.82032460  1  -0.066981  0  -0.081992  -0.103547  0  3.958774  0
C  C52  1  0.50431441  0.27203368  0.49746010  1  -0.015503  0  -0.052053  -0.296215  0  3.853641  0
C  C53  1  0.42728593  0.46946433  0.17925843  1  -0.004546  0  -0.08151  -0.102841  0  3.958601  0
C  C54  1  0.49887812  0.46600891  0.14389409  1  0.02305  0  -0.004812  0.015461  0  4.006151  0
C  C55  1  0.49850187  0.47795838  0.85859886  1  -0.000749  0  -0.004948  0.015663  0  4.00783  0
C  C56  1  0.49563665  0.48980956  0.28653427  1  -0.020121  0  -0.017721  -0.031778  0  3.958335  0
C  C57  1  0.49477511  0.49488519  0.71257269  1  -0.03202  0  -0.017994  -0.030849  0  3.962471  0
C  C58  1  0.49981382  0.46265720  0.93445775  1  0.916206  0  0.239193  0.248396  0  3.992988  0
C  C59  1  0.50005841  0.45562387  0.06900984  1  0.920266  0  0.240968  0.250088  0  3.992146  0
C  C60  1  0.57230053  0.15029721  0.51683810  1  0.037118  0  -0.128606  -0.312849  0  3.957009  0
C  C61  1  0.43037996  0.84403240  0.54459939  1  -0.018527  0  -0.126991  -0.309701  0  3.951255  0
C  C62  1  0.57171046  0.84777914  0.54249959  1  -0.002076  0  -0.127066  -0.309207  0  3.949519  0
C  C63  1  0.50415583  0.72770410  0.52761133  1  0.011917  0  -0.051689  -0.29657  0  3.853556  0
C  C64  1  0.43092997  0.15311322  0.51363607  1  -0.005307  0  -0.129065  -0.313443  0  3.959513  0
C  C65  1  0.57514852  0.22872331  0.50218558  1  0.44811  0  0.103713  0.327922  0  4.108692  0
C  C66  1  0.43140142  0.76628120  0.53600078  1  0.44612  0  0.10573  0.32982  0  4.107191  0
C  C67  1  0.57486293  0.77007124  0.53377011  1  0.438691  0  0.106501  0.33187  0  4.114009  0
C  C68  1  0.43168470  0.23162556  0.50010966  1  0.490879  0  0.103103  0.326718  0  4.10646  0
C  C69  1  0.71811396  0.56625208  0.37817497  1  1.58238  0  0.241797  0.550891  0  4.15155  0
C  C70  1  0.27741457  0.43849418  0.61950853  1  1.582933  0  0.242141  0.552515  0  4.153251  0
C  C71  1  0.72025699  0.43729392  0.61784629  1  1.576822  0  0.243155  0.552558  0  4.14833  0
C  C72  1  0.28000887  0.56504313  0.37754116  1  1.610845  0  0.240987  0.552158  0  4.153431  0
C  C73  1  0.50070185  0.11264289  0.52328750  1  0.016282  0  -0.005645  0.186827  0  4.208794  0
C  C74  1  0.49999399  0.88511936  0.54554773  1  0.031161  0  -0.005199  0.186342  0  4.207128  0
C  C75  1  0.49904762  0.03337514  0.53677711  1  0.180032  0  -0.047833  -0.104917  0  4.104133  0
C  C76  1  0.49850265  0.96477966  0.54473775  1  -0.529698  0  -0.048108  -0.106199  0  4.101518  0
C  C77  1  0.83844207  0.52873018  0.43847757  1  0.004687  0  -0.05796  -0.177689  0  3.856721  0
N  N78  1  0.43154337  0.44415875  0.03634751  1  -0.568094  0  -0.15817  -0.151668  0  3.226117  0
N  N79  1  0.36197137  0.26766340  0.48761299  1  -1.247226  0  -0.602068  -0.620491  0  3.335999  0
N  N80  1  0.56944686  0.45509421  0.96746210  1  -0.542405  0  -0.158158  -0.152272  0  3.220491  0
N  N81  1  0.43139621  0.44755443  0.96785953  1  -0.52722  0  -0.159046  -0.154343  0  3.22667  0
N  N82  1  0.56961537  0.45131892  0.03603666  1  -0.5468  0  -0.158939  -0.15359  0  3.217962  0
N  N83  1  0.71574495  0.50140363  0.49782479  1  -1.162951  0  -0.27663  -0.23954  0  3.304435  0
N  N84  1  0.28348996  0.50164022  0.49832163  1  -1.182543  0  -0.276449  -0.239488  0  3.299981  0
N  N85  1  0.64649521  0.26172529  0.49196617  1  -1.282638  0  -0.599566  -0.620455  0  3.350055  0
N  N86  1  0.36178549  0.72894058  0.53693309  1  -1.257557  0  -0.597284  -0.617844  0  3.344754  0
N  N87  1  0.64631840  0.73738169  0.52909515  1  -1.263101  0  -0.596161  -0.622544  0  3.368114  0
O  O88  1  0.57212942  0.61289356  0.51340200  1  -1.16096  0  -0.32121  -0.558178  0  2.38941  0
O  O89  1  0.67594223  0.62660917  0.39284878  1  -1.10719  0  -0.31075  -0.44891  0  2.298834  0
O  O90  1  0.26020094  0.45824677  0.67693641  1  -1.110275  0  -0.271141  -0.457135  0  2.096359  0
O  O91  1  0.32193115  0.37890906  0.60687056  1  -1.128625  0  -0.309445  -0.451733  0  2.313729  0
O  O92  1  0.73427598  0.45855714  0.67540740  1  -1.109091  0  -0.269499  -0.453653  0  2.089914  0
O  O93  1  0.67687647  0.37741751  0.60445967  1  -1.120353  0  -0.309475  -0.452329  0  2.322414  0
O  O94  1  0.26545560  0.54582617  0.31939527  1  -1.119788  0  -0.271973  -0.459089  0  2.095034  0
O  O95  1  0.32329392  0.62474907  0.39224914  1  -1.129402  0  -0.312785  -0.451856  0  2.293541  0
O  O96  1  0.44164012  0.39069902  0.50228106  1  -1.18207  0  -0.322141  -0.566339  0  2.410697  0
O  O97  1  0.57158322  0.38968076  0.48550129  1  -1.165503  0  -0.320533  -0.554188  0  2.375847  0
O  O98  1  0.44214892  0.61518132  0.49674279  1  -1.181226  0  -0.32391  -0.569552  0  2.406457  0
O  O99  1  0.55845065  0.51628524  0.39217804  1  -1.175855  0  -0.320784  -0.567721  0  2.368678  0
O  O100  1  0.42634529  0.50455372  0.60499942  1  -1.167869  0  -0.318044  -0.55329  0  2.354336  0
O  O101  1  0.55720333  0.48560377  0.60354473  1  -1.175225  0  -0.319862  -0.567371  0  2.369657  0
O  O102  1  0.42730478  0.50000324  0.39270950  1  -1.164233  0  -0.318305  -0.556785  0  2.36937  0
O  O103  1  0.73028322  0.54510491  0.32024766  1  -1.112042  0  -0.269904  -0.456007  0  2.091999  0
