# generated using pymatgen
data_Ni2H26C39N4(O5F3)2
_symmetry_space_group_name_H-M   'P 1'
_cell_length_a   8.00737727
_cell_length_b   11.21641370
_cell_length_c   24.24986219
_cell_angle_alpha   89.99992238
_cell_angle_beta   90.00008278
_cell_angle_gamma   90.00034308
_symmetry_Int_Tables_number   1
_chemical_formula_structural   Ni2H26C39N4(O5F3)2
_chemical_formula_sum   'Ni4 H52 C78 N8 O20 F12'
_cell_volume   2177.97848219
_cell_formula_units_Z   2
loop_
 _symmetry_equiv_pos_site_id
 _symmetry_equiv_pos_as_xyz
  1  'x, y, z'
loop_
 _atom_site_type_symbol
 _atom_site_label
 _atom_site_symmetry_multiplicity
 _atom_site_fract_x
 _atom_site_fract_y
 _atom_site_fract_z
 _atom_site_occupancy
 _atom_site_pbe_bader_charge
 _atom_site_pbe_bader_spin_density
 _atom_site_pbe_cm5_charge
 _atom_site_pbe_ddec_charge
 _atom_site_pbe_ddec_spin_density
 _atom_site_pbe_ddec_sum_bond_order
 _atom_site_pbe_magmom
Ni  Ni0  1  0.09088878  0.52733871  0.18596256  1  1.193201  1.558321  0.655774  0.810521  1.771686  2.510156  1.546
Ni  Ni1  1  0.90911308  0.52734222  0.81403726  1  1.193226  1.558322  0.655791  0.810603  1.771692  2.51004  1.546
Ni  Ni2  1  0.59088650  0.47265902  0.31403642  1  1.193268  1.55832  0.655796  0.810584  1.771685  2.510004  1.546
Ni  Ni3  1  0.40910866  0.47265808  0.68596220  1  1.193189  1.558321  0.655742  0.810546  1.771693  2.510037  1.546
H  H4  1  0.61491941  0.25550161  0.18559824  1  0.108509  5.7e-05  0.096645  0.094412  -2.5e-05  1.046874  0.0
H  H5  1  0.63724060  0.12186904  0.10561804  1  0.071433  3.1e-05  0.090741  0.097244  9e-06  1.043825  0.0
H  H6  1  0.33041436  0.36552751  0.01199509  1  0.075049  0.000166  0.107286  0.120967  7.7e-05  0.988171  0.0
H  H7  1  0.30038775  0.72009500  0.23443417  1  0.131527  0.001688  0.118965  0.093539  0.00062  1.029969  0.001
H  H8  1  0.31116499  0.94255561  0.23668896  1  0.078775  0.000931  0.102031  0.105602  0.000421  1.030742  0.0
H  H9  1  0.89381620  0.94156651  0.12312557  1  0.074107  0.000984  0.107809  0.11582  0.00047  1.011034  0.0
H  H10  1  0.90714424  0.72072946  0.12445101  1  0.115397  0.001759  0.129396  0.107319  0.000608  0.976017  0.001
H  H11  1  0.18626926  0.11006103  0.26772359  1  0.079027  0.001073  0.106718  0.111065  0.000507  1.011753  0.0
H  H12  1  0.17175606  0.33096494  0.26811445  1  0.114156  0.001885  0.123431  0.103183  0.000661  1.004267  0.001
H  H13  1  0.99671627  0.34082393  0.10775333  1  0.160417  0.001591  0.120802  0.09797  0.000459  1.005436  0.001
H  H14  1  0.00039160  0.11948814  0.10000136  1  0.106868  0.000881  0.105044  0.114115  0.000427  1.018611  0.0
H  H15  1  0.81286658  0.51287672  0.13192904  1  0.608649  0.00018  0.332516  0.414516  8.2e-05  0.852297  0.0
H  H16  1  0.75403711  0.48915145  0.19374546  1  0.656905  0.000339  0.296376  0.38731  0.000358  0.957025  0.001
H  H17  1  0.38508268  0.25550287  0.81440134  1  0.108526  5.7e-05  0.096688  0.094492  -2.5e-05  1.046784  0.0
H  H18  1  0.36276538  0.12186908  0.89438163  1  0.071674  3.1e-05  0.090741  0.09723  9e-06  1.04386  0.0
H  H19  1  0.66958865  0.36553127  0.98800443  1  0.075023  0.000166  0.10729  0.120964  7.7e-05  0.988155  0.0
H  H20  1  0.69961447  0.72009775  0.76556553  1  0.131417  0.001688  0.118922  0.093427  0.00062  1.02991  0.001
H  H21  1  0.68883784  0.94255832  0.76331102  1  0.078754  0.000931  0.102039  0.105613  0.000421  1.030729  0.0
H  H22  1  0.10617913  0.94157263  0.87687688  1  0.074077  0.000984  0.10778  0.115785  0.00047  1.010993  0.0
H  H23  1  0.09285299  0.72073642  0.87555116  1  0.115186  0.001759  0.129376  0.107218  0.000607  0.976129  0.001
H  H24  1  0.81373037  0.11006616  0.73227649  1  0.07911  0.001073  0.106691  0.11106  0.000508  1.011598  0.0
H  H25  1  0.82824416  0.33097103  0.73188673  1  0.114204  0.001885  0.123415  0.103113  0.000661  1.004317  0.001
H  H26  1  0.00328903  0.34082868  0.89224703  1  0.16035  0.001591  0.120739  0.097853  0.000459  1.005511  0.001
H  H27  1  0.99960811  0.11949179  0.89999873  1  0.106857  0.000881  0.105052  0.114098  0.000427  1.018642  0.0
H  H28  1  0.18713516  0.51288232  0.86807039  1  0.608676  0.00018  0.332499  0.414497  8.2e-05  0.852375  0.0
H  H29  1  0.24596693  0.48915481  0.80625480  1  0.656911  0.000339  0.2964  0.387362  0.000358  0.956953  0.001
H  H30  1  0.11492030  0.74450246  0.31440241  1  0.108508  5.7e-05  0.096677  0.094459  -2.5e-05  1.046814  0.0
H  H31  1  0.13723920  0.87813512  0.39438221  1  0.071576  3.1e-05  0.090735  0.097213  9e-06  1.043813  0.0
H  H32  1  0.83041541  0.63447392  0.48800525  1  0.075044  0.000166  0.107282  0.12095  7.7e-05  0.988187  0.0
H  H33  1  0.80039114  0.27990452  0.26556533  1  0.131315  0.001688  0.118969  0.09348  0.00062  1.02993  0.001
H  H34  1  0.81116902  0.05744307  0.26331137  1  0.078744  0.000931  0.102024  0.105574  0.000421  1.030716  0.0
H  H35  1  0.39382287  0.05842984  0.37687521  1  0.074136  0.000984  0.107816  0.115833  0.00047  1.011023  0.0
H  H36  1  0.40714901  0.27926517  0.37554936  1  0.115261  0.001759  0.129374  0.107249  0.000607  0.976147  0.001
H  H37  1  0.68627261  0.88993532  0.23227791  1  0.079076  0.001073  0.106707  0.111044  0.000507  1.011791  0.0
H  H38  1  0.67175382  0.66903135  0.23188663  1  0.114217  0.001885  0.123411  0.103084  0.000661  1.00429  0.001
H  H39  1  0.49671678  0.65917286  0.39224751  1  0.160345  0.001591  0.120769  0.097908  0.000459  1.005444  0.001
H  H40  1  0.50039433  0.88050920  0.40000006  1  0.10685  0.000881  0.10504  0.114119  0.000427  1.018571  0.0
H  H41  1  0.31286930  0.48711394  0.36806758  1  0.608829  0.00018  0.332435  0.41432  8.2e-05  0.852457  0.0
H  H42  1  0.25403602  0.51084342  0.30625236  1  0.656862  0.00034  0.296475  0.387543  0.000358  0.956737  0.001
H  H43  1  0.88507463  0.74449287  0.68559852  1  0.108515  5.7e-05  0.096615  0.094404  -2.5e-05  1.046861  0.0
H  H44  1  0.86275810  0.87813102  0.60561946  1  0.071429  3.1e-05  0.09073  0.097201  9e-06  1.043857  0.0
H  H45  1  0.16958235  0.63447336  0.51199533  1  0.075088  0.000166  0.107271  0.120946  7.7e-05  0.98821  0.0
H  H46  1  0.19961240  0.27990076  0.73443465  1  0.131407  0.001688  0.118947  0.093443  0.00062  1.029877  0.001
H  H47  1  0.18883267  0.05743926  0.73668834  1  0.078715  0.000931  0.102054  0.105622  0.000421  1.030739  0.0
H  H48  1  0.60617882  0.05842905  0.62312408  1  0.074125  0.000984  0.107813  0.115845  0.00047  1.010957  0.0
H  H49  1  0.59285204  0.27926609  0.62445062  1  0.115255  0.001759  0.129366  0.107233  0.000607  0.97614  0.001
H  H50  1  0.31372854  0.88993285  0.76772292  1  0.079129  0.001073  0.106714  0.111073  0.000507  1.011603  0.0
H  H51  1  0.32824423  0.66902894  0.76811269  1  0.114124  0.001884  0.123426  0.103137  0.000661  1.004298  0.001
H  H52  1  0.50328243  0.65917345  0.60775141  1  0.160339  0.001591  0.120776  0.097927  0.000459  1.005442  0.001
H  H53  1  0.49960548  0.88050980  0.60000078  1  0.106836  0.000881  0.10504  0.114115  0.000427  1.018646  0.0
H  H54  1  0.68713348  0.48712060  0.63192979  1  0.608676  0.00018  0.332513  0.41451  8.2e-05  0.852327  0.0
H  H55  1  0.74596071  0.51084569  0.69374541  1  0.656933  0.000338  0.296394  0.387336  0.000358  0.95699  0.001
C  C56  1  0.37614382  0.41558805  0.09590071  1  0.037487  0.001735  0.000243  -0.006466  0.000469  3.900678  0.001
C  C57  1  0.46000272  0.38449711  0.14491216  1  -0.018837  0.003966  -0.024605  -0.090821  0.002082  3.988855  0.003
C  C58  1  0.55290161  0.27864530  0.14710893  1  -0.116806  0.00109  -0.09415  -0.08566  0.000545  4.013589  0.001
C  C59  1  0.56592045  0.20382914  0.10178993  1  -0.001613  -0.000661  -0.111905  -0.161328  -0.000769  4.031527  0.0
C  C60  1  0.48778503  0.23544967  0.05218426  1  -0.095706  0.001629  -0.018652  0.086791  0.000895  3.966636  0.001
C  C61  1  0.39178024  0.33980635  0.05027327  1  0.004314  -0.000207  -0.085746  -0.149505  -0.000317  3.91744  0.0
C  C62  1  0.27749027  0.53084840  0.08916701  1  1.617741  0.004988  0.192077  0.568992  0.003586  4.264492  0.003
C  C63  1  0.45581075  0.45959501  0.19560273  1  1.511669  0.001082  0.218274  0.579746  0.000712  4.160421  0.001
C  C64  1  0.34124314  0.07622563  0.00022027  1  1.723966  8.2e-05  0.303214  0.67693  5.1e-05  3.964357  0.0
C  C65  1  0.21165350  0.77377867  0.21120101  1  0.485299  -0.003761  0.051972  0.102498  -0.004388  3.929598  -0.003
C  C66  1  0.21582517  0.89754551  0.21228180  1  -0.061366  0.003924  -0.085285  -0.176653  0.002147  3.942328  0.003
C  C67  1  0.09910801  0.96269268  0.18136446  1  0.059879  -0.00593  0.007807  0.09956  -0.006693  3.999884  -0.004
C  C68  1  0.98693270  0.89729762  0.14873565  1  -0.029886  0.004218  -0.079911  -0.175622  0.002344  3.937036  0.004
C  C69  1  0.99212240  0.77339528  0.14954559  1  0.504646  -0.003843  0.063025  0.117522  -0.004563  3.910767  -0.002
C  C70  1  0.09380053  0.09402375  0.18351774  1  -0.121569  -0.006674  0.010154  0.098451  -0.007432  3.98734  -0.004
C  C71  1  0.14330524  0.15674704  0.23094315  1  0.019209  0.004013  -0.082686  -0.17394  0.002214  3.939453  0.003
C  C72  1  0.13459879  0.28044253  0.23175590  1  0.480548  -0.003964  0.049946  0.101123  -0.004774  3.927571  -0.003
C  C73  1  0.03302479  0.28507583  0.14252526  1  0.449676  -0.004711  0.048707  0.095687  -0.005616  3.949008  -0.003
C  C74  1  0.03699810  0.16169595  0.13860899  1  -0.025894  0.004156  -0.080803  -0.162801  0.002285  3.927001  0.003
C  C75  1  0.62385586  0.41559097  0.90409918  1  0.036825  0.001736  0.00017  -0.006545  0.000469  3.900572  0.001
C  C76  1  0.53999795  0.38449981  0.85508735  1  -0.018877  0.003965  -0.024554  -0.090812  0.002082  3.988934  0.003
C  C77  1  0.44710067  0.27864671  0.85289147  1  -0.116753  0.00109  -0.094246  -0.085819  0.000546  4.013654  0.001
C  C78  1  0.43408246  0.20383126  0.89820886  1  -0.001661  -0.000661  -0.1119  -0.16132  -0.000769  4.031621  0.0
C  C79  1  0.51221939  0.23545020  0.94781451  1  -0.095976  0.001629  -0.018672  0.086764  0.000895  3.966597  0.001
C  C80  1  0.60822255  0.33980907  0.94972668  1  0.005136  -0.000207  -0.085741  -0.149474  -0.000316  3.917304  0.0
C  C81  1  0.72250413  0.53085974  0.91083323  1  1.617247  0.004989  0.192093  0.569072  0.003588  4.264689  0.003
C  C82  1  0.54419054  0.45959877  0.80439673  1  1.511664  0.001082  0.218273  0.579819  0.000712  4.160414  0.001
C  C83  1  0.65875995  0.07622574  0.99977984  1  1.723978  8.2e-05  0.303134  0.676876  5.1e-05  3.964463  0.0
C  C84  1  0.78835042  0.77378263  0.78879949  1  0.485514  -0.00376  0.052062  0.10283  -0.004388  3.9294  -0.003
C  C85  1  0.78417478  0.89754945  0.78771820  1  -0.061377  0.003924  -0.0853  -0.176737  0.002147  3.942144  0.003
C  C86  1  0.90089249  0.96269704  0.81863674  1  0.059842  -0.00593  0.007825  0.09943  -0.006693  3.999954  -0.004
C  C87  1  0.01306350  0.89730431  0.85126559  1  -0.029975  0.004218  -0.079861  -0.175504  0.002343  3.936963  0.004
C  C88  1  0.00787777  0.77340106  0.85045614  1  0.504932  -0.003843  0.063067  0.117712  -0.004563  3.910738  -0.002
C  C89  1  0.90619646  0.09402724  0.81648195  1  -0.121022  -0.006675  0.010056  0.098481  -0.007433  3.987204  -0.004
C  C90  1  0.85669602  0.15675403  0.76905773  1  0.018689  0.004012  -0.082591  -0.173944  0.002213  3.939348  0.003
C  C91  1  0.86540101  0.28044510  0.76824490  1  0.480452  -0.003964  0.049992  0.101286  -0.004773  3.927495  -0.003
C  C92  1  0.96697630  0.28508125  0.85747512  1  0.449182  -0.004712  0.048776  0.095869  -0.005616  3.949067  -0.003
C  C93  1  0.96300196  0.16170134  0.86139230  1  -0.025888  0.004157  -0.080777  -0.162818  0.002286  3.926868  0.003
C  C94  1  0.87614785  0.58441180  0.40409965  1  0.037425  0.001734  0.000258  -0.006402  0.000469  3.900616  0.001
C  C95  1  0.96000555  0.61550398  0.35508866  1  -0.018755  0.003967  -0.024596  -0.090744  0.002082  3.988762  0.003
C  C96  1  0.05290372  0.72135673  0.35289169  1  -0.116699  0.00109  -0.094233  -0.085855  0.000546  4.013634  0.001
C  C97  1  0.06592213  0.79617294  0.39821110  1  -0.001872  -0.000661  -0.11189  -0.1612  -0.000769  4.031548  0.0
C  C98  1  0.98778700  0.76455422  0.44781574  1  -0.095778  0.001629  -0.018723  0.086607  0.000895  3.96673  0.001
C  C99  1  0.89178135  0.66019534  0.44972710  1  0.004351  -0.000207  -0.085699  -0.149417  -0.000316  3.917434  0.0
C  C100  1  0.77749086  0.46915192  0.41083001  1  1.618036  0.004988  0.192028  0.568868  0.003585  4.264637  0.003
C  C101  1  0.95580525  0.54040518  0.30439767  1  1.511678  0.001082  0.218289  0.579703  0.000712  4.160462  0.001
C  C102  1  0.84124041  0.92377674  0.49978049  1  1.724022  8.2e-05  0.303217  0.676899  5.1e-05  3.964524  0.0
C  C103  1  0.71165530  0.22621691  0.28879968  1  0.485505  -0.00376  0.05201  0.102649  -0.004387  3.929604  -0.003
C  C104  1  0.71582843  0.10245365  0.28771889  1  -0.061411  0.003923  -0.085294  -0.176648  0.002147  3.942326  0.003
C  C105  1  0.59911335  0.03730419  0.31863617  1  0.059874  -0.00593  0.007783  0.099457  -0.006693  3.999982  -0.004
C  C106  1  0.48693714  0.10269735  0.35126559  1  -0.029931  0.004218  -0.07989  -0.175608  0.002344  3.936857  0.004
C  C107  1  0.49212537  0.22660149  0.35045524  1  0.504872  -0.003843  0.063077  0.117668  -0.004563  3.910643  -0.002
C  C108  1  0.59380437  0.90597399  0.31648331  1  -0.121565  -0.006673  0.010092  0.098479  -0.007431  3.987113  -0.004
C  C109  1  0.64330711  0.84325180  0.26905709  1  0.019214  0.004013  -0.082636  -0.173909  0.002214  3.939302  0.003
C  C110  1  0.63459712  0.71955449  0.26824475  1  0.480531  -0.003964  0.049985  0.1013  -0.004774  3.927433  -0.003
C  C111  1  0.53302471  0.71492076  0.35747493  1  0.449817  -0.004711  0.048742  0.095808  -0.005615  3.949073  -0.003
C  C112  1  0.53700157  0.83829977  0.36139161  1  -0.025997  0.004156  -0.080718  -0.162797  0.002286  3.926847  0.003
C  C113  1  0.12384824  0.58440901  0.59589932  1  0.037087  0.001735  0.000178  -0.00653  0.00047  3.900421  0.001
C  C114  1  0.03999081  0.61549713  0.64491194  1  -0.018561  0.003966  -0.024544  -0.090775  0.002082  3.988618  0.003
C  C115  1  0.94709476  0.72135198  0.64710843  1  -0.1169  0.001091  -0.094172  -0.085726  0.000546  4.01353  0.001
C  C116  1  0.93407448  0.79616827  0.60179103  1  -0.001531  -0.000661  -0.111914  -0.161278  -0.000769  4.031574  0.0
C  C117  1  0.01221560  0.76455376  0.55218517  1  -0.095834  0.001629  -0.018658  0.086758  0.000895  3.966574  0.001
C  C118  1  0.10821288  0.66019262  0.55027387  1  0.00443  -0.000207  -0.085718  -0.149431  -0.000317  3.917432  0.0
C  C119  1  0.22250053  0.46914512  0.58916779  1  1.617637  0.004987  0.192047  0.568948  0.003585  4.264635  0.003
C  C120  1  0.04418798  0.54039997  0.69560297  1  1.511818  0.001082  0.218292  0.579703  0.000712  4.160502  0.001
C  C121  1  0.15875727  0.92377884  0.50022115  1  1.724079  8.2e-05  0.303199  0.676825  5.1e-05  3.964484  0.0
C  C122  1  0.28834655  0.22621538  0.71120074  1  0.485448  -0.00376  0.052047  0.10275  -0.004387  3.929468  -0.003
C  C123  1  0.28417238  0.10245210  0.71228161  1  -0.061391  0.003923  -0.085282  -0.176665  0.002147  3.942336  0.003
C  C124  1  0.40088941  0.03730234  0.68136355  1  0.059874  -0.00593  0.007762  0.099405  -0.006693  3.999984  -0.004
C  C125  1  0.51306368  0.10269786  0.64873533  1  -0.029926  0.004218  -0.079915  -0.175673  0.002343  3.936923  0.004
C  C126  1  0.50787648  0.22660109  0.64954519  1  0.5049  -0.003844  0.063138  0.117777  -0.004563  3.910717  -0.002
C  C127  1  0.40619441  0.90597216  0.68351751  1  -0.121021  -0.006675  0.010089  0.098553  -0.007433  3.987046  -0.004
C  C128  1  0.35669364  0.84324695  0.73094171  1  0.018693  0.004011  -0.082606  -0.173955  0.002213  3.939346  0.003
C  C129  1  0.36539885  0.71955413  0.73175495  1  0.48056  -0.003965  0.050009  0.101293  -0.004774  3.927415  -0.003
C  C130  1  0.46697123  0.71492287  0.64252437  1  0.449697  -0.00471  0.048776  0.095811  -0.005614  3.949172  -0.003
C  C131  1  0.46299790  0.83829831  0.63860678  1  -0.025957  0.004157  -0.080776  -0.162884  0.002286  3.926889  0.003
C  C132  1  0.50000169  0.15764358  0.99999998  1  0.02934  8e-06  -0.009337  -0.26572  -3.2e-05  3.834676  0.0
C  C133  1  0.99999583  0.84235853  0.50000134  1  0.029199  8e-06  -0.009258  -0.265533  -3.2e-05  3.834466  0.0
N  N134  1  0.09966770  0.71214112  0.18130392  1  -1.193264  0.06621  -0.313919  -0.197721  0.038702  3.525984  0.059
N  N135  1  0.08085727  0.34432386  0.18821871  1  -1.195597  0.064589  -0.328385  -0.242912  0.037616  3.608774  0.059
N  N136  1  0.90033321  0.71214637  0.81869620  1  -1.193149  0.066208  -0.31401  -0.198015  0.038701  3.526091  0.059
N  N137  1  0.91914556  0.34432921  0.81178205  1  -1.195217  0.06459  -0.328453  -0.243051  0.037617  3.608709  0.059
N  N138  1  0.59967139  0.28785665  0.31869589  1  -1.193129  0.066209  -0.313976  -0.197868  0.038701  3.525999  0.059
N  N139  1  0.58085276  0.65567293  0.31178192  1  -1.195762  0.064588  -0.328442  -0.243061  0.037616  3.608767  0.059
N  N140  1  0.40032973  0.28785480  0.68130450  1  -1.193205  0.066206  -0.314055  -0.198006  0.038701  3.526161  0.059
N  N141  1  0.41914268  0.65567115  0.68821618  1  -1.195667  0.064589  -0.328514  -0.243099  0.037616  3.608743  0.059
O  O142  1  0.35186076  0.61860925  0.07064359  1  -1.122333  0.03271  -0.327777  -0.500759  0.017545  2.001966  0.027
O  O143  1  0.11973075  0.52447345  0.10240457  1  -1.146444  0.069961  -0.354977  -0.612813  0.037716  2.286823  0.06
O  O144  1  0.33641867  0.52953956  0.20612068  1  -1.140392  0.071784  -0.293717  -0.517035  0.039818  2.448446  0.066
O  O145  1  0.58166347  0.44883243  0.22821944  1  -1.151143  0.068573  -0.307955  -0.562  0.038501  2.442103  0.062
O  O146  1  0.83339782  0.53576727  0.17005667  1  -1.215993  0.055007  -0.556281  -0.745428  0.03092  2.198599  0.048
O  O147  1  0.64814186  0.61860953  0.92935576  1  -1.121965  0.032695  -0.327697  -0.500665  0.017537  2.00254  0.027
O  O148  1  0.88027109  0.52448016  0.89759484  1  -1.14641  0.069979  -0.355003  -0.612885  0.037727  2.286614  0.06
O  O149  1  0.66358196  0.52954297  0.79387915  1  -1.140391  0.071784  -0.293682  -0.517037  0.039817  2.448505  0.066
O  O150  1  0.41833649  0.44883575  0.77177961  1  -1.151119  0.068569  -0.307972  -0.562034  0.0385  2.442007  0.062
O  O151  1  0.16660536  0.53577289  0.82994273  1  -1.216054  0.055008  -0.556291  -0.745472  0.030921  2.198553  0.048
O  O152  1  0.85186570  0.38138514  0.42935181  1  -1.122288  0.03272  -0.327781  -0.500768  0.017551  2.001788  0.027
O  O153  1  0.61973384  0.47552708  0.39759443  1  -1.146774  0.069953  -0.354967  -0.612756  0.037714  2.287107  0.06
O  O154  1  0.83642252  0.47046547  0.29387925  1  -1.140387  0.071773  -0.293676  -0.516972  0.039811  2.44866  0.066
O  O155  1  0.08166382  0.55116971  0.27177912  1  -1.151102  0.068582  -0.308033  -0.562101  0.038507  2.44199  0.062
O  O156  1  0.33339395  0.46422348  0.32994037  1  -1.216138  0.055013  -0.556312  -0.745448  0.030923  2.198435  0.048
O  O157  1  0.14813370  0.38138699  0.57064233  1  -1.122023  0.032709  -0.327724  -0.500695  0.017545  2.002265  0.027
O  O158  1  0.38026385  0.47552359  0.60240419  1  -1.146664  0.069972  -0.354942  -0.612769  0.037722  2.286734  0.06
O  O159  1  0.16357512  0.47045718  0.70612019  1  -1.140386  0.071779  -0.293691  -0.516969  0.039815  2.448454  0.066
O  O160  1  0.91833449  0.55116549  0.72822069  1  -1.151167  0.068574  -0.308015  -0.562024  0.038502  2.44205  0.062
O  O161  1  0.66660239  0.46422994  0.67005702  1  -1.216044  0.055009  -0.556288  -0.745447  0.030921  2.198568  0.048
F  F162  1  0.31636597  0.02454678  0.05016324  1  -0.61038  3.3e-05  -0.094768  -0.197121  1e-06  1.327733  0.0
F  F163  1  0.20126209  0.14210234  0.98902336  1  -0.619252  4.5e-05  -0.098943  -0.208224  1.8e-05  1.314985  0.0
F  F164  1  0.34653909  0.98618621  0.96242463  1  -0.616584  6.7e-05  -0.093804  -0.201182  3.3e-05  1.309946  0.0
F  F165  1  0.68363794  0.02454714  0.94983690  1  -0.610376  3.3e-05  -0.094722  -0.197071  0.0  1.327807  0.0
F  F166  1  0.79874280  0.14210238  0.01097795  1  -0.619416  4.5e-05  -0.098959  -0.208247  1.8e-05  1.314878  0.0
F  F167  1  0.65346160  0.98618733  0.03757574  1  -0.616578  6.7e-05  -0.093748  -0.201144  3.3e-05  1.309994  0.0
F  F168  1  0.81636721  0.97545638  0.44983668  1  -0.610387  3.3e-05  -0.094742  -0.197099  0.0  1.327765  0.0
F  F169  1  0.70126174  0.85790332  0.51097683  1  -0.619262  4.5e-05  -0.098955  -0.208223  1.8e-05  1.315097  0.0
F  F170  1  0.84654055  0.01381650  0.53757522  1  -0.616624  6.7e-05  -0.093805  -0.201168  3.3e-05  1.309965  0.0
F  F171  1  0.18363715  0.97545844  0.55016410  1  -0.610447  3.3e-05  -0.094751  -0.197101  1e-06  1.327806  0.0
F  F172  1  0.29874038  0.85790605  0.48902320  1  -0.619326  4.5e-05  -0.098946  -0.208228  1.8e-05  1.315069  0.0
F  F173  1  0.15345827  0.01381869  0.46242617  1  -0.616608  6.7e-05  -0.093832  -0.20116  3.3e-05  1.309927  0.0
