# generated using pymatgen
data_CdH8C8I2(N2O)2
_symmetry_space_group_name_H-M   'P 1'
_cell_length_a   4.17328113
_cell_length_b   7.79880486
_cell_length_c   20.43859213
_cell_angle_alpha   89.99958274
_cell_angle_beta   90.49179941
_cell_angle_gamma   89.99988732
_symmetry_Int_Tables_number   1
_chemical_formula_structural   CdH8C8I2(N2O)2
_chemical_formula_sum   'Cd2 H16 C16 I4 N8 O4'
_cell_volume   665.18228376
_cell_formula_units_Z   2
loop_
 _symmetry_equiv_pos_site_id
 _symmetry_equiv_pos_as_xyz
  1  'x, y, z'
loop_
 _atom_site_type_symbol
 _atom_site_label
 _atom_site_symmetry_multiplicity
 _atom_site_fract_x
 _atom_site_fract_y
 _atom_site_fract_z
 _atom_site_occupancy
 _atom_site_hle17_bader_spin_density
 _atom_site_hle17_ddec_charge
 _atom_site_hle17_ddec_spin_density
 _atom_site_hle17_ddec_sum_bond_order
 _atom_site_hle17_magmom
 _atom_site_hse06_10hf_bader_spin_density
 _atom_site_hse06_10hf_ddec_charge
 _atom_site_hse06_10hf_ddec_spin_density
 _atom_site_hse06_10hf_ddec_sum_bond_order
 _atom_site_hse06_10hf_magmom
 _atom_site_hse06_bader_spin_density
 _atom_site_hse06_ddec_charge
 _atom_site_hse06_ddec_spin_density
 _atom_site_hse06_ddec_sum_bond_order
 _atom_site_hse06_magmom
 _atom_site_pbe_bader_spin_density
 _atom_site_pbe_cm5_charge
 _atom_site_pbe_ddec_charge
 _atom_site_pbe_ddec_spin_density
 _atom_site_pbe_ddec_sum_bond_order
 _atom_site_pbe_magmom
Cd  Cd0  1  0.49999979  0.49999993  0.49999890  1  0  0.722061  0  2.068045  0  0  0.573001  0  2.49021  0  0  0.623026  0  2.459883  0  0  0.458157  0.537655  0  2.511723  0
Cd  Cd1  1  0.49999435  0.99999906  0.99999877  1  0  0.722066  0  2.068034  0  0  0.57299  0  2.490243  0  0  0.623021  0  2.459892  0  0  0.458175  0.537649  0  2.511749  0
H  H2  1  0.31315868  0.88200044  0.55789824  1  0  0.087102  0  1.00213  0  0  0.089071  0  1.080084  0  0  0.093034  0  1.078071  0  0  0.088788  0.086132  0  1.081905  0
H  H3  1  0.68686101  0.38201239  0.94211068  1  0  0.087102  0  1.001965  0  0  0.089049  0  1.079956  0  0  0.092999  0  1.077957  0  0  0.088797  0.086103  0  1.081782  0
H  H4  1  0.68685947  0.11800069  0.44210700  1  0  0.087071  0  1.001869  0  0  0.08896  0  1.079922  0  0  0.092923  0  1.077913  0  0  0.088742  0.086024  0  1.08174  0
H  H5  1  0.31315051  0.61797977  0.05788767  1  0  0.087079  0  1.002057  0  0  0.089054  0  1.07997  0  0  0.092998  0  1.077978  0  0  0.088806  0.086091  0  1.081808  0
H  H6  1  0.79643662  0.48766689  0.65525711  1  0  0.102309  0  0.964292  0  0  0.103298  0  1.039155  0  0  0.107968  0  1.034608  0  0  0.103  0.099896  0  1.042616  0
H  H7  1  0.20356069  0.98769242  0.84476068  1  0  0.102279  0  0.96455  0  0  0.10324  0  1.039425  0  0  0.107913  0  1.034883  0  0  0.102979  0.099844  0  1.042893  0
H  H8  1  0.20352882  0.51233040  0.34474786  1  0  0.102226  0  0.964313  0  0  0.1032  0  1.039219  0  0  0.107876  0  1.034665  0  0  0.102969  0.099799  0  1.042682  0
H  H9  1  0.79640986  0.01231384  0.15524040  1  0  0.102312  0  0.964377  0  0  0.103284  0  1.039247  0  0  0.10796  0  1.034703  0  0  0.102988  0.099888  0  1.04272  0
H  H10  1  0.49408198  0.09260803  0.64539102  1  0  0.102564  0  0.942139  0  0  0.111544  0  1.004411  0  0  0.11516  0  1.000494  0  0  0.115843  0.10875  0  1.007579  0
H  H11  1  0.50595520  0.59262253  0.85461201  1  0  0.102468  0  0.942093  0  0  0.111537  0  1.004303  0  0  0.115149  0  1.000389  0  0  0.11585  0.108742  0  1.007473  0
H  H12  1  0.50593417  0.90739567  0.35460931  1  0  0.102582  0  0.942049  0  0  0.111524  0  1.004379  0  0  0.115141  0  1.000463  0  0  0.115836  0.10873  0  1.00755  0
H  H13  1  0.49406566  0.40737347  0.14538933  1  0  0.102526  0  0.942153  0  0  0.111632  0  1.004292  0  0  0.115248  0  1.000378  0  0  0.115877  0.108835  0  1.007464  0
H  H14  1  0.84310128  0.99995111  0.72778041  1  0  0.315371  0  0.921284  0  0  0.292992  0  0.986474  0  0  0.303487  0  0.977787  0  0  0.306574  0.285619  0  0.992551  0
H  H15  1  0.15691147  0.49995812  0.77222421  1  0  0.315388  0  0.921102  0  0  0.292926  0  0.98641  0  0  0.303422  0  0.977724  0  0  0.30655  0.285553  0  0.992485  0
H  H16  1  0.15689790  0.00005259  0.27222229  1  0  0.315328  0  0.921313  0  0  0.292971  0  0.986482  0  0  0.303465  0  0.977795  0  0  0.306578  0.285599  0  0.992558  0
H  H17  1  0.84308065  0.50005071  0.22777697  1  0  0.315323  0  0.921408  0  0  0.29297  0  0.986563  0  0  0.303462  0  0.977877  0  0  0.306589  0.285598  0  0.992639  0
C  C18  1  0.46012321  0.84264133  0.59952866  1  0  -0.015226  0  3.753813  0  0  -0.051137  0  4.029544  0  0  -0.057371  0  4.053458  0  0  -0.001356  -0.047405  0  4.013767  0
C  C19  1  0.53990412  0.34265302  0.90047503  1  0  -0.015111  0  3.753458  0  0  -0.050984  0  4.029257  0  0  -0.057208  0  4.053179  0  0  -0.001287  -0.047245  0  4.013483  0
C  C20  1  0.53987397  0.15736749  0.40046912  1  0  -0.015095  0  3.753533  0  0  -0.050919  0  4.029294  0  0  -0.057151  0  4.053211  0  0  -0.001239  -0.047188  0  4.013516  0
C  C21  1  0.46011007  0.65734298  0.09951991  1  0  -0.015213  0  3.753519  0  0  -0.051127  0  4.029305  0  0  -0.057346  0  4.053234  0  0  -0.00138  -0.047371  0  4.013532  0
C  C22  1  0.72616019  0.62248122  0.65325368  1  0  -0.020342  0  3.6032  0  0  -0.054667  0  3.862064  0  0  -0.05457  0  3.873812  0  0  0.044834  -0.055032  0  3.854189  0
C  C23  1  0.27383589  0.12249054  0.84675345  1  0  -0.020207  0  3.603539  0  0  -0.054505  0  3.862291  0  0  -0.054398  0  3.874042  0  0  0.044864  -0.05488  0  3.854425  0
C  C24  1  0.27382489  0.37751478  0.34674551  1  0  -0.020183  0  3.603113  0  0  -0.054499  0  3.861924  0  0  -0.054398  0  3.873669  0  0  0.044902  -0.054866  0  3.854053  0
C  C25  1  0.72614932  0.87749649  0.15324428  1  0  -0.020161  0  3.603574  0  0  -0.054553  0  3.862383  0  0  -0.054435  0  3.874114  0  0  0.044894  -0.054937  0  3.854522  0
C  C26  1  0.55835362  0.95739943  0.64651061  1  0  0.123872  0  3.664102  0  0  0.084761  0  3.922276  0  0  0.093469  0  3.937996  0  0  0.050318  0.078988  0  3.911911  0
C  C27  1  0.44166654  0.45739547  0.85349173  1  0  0.124023  0  3.664738  0  0  0.084761  0  3.922987  0  0  0.093473  0  3.938706  0  0  0.050354  0.078984  0  3.912632  0
C  C28  1  0.44166258  0.04260683  0.35348923  1  0  0.12378  0  3.664093  0  0  0.084671  0  3.922307  0  0  0.093374  0  3.938032  0  0  0.050296  0.078896  0  3.911956  0
C  C29  1  0.55832381  0.54258643  0.14650162  1  0  0.123932  0  3.663689  0  0  0.084712  0  3.921881  0  0  0.093418  0  3.937599  0  0  0.050333  0.078935  0  3.911525  0
C  C30  1  0.84733938  0.73670714  0.70341351  1  0  0.51026  0  3.856256  0  0  0.474347  0  4.135186  0  0  0.499695  0  4.138535  0  0  0.223207  0.457521  0  4.132247  0
C  C31  1  0.15268778  0.23672270  0.79659344  1  0  0.509948  0  3.856558  0  0  0.474112  0  4.135353  0  0  0.49943  0  4.138758  0  0  0.22306  0.45729  0  4.132411  0
C  C32  1  0.15265752  0.26328374  0.29658771  1  0  0.510091  0  3.856568  0  0  0.474217  0  4.135463  0  0  0.499557  0  4.138821  0  0  0.223154  0.457395  0  4.132524  0
C  C33  1  0.84731436  0.76329125  0.20340241  1  0  0.509819  0  3.856706  0  0  0.474085  0  4.135403  0  0  0.499396  0  4.138821  0  0  0.223019  0.457264  0  4.132459  0
I  I34  1  0.98206641  0.73344849  0.44876019  1  0  -0.418403  0  1.256355  0  0  -0.367463  0  1.602582  0  0  -0.38888  0  1.582599  0  0  -0.178033  -0.351847  0  1.617974  0
I  I35  1  0.01792581  0.23343915  0.05124529  1  0  -0.418406  0  1.256351  0  0  -0.367511  0  1.602649  0  0  -0.38893  0  1.582655  0  0  -0.178048  -0.351894  0  1.618036  0
I  I36  1  0.01792810  0.26655521  0.55124101  1  0  -0.418425  0  1.256396  0  0  -0.367503  0  1.60266  0  0  -0.388916  0  1.582676  0  0  -0.178042  -0.351887  0  1.618051  0
I  I37  1  0.98207588  0.76655814  0.94875594  1  0  -0.418398  0  1.256369  0  0  -0.367496  0  1.602651  0  0  -0.388911  0  1.582653  0  0  -0.178043  -0.351879  0  1.618035  0
N  N38  1  0.55008508  0.67508349  0.60330938  1  0  -0.240317  0  3.308542  0  0  -0.168156  0  3.562076  0  0  -0.179647  0  3.585808  0  0  -0.30875  -0.159641  0  3.545503  0
N  N39  1  0.44992754  0.17509798  0.89670012  1  0  -0.240443  0  3.308642  0  0  -0.168254  0  3.562098  0  0  -0.179749  0  3.585832  0  0  -0.308798  -0.159736  0  3.545525  0
N  N40  1  0.44991167  0.32492278  0.39669379  1  0  -0.240377  0  3.30837  0  0  -0.168191  0  3.561869  0  0  -0.179684  0  3.5856  0  0  -0.308776  -0.159675  0  3.545302  0
N  N41  1  0.55006956  0.82490187  0.10329864  1  0  -0.240354  0  3.308504  0  0  -0.168136  0  3.561967  0  0  -0.179626  0  3.585698  0  0  -0.308794  -0.159617  0  3.545386  0
N  N42  1  0.74819863  0.90463303  0.69649198  1  0  -0.330393  0  3.367216  0  0  -0.261364  0  3.589863  0  0  -0.281433  0  3.601287  0  0  -0.354793  -0.248066  0  3.582097  0
N  N43  1  0.25183790  0.40464058  0.80351598  1  0  -0.330354  0  3.367728  0  0  -0.261253  0  3.590401  0  0  -0.281308  0  3.601838  0  0  -0.354755  -0.247957  0  3.582632  0
N  N44  1  0.25179832  0.09536810  0.30350874  1  0  -0.330231  0  3.367374  0  0  -0.261225  0  3.590024  0  0  -0.281286  0  3.60145  0  0  -0.35479  -0.247927  0  3.582261  0
N  N45  1  0.74819227  0.59535286  0.19648883  1  0  -0.330203  0  3.366751  0  0  -0.261235  0  3.58936  0  0  -0.281288  0  3.600797  0  0  -0.354756  -0.247936  0  3.581592  0
O  O46  1  0.03458849  0.69449722  0.74923196  1  0  -0.577805  0  1.949979  0  0  -0.539655  0  2.169777  0  0  -0.562357  0  2.164207  0  0  -0.31868  -0.523671  0  2.172855  0
O  O47  1  0.96544121  0.19450173  0.75077366  1  0  -0.577724  0  1.950104  0  0  -0.539668  0  2.16986  0  0  -0.562363  0  2.164318  0  0  -0.318665  -0.523682  0  2.172933  0
O  O48  1  0.96541074  0.30550134  0.25077024  1  0  -0.577801  0  1.949957  0  0  -0.539738  0  2.169744  0  0  -0.56244  0  2.164184  0  0  -0.318717  -0.523753  0  2.17282  0
O  O49  1  0.03455853  0.80550325  0.24922218  1  0  -0.577712  0  1.95024  0  0  -0.53967  0  2.169913  0  0  -0.562366  0  2.16438  0  0  -0.318629  -0.523686  0  2.172983  0
