# generated using pymatgen
data_Zn2H23C28N5O11
_symmetry_space_group_name_H-M   'P 1'
_cell_length_a   8.02084057
_cell_length_b   9.73027956
_cell_length_c   19.27696286
_cell_angle_alpha   85.64500799
_cell_angle_beta   86.12341065
_cell_angle_gamma   70.30749729
_symmetry_Int_Tables_number   1
_chemical_formula_structural   Zn2H23C28N5O11
_chemical_formula_sum   'Zn4 H46 C56 N10 O22'
_cell_volume   1410.97619542
_cell_formula_units_Z   2
loop_
 _symmetry_equiv_pos_site_id
 _symmetry_equiv_pos_as_xyz
  1  'x, y, z'
loop_
 _atom_site_type_symbol
 _atom_site_label
 _atom_site_symmetry_multiplicity
 _atom_site_fract_x
 _atom_site_fract_y
 _atom_site_fract_z
 _atom_site_occupancy
 _atom_site_hle17_bader_spin_density
 _atom_site_hle17_ddec_charge
 _atom_site_hle17_ddec_spin_density
 _atom_site_hle17_ddec_sum_bond_order
 _atom_site_hle17_magmom
 _atom_site_hse06_10hf_bader_spin_density
 _atom_site_hse06_10hf_ddec_charge
 _atom_site_hse06_10hf_ddec_spin_density
 _atom_site_hse06_10hf_ddec_sum_bond_order
 _atom_site_hse06_10hf_magmom
 _atom_site_hse06_bader_spin_density
 _atom_site_hse06_ddec_charge
 _atom_site_hse06_ddec_spin_density
 _atom_site_hse06_ddec_sum_bond_order
 _atom_site_hse06_magmom
 _atom_site_pbe_bader_spin_density
 _atom_site_pbe_cm5_charge
 _atom_site_pbe_ddec_charge
 _atom_site_pbe_ddec_spin_density
 _atom_site_pbe_ddec_sum_bond_order
 _atom_site_pbe_magmom
Zn  Zn0  1  0.58613397  0.76107654  0.40109474  1  0  1.106138  0  1.73756  0  0  0.930428  0  2.201019  0  0  0.980048  0  2.140968  0  0  0.680787  0.893452  0  2.244766  0
Zn  Zn1  1  0.41386052  0.23892046  0.59890771  1  0  1.106097  0  1.737512  0  0  0.930342  0  2.200918  0  0  0.979963  0  2.140873  0  0  0.680734  0.893355  0  2.244682  0
Zn  Zn2  1  0.51251191  0.10116611  0.91261889  1  0  1.085287  0  1.72987  0  0  0.904028  0  2.191678  0  0  0.953722  0  2.133959  0  0  0.690632  0.869246  0  2.231511  0
Zn  Zn3  1  0.48748333  0.89883851  0.08738168  1  0  1.085309  0  1.729851  0  0  0.904052  0  2.191649  0  0  0.953747  0  2.13393  0  0  0.690638  0.869274  0  2.231483  0
H  H4  1  0.27244053  0.18957994  0.21526820  1  0  0.122186  0  0.980903  0  0  0.128673  0  1.048267  0  0  0.132696  0  1.044587  0  0  0.105536  0.125652  0  1.050816  0
H  H5  1  0.72754893  0.81042034  0.78473320  1  0  0.122196  0  0.980901  0  0  0.128652  0  1.048315  0  0  0.132672  0  1.044628  0  0  0.105541  0.125631  0  1.050863  0
H  H6  1  0.22349043  0.45366709  0.18497819  1  0  0.085305  0  0.953861  0  0  0.098297  0  1.01148  0  0  0.100779  0  1.011216  0  0  0.097382  0.096446  0  1.011911  0
H  H7  1  0.77651250  0.54633092  0.81502039  1  0  0.085257  0  0.953881  0  0  0.09822  0  1.01153  0  0  0.100701  0  1.011271  0  0  0.097364  0.096371  0  1.011958  0
H  H8  1  0.34661269  0.59378840  0.25862360  1  0  0.10267  0  0.961816  0  0  0.111634  0  1.025432  0  0  0.115585  0  1.021665  0  0  0.100218  0.10899  0  1.027446  0
H  H9  1  0.65339361  0.40620742  0.74137550  1  0  0.102678  0  0.961822  0  0  0.111598  0  1.025496  0  0  0.115549  0  1.02173  0  0  0.100232  0.108958  0  1.027509  0
H  H10  1  0.57136038  0.20413838  0.38946476  1  0  0.108856  0  0.95395  0  0  0.118324  0  1.01807  0  0  0.122214  0  1.014585  0  0  0.106799  0.115552  0  1.020827  0
H  H11  1  0.42863121  0.79585971  0.61053668  1  0  0.108803  0  0.953969  0  0  0.1183  0  1.018082  0  0  0.122193  0  1.014591  0  0  0.106758  0.115526  0  1.02084  0
H  H12  1  0.75104110  0.94758077  0.46459755  1  0  0.100334  0  0.940081  0  0  0.107271  0  1.004062  0  0  0.110945  0  1.00008  0  0  0.122035  0.1043  0  1.007556  0
H  H13  1  0.24895205  0.05242277  0.53540415  1  0  0.100353  0  0.940019  0  0  0.107278  0  1.004035  0  0  0.110952  0  1.000053  0  0  0.122047  0.104305  0  1.007534  0
H  H14  1  0.92992319  0.93401986  0.56853837  1  0  0.117138  0  0.937374  0  0  0.126679  0  0.997137  0  0  0.130388  0  0.995309  0  0  0.113623  0.123803  0  0.999081  0
H  H15  1  0.07008015  0.06597707  0.43146128  1  0  0.11712  0  0.937351  0  0  0.126659  0  0.997113  0  0  0.13037  0  0.995287  0  0  0.113623  0.123784  0  0.999054  0
H  H16  1  0.93001666  0.49306589  0.61246849  1  0  0.095934  0  0.970515  0  0  0.105644  0  1.033937  0  0  0.108719  0  1.032942  0  0  0.107519  0.103418  0  1.034857  0
H  H17  1  0.06998368  0.50693542  0.38753105  1  0  0.095938  0  0.97047  0  0  0.10565  0  1.033883  0  0  0.108726  0  1.032887  0  0  0.107516  0.10342  0  1.034807  0
H  H18  1  0.75530091  0.52263809  0.50595381  1  0  0.090038  0  0.95891  0  0  0.095899  0  1.025318  0  0  0.099354  0  1.022057  0  0  0.115589  0.09317  0  1.028014  0
H  H19  1  0.24469982  0.47736214  0.49404733  1  0  0.090051  0  0.958942  0  0  0.095911  0  1.025347  0  0  0.099366  0  1.022085  0  0  0.115608  0.093183  0  1.028043  0
H  H20  1  0.07843159  0.05637192  0.74010523  1  0  0.119028  0  0.932893  0  0  0.130036  0  0.988509  0  0  0.134016  0  0.986093  0  0  0.11636  0.126931  0  0.99076  0
H  H21  1  0.92156288  0.94363160  0.25989437  1  0  0.118955  0  0.932981  0  0  0.130017  0  0.988537  0  0  0.133999  0  0.986122  0  0  0.116354  0.126912  0  0.990787  0
H  H22  1  0.22930662  0.18713143  0.80768937  1  0  0.086368  0  0.95307  0  0  0.092408  0  1.020203  0  0  0.095762  0  1.016928  0  0  0.116903  0.090127  0  1.022398  0
H  H23  1  0.77069332  0.81287096  0.19230911  1  0  0.086397  0  0.95311  0  0  0.092433  0  1.020222  0  0  0.095786  0  1.016946  0  0  0.116904  0.090152  0  1.022415  0
H  H24  1  0.47558752  0.80866171  0.92824214  1  0  0.094665  0  0.938431  0  0  0.102216  0  1.002454  0  0  0.105187  0  0.999477  0  0  0.122253  0.1  0  1.004676  0
H  H25  1  0.52440651  0.19133964  0.07175911  1  0  0.094624  0  0.938428  0  0  0.102156  0  1.002475  0  0  0.105126  0  0.999499  0  0  0.122213  0.09994  0  1.004697  0
H  H26  1  0.34811304  0.66245821  0.86163226  1  0  0.104018  0  0.97064  0  0  0.113272  0  1.03278  0  0  0.115814  0  1.033094  0  0  0.10919  0.111741  0  1.032294  0
H  H27  1  0.65188313  0.33754095  0.13836850  1  0  0.104036  0  0.970607  0  0  0.113296  0  1.032747  0  0  0.115837  0  1.03306  0  0  0.109203  0.111766  0  1.032259  0
H  H28  1  0.00035164  0.62820174  0.88892373  1  0  0.096669  0  0.964472  0  0  0.103584  0  1.034451  0  0  0.107269  0  1.031764  0  0  0.104808  0.101059  0  1.036128  0
H  H29  1  0.99965787  0.37180170  0.11107448  1  0  0.096675  0  0.964495  0  0  0.103571  0  1.034489  0  0  0.107256  0  1.031801  0  0  0.104829  0.101041  0  1.036175  0
H  H30  1  0.96179422  0.89353837  0.06061605  1  0  0.099256  0  0.953534  0  0  0.109674  0  1.013952  0  0  0.11215  0  1.013452  0  0  0.103987  0.107976  0  1.014202  0
H  H31  1  0.03820900  0.10646511  0.93938335  1  0  0.099219  0  0.953585  0  0  0.109685  0  1.013955  0  0  0.112161  0  1.013456  0  0  0.103995  0.107986  0  1.014205  0
H  H32  1  0.22369596  0.70337439  0.11198160  1  0  0.101701  0  0.958537  0  0  0.113085  0  1.014973  0  0  0.116345  0  1.013474  0  0  0.101425  0.110655  0  1.016303  0
H  H33  1  0.77630435  0.29663018  0.88801679  1  0  0.101582  0  0.958632  0  0  0.112986  0  1.015046  0  0  0.116246  0  1.013547  0  0  0.101408  0.110555  0  1.016376  0
H  H34  1  0.37294126  0.47181804  0.05143130  1  0  0.093767  0  0.949523  0  0  0.105084  0  1.011699  0  0  0.107902  0  1.010095  0  0  0.102532  0.102937  0  1.01312  0
H  H35  1  0.62706864  0.52818432  0.94856850  1  0  0.093828  0  0.949566  0  0  0.105141  0  1.011732  0  0  0.10796  0  1.010123  0  0  0.102555  0.10299  0  1.013159  0
H  H36  1  0.20218437  0.54893898  0.80140381  1  0  0.310863  0  0.933017  0  0  0.285252  0  1.003189  0  0  0.295211  0  0.994536  0  0  0.316246  0.278176  0  1.009359  0
H  H37  1  0.79781806  0.45106015  0.19859681  1  0  0.310858  0  0.933049  0  0  0.285247  0  1.003217  0  0  0.295205  0  0.994565  0  0  0.316258  0.278171  0  1.009387  0
H  H38  1  0.92822154  0.72898142  0.33003515  1  0  0.404327  0  0.839249  0  0  0.392639  0  0.887028  0  0  0.399957  0  0.878943  0  0  0.315029  0.387132  0  0.89331  0
H  H39  1  0.07177628  0.27101991  0.66996498  1  0  0.404323  0  0.839216  0  0  0.392634  0  0.886998  0  0  0.399952  0  0.878912  0  0  0.315032  0.387126  0  0.893282  0
H  H40  1  0.37154888  0.70272086  0.51567899  1  0  0.430826  0  0.873058  0  0  0.396357  0  0.943213  0  0  0.408062  0  0.926279  0  0  0.28594  0.388008  0  0.955277  0
H  H41  1  0.62844947  0.29727282  0.48432193  1  0  0.430822  0  0.873058  0  0  0.396443  0  0.943085  0  0  0.408148  0  0.926151  0  0  0.285983  0.388094  0  0.955149  0
H  H42  1  0.60217901  0.13938137  0.78069234  1  0  0.455449  0  0.836594  0  0  0.422707  0  0.901642  0  0  0.434066  0  0.885215  0  0  0.298539  0.41487  0  0.912902  0
H  H43  1  0.39782055  0.86061558  0.21930791  1  0  0.455455  0  0.836591  0  0  0.422719  0  0.901629  0  0  0.434078  0  0.885204  0  0  0.298544  0.414882  0  0.91289  0
H  H44  1  0.26013340  0.77688497  0.45071207  1  0  0.40691  0  0.835604  0  0  0.394095  0  0.884336  0  0  0.401671  0  0.876301  0  0  0.314881  0.388558  0  0.89038  0
H  H45  1  0.73986479  0.22311529  0.54929016  1  0  0.406866  0  0.835663  0  0  0.394057  0  0.884389  0  0  0.401634  0  0.876354  0  0  0.314861  0.38852  0  0.890434  0
H  H46  1  0.47927873  0.28543326  0.81786164  1  0  0.415848  0  0.874611  0  0  0.385678  0  0.945769  0  0  0.39651  0  0.930014  0  0  0.295008  0.378059  0  0.956825  0
H  H47  1  0.52072701  0.71456695  0.18213938  1  0  0.415797  0  0.87471  0  0  0.385637  0  0.945824  0  0  0.396469  0  0.930072  0  0  0.295025  0.37802  0  0.956876  0
H  H48  1  0.86441157  0.60003141  0.30913218  1  0  0.385378  0  0.938116  0  0  0.340978  0  1.024525  0  0  0.352706  0  1.007681  0  0  0.279536  0.332805  0  1.036203  0
H  H49  1  0.13558579  0.39997101  0.69086895  1  0  0.385394  0  0.93808  0  0  0.341001  0  1.024482  0  0  0.352728  0  1.007638  0  0  0.279531  0.332827  0  1.03616  0
C  C50  1  0.44920894  0.02383587  0.32357030  1  0  0.653636  0  3.920783  0  0  0.601066  0  4.216413  0  0  0.635061  0  4.210615  0  0  0.20512  0.577968  0  4.219283  0
C  C51  1  0.55077379  0.97616230  0.67643445  1  0  0.653437  0  3.921328  0  0  0.600854  0  4.216952  0  0  0.634849  0  4.211159  0  0  0.20487  0.577758  0  4.219815  0
C  C52  1  0.42410996  0.18161002  0.30445901  1  0  -0.086378  0  3.766064  0  0  -0.056325  0  3.996556  0  0  -0.067314  0  4.021487  0  0  -0.02424  -0.049315  0  3.979915  0
C  C53  1  0.57587947  0.81839028  0.69554343  1  0  -0.086328  0  3.766017  0  0  -0.056284  0  3.996527  0  0  -0.067274  0  4.02146  0  0  -0.024237  -0.049276  0  3.979882  0
C  C54  1  0.32635458  0.25154515  0.24679603  1  0  -0.055784  0  3.700818  0  0  -0.087542  0  3.952956  0  0  -0.084465  0  3.971706  0  0  -0.082357  -0.088193  0  3.939343  0
C  C55  1  0.67364161  0.74845399  0.75320421  1  0  -0.055835  0  3.700737  0  0  -0.0876  0  3.952938  0  0  -0.084514  0  3.971685  0  0  -0.082437  -0.088248  0  3.939323  0
C  C56  1  0.29930480  0.39941982  0.23007437  1  0  -0.082332  0  3.778568  0  0  -0.093724  0  4.03772  0  0  -0.098828  0  4.059063  0  0  -0.097891  -0.090741  0  4.02276  0
C  C57  1  0.70069779  0.60057600  0.76992327  1  0  -0.082388  0  3.778557  0  0  -0.093735  0  4.037703  0  0  -0.098839  0  4.059044  0  0  -0.097918  -0.090754  0  4.022744  0
C  C58  1  0.36772517  0.47809813  0.27091229  1  0  -0.071708  0  3.724382  0  0  -0.099818  0  3.975719  0  0  -0.096862  0  3.9937  0  0  -0.090562  -0.100154  0  3.962055  0
C  C59  1  0.63227737  0.52189771  0.72908690  1  0  -0.071614  0  3.724288  0  0  -0.0997  0  3.975651  0  0  -0.096747  0  3.993636  0  0  -0.090534  -0.100043  0  3.961993  0
C  C60  1  0.46571020  0.40846935  0.32912605  1  0  -0.095886  0  3.787846  0  0  -0.068831  0  4.023551  0  0  -0.079705  0  4.048553  0  0  -0.031359  -0.062322  0  4.007761  0
C  C61  1  0.53429148  0.59152866  0.67087256  1  0  -0.095899  0  3.78754  0  0  -0.068831  0  4.023273  0  0  -0.079703  0  4.048277  0  0  -0.031384  -0.062324  0  4.007484  0
C  C62  1  0.49485398  0.26007925  0.34502759  1  0  -0.06411  0  3.707398  0  0  -0.10074  0  3.95214  0  0  -0.097382  0  3.971644  0  0  -0.08147  -0.103816  0  3.940784  0
C  C63  1  0.50514850  0.73991986  0.65497148  1  0  -0.063995  0  3.707226  0  0  -0.100661  0  3.951986  0  0  -0.097305  0  3.971493  0  0  -0.081387  -0.103734  0  3.940627  0
C  C64  1  0.53535428  0.49442605  0.37387992  1  0  0.648509  0  3.913462  0  0  0.593291  0  4.21331  0  0  0.628205  0  4.206408  0  0  0.203126  0.56941  0  4.217439  0
C  C65  1  0.46464825  0.50556978  0.62611927  1  0  0.648458  0  3.913364  0  0  0.59319  0  4.21327  0  0  0.628102  0  4.206371  0  0  0.203112  0.569311  0  4.217396  0
C  C66  1  0.79805528  0.84775181  0.49788669  1  0  0.130678  0  3.678237  0  0  0.099203  0  3.927332  0  0  0.106776  0  3.944375  0  0  0.048385  0.094404  0  3.915643  0
C  C67  1  0.20194797  0.15224841  0.50211387  1  0  0.130742  0  3.678089  0  0  0.09922  0  3.92722  0  0  0.106792  0  3.944265  0  0  0.048413  0.094421  0  3.915528  0
C  C68  1  0.89623064  0.84001709  0.55550883  1  0  -0.128632  0  3.678019  0  0  -0.150768  0  3.929132  0  0  -0.157662  0  3.948314  0  0  -0.072704  -0.146309  0  3.916377  0
C  C69  1  0.10377264  0.15997986  0.44449238  1  0  -0.128682  0  3.677861  0  0  -0.15076  0  3.929035  0  0  -0.157657  0  3.94822  0  0  -0.072743  -0.146302  0  3.916278  0
C  C70  1  0.94533963  0.71160160  0.59884101  1  0  0.073738  0  3.752457  0  0  0.085017  0  3.986725  0  0  0.08966  0  4.006604  0  0  0.02513  0.081847  0  3.973231  0
C  C71  1  0.05465986  0.28839863  0.40115963  1  0  0.073724  0  3.752239  0  0  0.084852  0  3.986694  0  0  0.089497  0  4.006573  0  0  0.025082  0.081688  0  3.973199  0
C  C72  1  0.89696375  0.59429587  0.58029998  1  0  -0.134956  0  3.721762  0  0  -0.156743  0  3.972054  0  0  -0.164674  0  3.994362  0  0  -0.077888  -0.15152  0  3.95711  0
C  C73  1  0.10303487  0.40570655  0.41970060  1  0  -0.13487  0  3.721581  0  0  -0.156584  0  3.971864  0  0  -0.164514  0  3.994168  0  0  -0.077791  -0.151358  0  3.956917  0
C  C74  1  0.79953964  0.60953254  0.52185542  1  0  0.123462  0  3.716788  0  0  0.093099  0  3.969339  0  0  0.100085  0  3.98748  0  0  0.045423  0.088836  0  3.956778  0
C  C75  1  0.20046105  0.39046771  0.47814675  1  0  0.12344  0  3.716992  0  0  0.093046  0  3.969529  0  0  0.100033  0  3.98767  0  0  0.045379  0.088783  0  3.956967  0
C  C76  1  0.03389270  0.70487748  0.66321531  1  0  0.290036  0  3.788807  0  0  0.265529  0  4.06576  0  0  0.275036  0  4.081643  0  0  0.222624  0.25931  0  4.054645  0
C  C77  1  0.96610937  0.29511946  0.33678489  1  0  0.290077  0  3.788705  0  0  0.265613  0  4.065676  0  0  0.275121  0  4.081556  0  0  0.222584  0.25938  0  4.054585  0
C  C78  1  0.13535144  0.76857540  0.74946193  1  0  0.324061  0  3.737894  0  0  0.288453  0  4.014601  0  0  0.301573  0  4.027506  0  0  0.23906  0.279853  0  4.005536  0
C  C79  1  0.86464976  0.23142372  0.25053820  1  0  0.323786  0  3.73833  0  0  0.288259  0  4.014918  0  0  0.30138  0  4.027823  0  0  0.238942  0.279658  0  4.005853  0
C  C80  1  0.20244447  0.84873270  0.79488964  1  0  0.062553  0  3.76435  0  0  0.075418  0  3.999795  0  0  0.07905  0  4.019224  0  0  0.02485  0.073045  0  3.986519  0
C  C81  1  0.79755081  0.15127190  0.20510990  1  0  0.062593  0  3.764319  0  0  0.075435  0  3.999778  0  0  0.079067  0  4.019208  0  0  0.024854  0.073067  0  3.986498  0
C  C82  1  0.16638443  0.99915019  0.78126824  1  0  -0.109423  0  3.657075  0  0  -0.131357  0  3.902523  0  0  -0.137557  0  3.921614  0  0  -0.066681  -0.127385  0  3.889595  0
C  C83  1  0.83361427  0.00084895  0.21873143  1  0  -0.10934  0  3.656878  0  0  -0.131355  0  3.902337  0  0  -0.137556  0  3.921427  0  0  -0.066722  -0.127383  0  3.889408  0
C  C84  1  0.24915313  0.07146793  0.81894260  1  0  0.129018  0  3.698369  0  0  0.096302  0  3.954273  0  0  0.102943  0  3.97229  0  0  0.050229  0.091755  0  3.941939  0
C  C85  1  0.75084268  0.92853230  0.18105606  1  0  0.12902  0  3.698388  0  0  0.096349  0  3.954256  0  0  0.102991  0  3.972273  0  0  0.050325  0.091805  0  3.941923  0
C  C86  1  0.38781588  0.85966273  0.88590951  1  0  0.153105  0  3.661792  0  0  0.120831  0  3.915193  0  0  0.128737  0  3.931338  0  0  0.058057  0.115552  0  3.904447  0
C  C87  1  0.61217814  0.14033863  0.11409226  1  0  0.153157  0  3.661736  0  0  0.12088  0  3.915184  0  0  0.128787  0  3.931329  0  0  0.058069  0.115603  0  3.904441  0
C  C88  1  0.31334291  0.77925729  0.84931925  1  0  -0.134118  0  3.69872  0  0  -0.156305  0  3.946954  0  0  -0.163761  0  3.969523  0  0  -0.074598  -0.151481  0  3.931693  0
C  C89  1  0.68665156  0.22074297  0.15068204  1  0  -0.134088  0  3.698677  0  0  -0.156288  0  3.946922  0  0  -0.163741  0  3.969486  0  0  -0.074582  -0.151466  0  3.93166  0
C  C90  1  0.29547057  0.40351543  0.92560765  1  0  0.661991  0  3.870732  0  0  0.608252  0  4.164742  0  0  0.642762  0  4.158302  0  0  0.218056  0.584969  0  4.168129  0
C  C91  1  0.70453025  0.59648152  0.07439258  1  0  0.661898  0  3.8708  0  0  0.608225  0  4.16473  0  0  0.642733  0  4.158288  0  0  0.218041  0.584942  0  4.168117  0
C  C92  1  0.19818769  0.53496200  0.96582074  1  0  -0.08998  0  3.788251  0  0  -0.063323  0  4.02397  0  0  -0.073487  0  4.048421  0  0  -0.024088  -0.056547  0  4.007283  0
C  C93  1  0.80181225  0.46503713  0.03417942  1  0  -0.089992  0  3.788386  0  0  -0.063339  0  4.024063  0  0  -0.073506  0  4.048519  0  0  -0.024078  -0.056562  0  4.007376  0
C  C94  1  0.05072463  0.64258664  0.93787972  1  0  -0.077722  0  3.730852  0  0  -0.115545  0  3.98116  0  0  -0.113412  0  4.001492  0  0  -0.079593  -0.116467  0  3.967166  0
C  C95  1  0.94927904  0.35741574  0.06211919  1  0  -0.077734  0  3.731036  0  0  -0.115543  0  3.98135  0  0  -0.113409  0  4.00168  0  0  -0.079602  -0.116466  0  3.967354  0
C  C96  1  0.96366172  0.77081511  0.97208902  1  0  -0.058857  0  3.750474  0  0  -0.031933  0  3.982661  0  0  -0.04117  0  4.005791  0  0  -0.016531  -0.026513  0  3.967448  0
C  C97  1  0.03634027  0.22918836  0.02790989  1  0  -0.05882  0  3.750379  0  0  -0.031921  0  3.982568  0  0  -0.041154  0  4.00569  0  0  -0.016533  -0.026503  0  3.967356  0
C  C98  1  0.81032906  0.88308829  0.93753251  1  0  0.634496  0  3.917122  0  0  0.586293  0  4.20513  0  0  0.620459  0  4.198353  0  0  0.200462  0.563165  0  4.209021  0
C  C99  1  0.18968135  0.11691946  0.06246136  1  0  0.634606  0  3.916793  0  0  0.586481  0  4.204703  0  0  0.620646  0  4.197923  0  0  0.200505  0.563355  0  4.208595  0
C  C100  1  0.02653760  0.79183647  0.03505842  1  0  -0.041887  0  3.687924  0  0  -0.070721  0  3.936966  0  0  -0.06801  0  3.955916  0  0  -0.077044  -0.072076  0  3.923928  0
C  C101  1  0.97346476  0.20816919  0.96494091  1  0  -0.041791  0  3.687825  0  0  -0.070661  0  3.936886  0  0  -0.067953  0  3.955839  0  0  -0.077011  -0.072014  0  3.923846  0
C  C102  1  0.17330202  0.68453914  0.06371745  1  0  -0.079094  0  3.745458  0  0  -0.088182  0  3.99819  0  0  -0.092981  0  4.019092  0  0  -0.090785  -0.084997  0  3.984141  0
C  C103  1  0.82669993  0.31546760  0.93628081  1  0  -0.07897  0  3.745509  0  0  -0.088083  0  3.998255  0  0  -0.092881  0  4.019158  0  0  -0.090764  -0.084897  0  3.984204  0
C  C104  1  0.25781562  0.55587385  0.02974267  1  0  -0.053553  0  3.714003  0  0  -0.082521  0  3.966402  0  0  -0.08018  0  3.985828  0  0  -0.079937  -0.084234  0  3.953374  0
C  C105  1  0.74218426  0.44412856  0.97025788  1  0  -0.053681  0  3.714266  0  0  -0.082646  0  3.96668  0  0  -0.080305  0  3.986109  0  0  -0.080007  -0.084357  0  3.953653  0
N  N106  1  0.74968706  0.73432704  0.48141810  1  0  -0.345101  0  3.309468  0  0  -0.260636  0  3.584947  0  0  -0.280568  0  3.599556  0  0  -0.333872  -0.24676  0  3.574267  0
N  N107  1  0.25030866  0.26567647  0.51858147  1  0  -0.345179  0  3.309674  0  0  -0.260638  0  3.585092  0  0  -0.28057  0  3.5997  0  0  -0.333911  -0.246762  0  3.574411  0
N  N108  1  0.06083630  0.82155854  0.68866555  1  0  -0.423981  0  2.892877  0  0  -0.403243  0  3.166696  0  0  -0.416516  0  3.176688  0  0  -0.317685  -0.394074  0  3.15998  0
N  N109  1  0.93916192  0.17844170  0.31133564  1  0  -0.423855  0  2.893018  0  0  -0.403135  0  3.166777  0  0  -0.416408  0  3.176769  0  0  -0.317545  -0.393964  0  3.160068  0
N  N110  1  0.08879474  0.58250845  0.70522632  1  0  -0.253797  0  2.970004  0  0  -0.218994  0  3.223298  0  0  -0.229748  0  3.239295  0  0  -0.199318  -0.211558  0  3.212317  0
N  N111  1  0.91121232  0.41748847  0.29477428  1  0  -0.253808  0  2.970017  0  0  -0.219013  0  3.223308  0  0  -0.229769  0  3.239305  0  0  -0.19927  -0.21157  0  3.212323  0
N  N112  1  0.15222672  0.62484651  0.75948611  1  0  -0.199737  0  3.39715  0  0  -0.141571  0  3.633925  0  0  -0.155913  0  3.65034  0  0  -0.247809  -0.132081  0  3.622977  0
N  N113  1  0.84777736  0.37515479  0.24051387  1  0  -0.199673  0  3.397175  0  0  -0.141523  0  3.633938  0  0  -0.155864  0  3.650352  0  0  -0.24783  -0.132033  0  3.622988  0
N  N114  1  0.36011628  0.00262371  0.86988267  1  0  -0.34321  0  3.327963  0  0  -0.259578  0  3.608023  0  0  -0.279099  0  3.621647  0  0  -0.328796  -0.246427  0  3.599043  0
N  N115  1  0.63988156  0.99737761  0.13011693  1  0  -0.343285  0  3.328096  0  0  -0.259645  0  3.608095  0  0  -0.279165  0  3.621716  0  0  -0.328839  -0.2465  0  3.599125  0
O  O116  1  0.53827034  0.97026825  0.37863185  1  0  -0.659449  0  2.060876  0  0  -0.584945  0  2.331507  0  0  -0.615997  0  2.318872  0  0  -0.332559  -0.562146  0  2.33949  0
O  O117  1  0.46169993  0.02972668  0.62137280  1  0  -0.659373  0  2.060731  0  0  -0.584777  0  2.331259  0  0  -0.615832  0  2.318635  0  0  -0.332427  -0.561974  0  2.339231  0
O  O118  1  0.38354434  0.95318615  0.28837280  1  0  -0.627904  0  1.969957  0  0  -0.574887  0  2.193273  0  0  -0.597955  0  2.182195  0  0  -0.320597  -0.558295  0  2.200738  0
O  O119  1  0.61643764  0.04681416  0.71162774  1  0  -0.627822  0  1.970479  0  0  -0.574813  0  2.193802  0  0  -0.59788  0  2.182725  0  0  -0.320438  -0.558223  0  2.201264  0
O  O120  1  0.61299284  0.43822204  0.42912288  1  0  -0.641174  0  2.005462  0  0  -0.586528  0  2.241853  0  0  -0.61171  0  2.232386  0  0  -0.315776  -0.568598  0  2.247841  0
O  O121  1  0.38701394  0.56176941  0.57087638  1  0  -0.641173  0  2.005535  0  0  -0.586452  0  2.241924  0  0  -0.611631  0  2.232453  0  0  -0.315737  -0.568524  0  2.247912  0
O  O122  1  0.50883170  0.62799005  0.35110911  1  0  -0.654027  0  2.091444  0  0  -0.578268  0  2.366144  0  0  -0.607903  0  2.350003  0  0  -0.331392  -0.557527  0  2.377765  0
O  O123  1  0.49117371  0.37200470  0.64889213  1  0  -0.65398  0  2.091339  0  0  -0.578186  0  2.366027  0  0  -0.607824  0  2.349891  0  0  -0.331347  -0.557441  0  2.377643  0
O  O124  1  0.39021943  0.28890185  0.95978993  1  0  -0.631773  0  2.059954  0  0  -0.55792  0  2.331044  0  0  -0.58774  0  2.318633  0  0  -0.310487  -0.537302  0  2.338936  0
O  O125  1  0.60977924  0.71110055  0.04020909  1  0  -0.631805  0  2.059816  0  0  -0.557971  0  2.330868  0  0  -0.587801  0  2.318479  0  0  -0.310509  -0.537353  0  2.338761  0
O  O126  1  0.28324061  0.41218832  0.85954262  1  0  -0.640801  0  1.985151  0  0  -0.581513  0  2.206447  0  0  -0.606227  0  2.195502  0  0  -0.31475  -0.564228  0  2.213165  0
O  O127  1  0.71676604  0.58781295  0.14045523  1  0  -0.640662  0  1.985243  0  0  -0.581412  0  2.206497  0  0  -0.606123  0  2.195553  0  0  -0.314719  -0.564131  0  2.213219  0
O  O128  1  0.69762074  0.98055070  0.97599340  1  0  -0.671157  0  2.045419  0  0  -0.595774  0  2.324209  0  0  -0.626226  0  2.309906  0  0  -0.32904  -0.574305  0  2.333379  0
O  O129  1  0.30238224  0.01945055  0.02400193  1  0  -0.671163  0  2.045413  0  0  -0.595801  0  2.32418  0  0  -0.626246  0  2.309861  0  0  -0.32905  -0.574332  0  2.333347  0
O  O130  1  0.79486571  0.88061819  0.87357648  1  0  -0.598176  0  1.952578  0  0  -0.548298  0  2.177348  0  0  -0.572423  0  2.170313  0  0  -0.309886  -0.531392  0  2.181584  0
O  O131  1  0.20516090  0.11939277  0.12641740  1  0  -0.598313  0  1.952397  0  0  -0.548494  0  2.17717  0  0  -0.572623  0  2.170129  0  0  -0.309936  -0.531587  0  2.181411  0
O  O132  1  0.35234112  0.78521252  0.47869349  1  0  -0.81286  0  1.839135  0  0  -0.761312  0  2.031127  0  0  -0.781408  0  2.002216  0  0  -0.566834  -0.74693  0  2.052015  0
O  O133  1  0.64766050  0.21478227  0.52130888  1  0  -0.812798  0  1.839206  0  0  -0.761347  0  2.031141  0  0  -0.78144  0  2.002222  0  0  -0.566861  -0.746966  0  2.05203  0
O  O134  1  0.82346766  0.70611059  0.32041713  1  0  -0.805339  0  1.90014  0  0  -0.754942  0  2.105078  0  0  -0.773931  0  2.075874  0  0  -0.568145  -0.741504  0  2.125819  0
O  O135  1  0.17653096  0.29388857  0.67958513  1  0  -0.805345  0  1.900117  0  0  -0.754954  0  2.105051  0  0  -0.773943  0  2.075846  0  0  -0.568136  -0.741515  0  2.125795  0
O  O136  1  0.58831715  0.19908075  0.82236562  1  0  -0.831334  0  1.898749  0  0  -0.763929  0  2.110018  0  0  -0.786636  0  2.073057  0  0  -0.568614  -0.747993  0  2.135308  0
O  O137  1  0.41168528  0.80091837  0.17763500  1  0  -0.831313  0  1.89884  0  0  -0.76391  0  2.110075  0  0  -0.786615  0  2.073116  0  0  -0.568641  -0.74798  0  2.135376  0
