# generated using pymatgen
data_Al2H18C18O11
_symmetry_space_group_name_H-M   'P 1'
_cell_length_a   6.68324249
_cell_length_b   11.12708587
_cell_length_c   10.99767839
_cell_angle_alpha   87.95754511
_cell_angle_beta   72.40426819
_cell_angle_gamma   73.08670237
_symmetry_Int_Tables_number   1
_chemical_formula_structural   Al2H18C18O11
_chemical_formula_sum   'Al2 H18 C18 O11'
_cell_volume   744.63068488
_cell_formula_units_Z   1
loop_
 _symmetry_equiv_pos_site_id
 _symmetry_equiv_pos_as_xyz
  1  'x, y, z'
loop_
 _atom_site_type_symbol
 _atom_site_label
 _atom_site_symmetry_multiplicity
 _atom_site_fract_x
 _atom_site_fract_y
 _atom_site_fract_z
 _atom_site_occupancy
 _atom_site_pbe_bader_charge
 _atom_site_pbe_bader_spin_density
 _atom_site_pbe_cm5_charge
 _atom_site_pbe_ddec_charge
 _atom_site_pbe_ddec_spin_density
 _atom_site_pbe_ddec_sum_bond_order
 _atom_site_pbe_magmom
Al  Al0  1  0.00010628  0.50096529  0.50302287  1  2.503938  0  0.40209  1.641865  0  2.576298  0
Al  Al1  1  0.50370128  0.49735435  0.49861910  1  2.490689  0  0.397642  1.642834  0  2.585553  0
H  H2  1  0.14457327  0.57983371  0.64926889  1  0.616729  0  0.350475  0.424587  0  0.864549  0
H  H3  1  0.87237353  0.40598387  0.35787724  1  0.608229  0  0.354545  0.429927  0  0.854294  0
H  H4  1  0.74896862  0.12014962  0.52302255  1  0.104015  0  0.105008  0.114579  0  1.015365  0
H  H5  1  0.12664816  0.11734636  0.48675840  1  0.098932  0  0.113324  0.136693  0  0.998  0
H  H6  1  0.86637526  0.88543458  0.51713821  1  0.158202  0  0.104895  0.116199  0  1.047414  0
H  H7  1  0.58878685  0.29710397  0.10612107  1  0.023195  0  0.09245  0.08747  0  0.976781  0
H  H8  1  0.76471045  0.38917048  0.10476769  1  0.037359  0  0.091797  0.088448  0  0.995389  0
H  H9  1  0.87371307  0.37258797  0.88124561  1  0.058723  0  0.09439  0.094016  0  0.989745  0
H  H10  1  0.67729254  0.29417811  0.88404891  1  0.023156  0  0.094543  0.092235  0  0.971632  0
H  H11  1  0.76467360  0.60731384  0.90173785  1  0.039076  0  0.09258  0.088288  0  0.992481  0
H  H12  1  0.50301162  0.69938314  0.89610914  1  0.035176  0  0.093826  0.089138  0  0.974588  0
H  H13  1  0.62482694  0.62456625  0.12483157  1  0.037598  0  0.095166  0.094591  0  0.9855  0
H  H14  1  0.35735180  0.70219970  0.11757691  1  0.034077  0  0.095345  0.093937  0  0.972256  0
H  H15  1  0.19834662  0.40828593  0.10038986  1  0.023961  0  0.089045  0.082353  0  0.986509  0
H  H16  1  0.09690360  0.57332826  0.11712368  1  0.031179  0  0.092728  0.091402  0  0.988362  0
H  H17  1  0.21784017  0.58763667  0.89606374  1  0.028168  0  0.089187  0.082192  0  0.991168  0
H  H18  1  0.29358420  0.42261756  0.87891998  1  0.035176  0  0.093037  0.090481  0  0.984994  0
H  H19  1  0.28855443  0.78244130  0.47380946  1  0.645249  0  0.31446  0.359453  0  0.96043  0
C  C20  1  0.63982438  0.49765720  0.73138112  1  1.571225  0  0.277829  0.645799  0  4.011511  0
C  C21  1  0.63872077  0.72963726  0.49552169  1  1.538126  0  0.26216  0.64576  0  4.090893  0
C  C22  1  0.35883957  0.50118325  0.27032549  1  1.540324  0  0.277984  0.644053  0  4.016373  0
C  C23  1  0.36227148  0.27235396  0.50675876  1  1.548818  0  0.266551  0.637217  0  4.094239  0
C  C24  1  0.56505400  0.86835429  0.49768680  1  -0.077828  0  -0.036065  -0.196727  0  3.987824  0
C  C25  1  0.43078020  0.13189179  0.50573380  1  -0.017511  0  -0.013357  -0.016911  0  4.005703  0
C  C26  1  0.35419151  0.93441736  0.48790776  1  0.577718  0  0.093582  0.31397  0  4.06508  0
C  C27  1  0.64027049  0.06692896  0.51442418  1  -0.128864  0  -0.099763  -0.13335  0  4.002703  0
C  C28  1  0.28858609  0.06632476  0.49330875  1  0.002349  0  -0.098245  -0.222776  0  3.92559  0
C  C29  1  0.70463644  0.93675770  0.51099287  1  0.040971  0  -0.084739  -0.06597  0  4.002118  0
C  C30  1  0.63033181  0.38301267  0.06975411  1  -0.000151  0  -0.155967  -0.169825  0  3.859319  0
C  C31  1  0.69946162  0.37803382  0.92182210  1  -0.063814  0  -0.154994  -0.170154  0  3.85053  0
C  C32  1  0.56024585  0.49703245  0.87617725  1  0.025652  0  -0.01519  0.009012  0  3.816895  0
C  C33  1  0.58924514  0.61354980  0.93374530  1  -0.055571  0  -0.154347  -0.166762  0  3.849921  0
C  C34  1  0.49955111  0.61858327  0.08155384  1  -0.018248  0  -0.153674  -0.170794  0  3.842754  0
C  C35  1  0.42985771  0.49903711  0.12532350  1  0.057387  0  -0.014497  0.012474  0  3.814938  0
C  C36  1  0.24368067  0.49501588  0.07230726  1  -0.03824  0  -0.163315  -0.179176  0  3.892486  0
C  C37  1  0.31712362  0.50100198  0.92542781  1  -0.01643  0  -0.16329  -0.177582  0  3.894048  0
O  O38  1  0.84160647  0.48984091  0.67832408  1  -1.275056  0  -0.235731  -0.598388  0  2.339955  0
O  O39  1  0.50341322  0.67191343  0.48186603  1  -1.258004  0  -0.240452  -0.606079  0  2.394975  0
O  O40  1  0.50659274  0.49046196  0.32456261  1  -1.268753  0  -0.237274  -0.604195  0  2.352  0
O  O41  1  0.17233762  0.32739897  0.49689466  1  -1.264694  0  -0.238646  -0.597202  0  2.35024  0
O  O42  1  0.15761947  0.51331951  0.32850996  1  -1.275109  0  -0.23187  -0.589842  0  2.362723  0
O  O43  1  0.50199607  0.32649007  0.51525247  1  -1.266442  0  -0.23839  -0.597177  0  2.355242  0
O  O44  1  0.49906642  0.50847053  0.67235185  1  -1.268364  0  -0.231844  -0.596115  0  2.374867  0
O  O45  1  0.82522060  0.67462821  0.50880974  1  -1.263236  0  -0.231788  -0.57359  0  2.340002  0
O  O46  1  0.19667296  0.55749896  0.55825919  1  -1.414619  0  -0.449293  -0.988813  0  2.183876  0
O  O47  1  0.80808661  0.44409870  0.44401109  1  -1.402914  0  -0.448857  -0.989711  0  2.200072  0
O  O48  1  0.21265258  0.87488387  0.47372004  1  -1.161547  0  -0.343051  -0.437832  0  2.312296  0
