# generated using pymatgen
data_Cd3P2H48C42S2(NCl)6
_symmetry_space_group_name_H-M   'P 1'
_cell_length_a   9.03275674
_cell_length_b   11.22814754
_cell_length_c   13.14730000
_cell_angle_alpha   99.86895095
_cell_angle_beta   109.93727106
_cell_angle_gamma   94.49948524
_symmetry_Int_Tables_number   1
_chemical_formula_structural   Cd3P2H48C42S2(NCl)6
_chemical_formula_sum   'Cd3 P2 H48 C42 S2 N6 Cl6'
_cell_volume   1221.38416730
_cell_formula_units_Z   1
loop_
 _symmetry_equiv_pos_site_id
 _symmetry_equiv_pos_as_xyz
  1  'x, y, z'
loop_
 _atom_site_type_symbol
 _atom_site_label
 _atom_site_symmetry_multiplicity
 _atom_site_fract_x
 _atom_site_fract_y
 _atom_site_fract_z
 _atom_site_occupancy
 _atom_site_hle17_bader_spin_density
 _atom_site_hle17_ddec_charge
 _atom_site_hle17_ddec_spin_density
 _atom_site_hle17_ddec_sum_bond_order
 _atom_site_hle17_magmom
 _atom_site_hse06_10hf_bader_spin_density
 _atom_site_hse06_10hf_ddec_charge
 _atom_site_hse06_10hf_ddec_spin_density
 _atom_site_hse06_10hf_ddec_sum_bond_order
 _atom_site_hse06_10hf_magmom
 _atom_site_hse06_bader_spin_density
 _atom_site_hse06_ddec_charge
 _atom_site_hse06_ddec_spin_density
 _atom_site_hse06_ddec_sum_bond_order
 _atom_site_hse06_magmom
 _atom_site_pbe_bader_charge
 _atom_site_pbe_bader_spin_density
 _atom_site_pbe_cm5_charge
 _atom_site_pbe_ddec_charge
 _atom_site_pbe_ddec_spin_density
 _atom_site_pbe_ddec_sum_bond_order
 _atom_site_pbe_magmom
Cd  Cd0  1  0.99161418  0.12195522  0.28978709  1  0  0.895553  0  1.996494  0  0  0.735353  0  2.466431  0  0  0.780047  0  2.426441  0  1.052954  0  0.55619  0.704131  0  2.493551  0
Cd  Cd1  1  0.00838622  0.87804468  0.71021383  1  0  0.895533  0  1.99653  0  0  0.735331  0  2.466474  0  0  0.780022  0  2.426484  0  1.052935  0  0.556176  0.704107  0  2.493595  0
Cd  Cd2  1  0.00000047  0.99999898  0.00000004  1  0  0.942857  0  1.913758  0  0  0.772629  0  2.365664  0  0  0.821119  0  2.326465  0  1.147001  0  0.58984  0.738288  0  2.392339  0
P  P3  1  0.62830034  0.98808544  0.32635322  1  0  0.822929  0  4.00633  0  0  0.763987  0  4.445567  0  0  0.784543  0  4.447416  0  1.714964  0  0.146886  0.749754  0  4.443923  0
P  P4  1  0.37169923  0.01191628  0.67364777  1  0  0.822899  0  4.006383  0  0  0.763931  0  4.445646  0  0  0.78449  0  4.447491  0  1.71493  0  0.146864  0.749696  0  4.444004  0
H  H5  1  0.89291061  0.37806072  0.25930909  1  0  0.066951  0  0.964352  0  0  0.076208  0  1.030779  0  0  0.078082  0  1.029155  0  0.088302  0  0.102555  0.074745  0  1.032038  0
H  H6  1  0.10709332  0.62193917  0.74069189  1  0  0.066962  0  0.96437  0  0  0.07622  0  1.030789  0  0  0.078095  0  1.029165  0  0.088306  0  0.102557  0.074757  0  1.032048  0
H  H7  1  0.78971341  0.55980394  0.33828418  1  0  0.113054  0  0.930769  0  0  0.122281  0  0.988498  0  0  0.12627  0  0.986471  0  0.10424  0  0.109961  0.118815  0  0.991124  0
H  H8  1  0.21028799  0.44019505  0.66171455  1  0  0.11309  0  0.930764  0  0  0.122314  0  0.988487  0  0  0.126304  0  0.986457  0  0.104189  0  0.109967  0.118848  0  0.991113  0
H  H9  1  0.72078766  0.55440016  0.50598273  1  0  0.102465  0  0.962604  0  0  0.109412  0  1.028568  0  0  0.112204  0  1.026363  0  0.132575  0  0.098751  0.107136  0  1.030455  0
H  H10  1  0.27920903  0.44559883  0.49401337  1  0  0.10252  0  0.962583  0  0  0.109466  0  1.028537  0  0  0.112258  0  1.026331  0  0.132431  0  0.098779  0.107191  0  1.030421  0
H  H11  1  0.75052834  0.36553295  0.58591917  1  0  0.109147  0  0.958756  0  0  0.119401  0  1.017792  0  0  0.1215  0  1.019533  0  0.095288  0  0.104213  0.117855  0  1.016711  0
H  H12  1  0.24946753  0.63446786  0.41407854  1  0  0.109155  0  0.95868  0  0  0.119389  0  1.017755  0  0  0.121489  0  1.019494  0  0.095272  0  0.10422  0.117847  0  1.016666  0
H  H13  1  0.89455196  0.18533903  0.60184878  1  0  0.101303  0  0.916677  0  0  0.118813  0  0.973261  0  0  0.120318  0  0.972774  0  0.050716  0  0.098495  0.117731  0  0.973777  0
H  H14  1  0.10544626  0.81466178  0.39815176  1  0  0.101328  0  0.916634  0  0  0.118836  0  0.973226  0  0  0.120345  0  0.972741  0  0.050742  0  0.098512  0.117755  0  0.973741  0
H  H15  1  0.94792516  0.11339253  0.49251049  1  0  0.076154  0  0.964988  0  0  0.088166  0  1.038958  0  0  0.089352  0  1.038158  0  0.070743  0  0.086833  0.087372  0  1.039416  0
H  H16  1  0.05207306  0.88660828  0.50749005  1  0  0.076146  0  0.965063  0  0  0.088152  0  1.03904  0  0  0.089341  0  1.038243  0  0.070714  0  0.086834  0.087359  0  1.039498  0
H  H17  1  0.60041327  0.11501952  0.48148641  1  0  0.126659  0  0.932707  0  0  0.143623  0  0.988448  0  0  0.1454  0  0.989099  0  0.072931  0  0.10649  0.142357  0  0.988055  0
H  H18  1  0.39958478  0.88498038  0.51851395  1  0  0.126655  0  0.9327  0  0  0.14361  0  0.988451  0  0  0.145388  0  0.989101  0  0.072963  0  0.106487  0.142345  0  0.988055  0
H  H19  1  0.71638997  0.99706584  0.51977288  1  0  0.126658  0  0.967905  0  0  0.137008  0  1.036201  0  0  0.139337  0  1.035717  0  0.101906  0  0.09527  0.135062  0  1.036991  0
H  H20  1  0.28361078  0.00293588  0.48022839  1  0  0.126634  0  0.967886  0  0  0.137008  0  1.036153  0  0  0.139338  0  1.03567  0  0.101981  0  0.095271  0.135063  0  1.036945  0
H  H21  1  0.56147121  0.81105134  0.38601617  1  0  0.131221  0  0.965758  0  0  0.140506  0  1.033569  0  0  0.143303  0  1.032308  0  0.136127  0  0.09579  0.138438  0  1.034735  0
H  H22  1  0.43852901  0.18894764  0.61398533  1  0  0.131252  0  0.965743  0  0  0.140531  0  1.033553  0  0  0.143329  0  1.032291  0  0.136151  0  0.095802  0.138463  0  1.03472  0
H  H23  1  0.39087526  0.88505625  0.33121465  1  0  0.124472  0  0.948632  0  0  0.140952  0  1.005658  0  0  0.142669  0  1.006183  0  0.062908  0  0.097899  0.139673  0  1.005425  0
H  H24  1  0.60912497  0.11494274  0.66878609  1  0  0.12446  0  0.948687  0  0  0.140945  0  1.005699  0  0  0.142663  0  1.006223  0  0.062894  0  0.097883  0.139666  0  1.005467  0
H  H25  1  0.36843925  0.79740662  0.13923437  1  0  0.080221  0  0.953558  0  0  0.096569  0  1.017872  0  0  0.097352  0  1.018199  0  0.042714  0  0.087746  0.0959  0  1.017745  0
H  H26  1  0.63156132  0.20259420  0.86076672  1  0  0.080295  0  0.953662  0  0  0.096632  0  1.017948  0  0  0.097413  0  1.018277  0  0.042688  0  0.087788  0.095967  0  1.017825  0
H  H27  1  0.55332339  0.74220617  0.18881863  1  0  0.084079  0  0.957881  0  0  0.099209  0  1.023079  0  0  0.100422  0  1.0231  0  0.072365  0  0.089095  0.098221  0  1.023389  0
H  H28  1  0.44667837  0.25779464  0.81118197  1  0  0.084102  0  0.957878  0  0  0.09923  0  1.023058  0  0  0.100443  0  1.023078  0  0.072366  0  0.089111  0.098241  0  1.023369  0
H  H29  1  0.45285469  0.41407922  0.33677397  1  0  0.062062  0  0.952766  0  0  0.069019  0  1.019445  0  0  0.071292  0  1.018413  0  0.071744  0  0.099765  0.06724  0  1.02042  0
H  H30  1  0.54714165  0.58591794  0.66322484  1  0  0.062002  0  0.952963  0  0  0.068978  0  1.019609  0  0  0.071251  0  1.018576  0  0.071708  0  0.099745  0.067199  0  1.020583  0
H  H31  1  0.16394987  0.34061177  0.23959984  1  0  0.08963  0  0.999725  0  0  0.093411  0  1.075608  0  0  0.096243  0  1.074795  0  0.096689  0  0.08455  0.09132  0  1.07641  0
H  H32  1  0.83604617  0.65938996  0.76039576  1  0  0.089633  0  0.999753  0  0  0.093403  0  1.075651  0  0  0.096234  0  1.074839  0  0.096854  0  0.084539  0.09131  0  1.076457  0
H  H33  1  0.99610289  0.46801190  0.11900333  1  0  0.080268  0  0.953244  0  0  0.092697  0  1.013281  0  0  0.095245  0  1.011531  0  0.053822  0  0.09634  0.09068  0  1.014827  0
H  H34  1  0.00389551  0.53198983  0.88099206  1  0  0.080303  0  0.953223  0  0  0.092716  0  1.013248  0  0  0.095263  0  1.0115  0  0.053879  0  0.09635  0.090699  0  1.014794  0
H  H35  1  0.13143184  0.66731831  0.10466204  1  0  0.10045  0  0.985886  0  0  0.108869  0  1.052801  0  0  0.111919  0  1.051703  0  0.071019  0  0.094187  0.106598  0  1.053911  0
H  H36  1  0.86857227  0.33268251  0.89533531  1  0  0.10042  0  0.985948  0  0  0.108843  0  1.052858  0  0  0.111895  0  1.051764  0  0.071037  0  0.094165  0.106572  0  1.053967  0
H  H37  1  0.41625610  0.10605922  0.28113849  1  0  0.129941  0  0.960835  0  0  0.139634  0  1.028912  0  0  0.142176  0  1.028186  0  0.09827  0  0.094461  0.137695  0  1.029633  0
H  H38  1  0.58374530  0.89393976  0.71886177  1  0  0.129934  0  0.96084  0  0  0.139618  0  1.028917  0  0  0.142161  0  1.028191  0  0.098262  0  0.094446  0.137677  0  1.02964  0
H  H39  1  0.59255819  0.17753042  0.27224382  1  0  0.114478  0  0.961744  0  0  0.129878  0  1.020379  0  0  0.13106  0  1.022379  0  0.040051  0  0.102069  0.128955  0  1.019154  0
H  H40  1  0.40744374  0.82247131  0.72775696  1  0  0.114489  0  0.961725  0  0  0.129882  0  1.02036  0  0  0.131064  0  1.02236  0  0.040078  0  0.102073  0.128959  0  1.019136  0
H  H41  1  0.54179687  0.01512455  0.09567817  1  0  0.08642  0  0.947822  0  0  0.101275  0  1.015064  0  0  0.102184  0  1.015673  0  0.063484  0  0.092791  0.100638  0  1.014647  0
H  H42  1  0.45820454  0.98487444  0.90432285  1  0  0.086477  0  0.947765  0  0  0.101304  0  1.015028  0  0  0.102212  0  1.015637  0  0.063411  0  0.092808  0.100667  0  1.014612  0
H  H43  1  0.34916799  0.97015206  0.09691107  1  0  0.085753  0  0.979393  0  0  0.098977  0  1.048606  0  0  0.100458  0  1.047873  0  0.095894  0  0.08518  0.09784  0  1.049272  0
H  H44  1  0.65083223  0.02984692  0.90308891  1  0  0.085722  0  0.979462  0  0  0.098932  0  1.048687  0  0  0.100419  0  1.047945  0  0.095891  0  0.08516  0.097793  0  1.049358  0
H  H45  1  0.05210690  0.24748249  0.94719234  1  0  0.059208  0  1.00339  0  0  0.066188  0  1.073813  0  0  0.068522  0  1.071001  0  0.08894  0  0.094526  0.064473  0  1.075795  0
H  H46  1  0.94789315  0.75251558  0.05280898  1  0  0.059235  0  1.003349  0  0  0.066212  0  1.073777  0  0  0.068547  0  1.070964  0  0.088948  0  0.094532  0.064497  0  1.075758  0
H  H47  1  0.23591846  0.42191342  0.94222706  1  0  0.09345  0  0.950586  0  0  0.10657  0  1.006929  0  0  0.109206  0  1.006694  0  0.04883  0  0.103365  0.10456  0  1.007535  0
H  H48  1  0.76407758  0.57808831  0.05777539  1  0  0.093443  0  0.950776  0  0  0.106593  0  1.007072  0  0  0.10923  0  1.006836  0  0.048354  0  0.103366  0.104582  0  1.007677  0
H  H49  1  0.53319615  0.41559652  0.02145743  1  0  0.083472  0  0.949718  0  0  0.098423  0  1.004427  0  0  0.100358  0  1.003191  0  0.062129  0  0.105654  0.097035  0  1.005288  0
H  H50  1  0.46680071  0.58440338  0.97854266  1  0  0.08346  0  0.949716  0  0  0.098399  0  1.004445  0  0  0.100333  0  1.003213  0  0.062115  0  0.105637  0.097011  0  1.005305  0
H  H51  1  0.62458715  0.23645191  0.10085681  1  0  0.105295  0  0.994564  0  0  0.114015  0  1.060484  0  0  0.117062  0  1.059818  0  0.121093  0  0.090389  0.111758  0  1.061235  0
H  H52  1  0.37541225  0.76354890  0.89914172  1  0  0.105326  0  0.994575  0  0  0.114049  0  1.060486  0  0  0.117096  0  1.05982  0  0.121074  0  0.090421  0.111793  0  1.061233  0
C  C53  1  0.86007558  0.37991073  0.33206512  1  0  0.119399  0  3.735628  0  0  0.090009  0  3.987241  0  0  0.096482  0  4.007503  0  0.429037  0  0.036386  0.085987  0  3.973227  0
C  C54  1  0.13992600  0.62008917  0.66793683  1  0  0.11939  0  3.735654  0  0  0.09  0  3.987265  0  0  0.096474  0  4.007526  0  0.428997  0  0.03638  0.085979  0  3.97325  0
C  C55  1  0.80403953  0.48037514  0.37613141  1  0  -0.11259  0  3.72953  0  0  -0.128369  0  3.985482  0  0  -0.13534  0  4.00621  0  0.000894  0  -0.08096  -0.123949  0  3.971776  0
C  C56  1  0.19596187  0.51962384  0.62386732  1  0  -0.112584  0  3.729517  0  0  -0.128357  0  3.985449  0  0  -0.135329  0  4.006177  0  0.000976  0  -0.080973  -0.123938  0  3.971743  0
C  C57  1  0.76358232  0.47622359  0.46900742  1  0  0.014176  0  3.709101  0  0  -0.00572  0  3.961446  0  0  -0.001334  0  3.97907  0  -0.084737  0  -0.061879  -0.008181  0  3.9492  0
C  C58  1  0.23641590  0.52377722  0.53099084  1  0  0.014025  0  3.709175  0  0  -0.005862  0  3.961507  0  0  -0.001475  0  3.979131  0  -0.084738  0  -0.061909  -0.008323  0  3.949262  0
C  C59  1  0.78087339  0.37181512  0.51334193  1  0  -0.167598  0  3.691538  0  0  -0.182784  0  3.934946  0  0  -0.191113  0  3.957082  0  -0.007917  0  -0.084098  -0.177244  0  3.919945  0
C  C60  1  0.21912518  0.62818752  0.48665744  1  0  -0.167519  0  3.691493  0  0  -0.182725  0  3.93488  0  0  -0.191054  0  3.957015  0  -0.007758  0  -0.084057  -0.177186  0  3.919881  0
C  C61  1  0.83818830  0.27371715  0.46489931  1  0  0.259155  0  3.708053  0  0  0.262761  0  3.948877  0  0  0.271006  0  3.969697  0  0.487343  0  0.119217  0.257291  0  3.934595  0
C  C62  1  0.16181228  0.72628367  0.53510179  1  0  0.259111  0  3.708116  0  0  0.262793  0  3.948849  0  0  0.271042  0  3.969671  0  0.487277  0  0.1192  0.257323  0  3.934569  0
C  C63  1  0.85438235  0.15961166  0.51105621  1  0  -0.155953  0  3.713209  0  0  -0.20148  0  3.961034  0  0  -0.20253  0  3.973169  0  -0.008065  0  -0.157664  -0.20062  0  3.95245  0
C  C64  1  0.14561858  0.84039098  0.48894447  1  0  -0.155966  0  3.713242  0  0  -0.201486  0  3.961002  0  0  -0.202549  0  3.973156  0  -0.008021  0  -0.157679  -0.200627  0  3.952419  0
C  C65  1  0.69923066  0.06895851  0.47100094  1  0  -0.333518  0  3.602321  0  0  -0.353057  0  3.849042  0  0  -0.35944  0  3.859852  0  -0.502108  0  -0.161688  -0.348331  0  3.841557  0
C  C66  1  0.30076739  0.93104139  0.52900019  1  0  -0.333419  0  3.602219  0  0  -0.353004  0  3.849031  0  0  -0.359387  0  3.85985  0  -0.50219  0  -0.161647  -0.34828  0  3.841549  0
C  C67  1  0.49587360  0.85308328  0.31730106  1  0  -0.330457  0  3.609542  0  0  -0.348144  0  3.851888  0  0  -0.354624  0  3.862316  0  -0.511023  0  -0.161793  -0.343575  0  3.844816  0
C  C68  1  0.50412798  0.14691662  0.68270013  1  0  -0.330513  0  3.609617  0  0  -0.348195  0  3.851928  0  0  -0.354675  0  3.862349  0  -0.511006  0  -0.161825  -0.343617  0  3.844836  0
C  C69  1  0.44611251  0.76045032  0.20696311  1  0  -0.146657  0  3.703878  0  0  -0.193811  0  3.948663  0  0  -0.194389  0  3.960338  0  -0.029631  0  -0.160451  -0.193171  0  3.940415  0
C  C70  1  0.55388907  0.23954958  0.79303885  1  0  -0.146749  0  3.703955  0  0  -0.193876  0  3.948709  0  0  -0.194454  0  3.96038  0  -0.02963  0  -0.160483  -0.193247  0  3.940477  0
C  C71  1  0.36141958  0.64233223  0.21283775  1  0  0.247407  0  3.740293  0  0  0.258088  0  3.985046  0  0  0.264548  0  4.005754  0  0.60658  0  0.112584  0.253865  0  3.97086  0
C  C72  1  0.63858300  0.35766676  0.78716050  1  0  0.247505  0  3.740478  0  0  0.258169  0  3.985235  0  0  0.26463  0  4.005942  0  0.606585  0  0.112597  0.253944  0  3.971055  0
C  C73  1  0.37785479  0.46850913  0.28457019  1  0  0.119404  0  3.755456  0  0  0.098677  0  4.010702  0  0  0.10427  0  4.028342  0  0.497522  0  0.037997  0.095196  0  3.998675  0
C  C74  1  0.62214025  0.53149351  0.71542759  1  0  0.119428  0  3.755349  0  0  0.098704  0  4.010581  0  0  0.104299  0  4.028219  0  0.497508  0  0.037974  0.095225  0  3.998551  0
C  C75  1  0.21522240  0.42730257  0.23061368  1  0  -0.132985  0  3.771437  0  0  -0.146628  0  4.020585  0  0  -0.153727  0  4.044312  0  -0.074893  0  -0.098972  -0.142232  0  4.004683  0
C  C76  1  0.78477783  0.57269641  0.76938250  1  0  -0.133071  0  3.771536  0  0  -0.146723  0  4.020709  0  0  -0.153823  0  4.044436  0  -0.075099  0  -0.098987  -0.142327  0  4.004807  0
C  C77  1  0.12317752  0.49864581  0.16427002  1  0  -0.024626  0  3.785531  0  0  -0.039398  0  4.030906  0  0  -0.037511  0  4.052054  0  -0.07019  0  -0.082971  -0.040215  0  4.016306  0
C  C78  1  0.87682123  0.50135775  0.83572496  1  0  -0.024561  0  3.785458  0  0  -0.039297  0  4.030825  0  0  -0.037409  0  4.051972  0  -0.06976  0  -0.082929  -0.040113  0  4.016224  0
C  C79  1  0.19728727  0.60800835  0.15540490  1  0  -0.187829  0  3.738097  0  0  -0.204047  0  3.979138  0  0  -0.211717  0  4.001973  0  -0.117835  0  -0.098785  -0.199173  0  3.963965  0
C  C80  1  0.80271248  0.39199429  0.84459398  1  0  -0.187818  0  3.738122  0  0  -0.204048  0  3.979182  0  0  -0.211723  0  4.002018  0  -0.118273  0  -0.098727  -0.199167  0  3.963995  0
C  C81  1  0.51247916  0.09046212  0.24879495  1  0  -0.333391  0  3.621012  0  0  -0.35251  0  3.867214  0  0  -0.358769  0  3.878012  0  -0.429553  0  -0.164744  -0.347922  0  3.859662  0
C  C82  1  0.48752159  0.90953961  0.75120555  1  0  -0.333398  0  3.621042  0  0  -0.352488  0  3.867172  0  0  -0.35875  0  3.877967  0  -0.429543  0  -0.164728  -0.3479  0  3.859623  0
C  C83  1  0.44610137  0.04658018  0.12258818  1  0  -0.155901  0  3.69853  0  0  -0.201328  0  3.940082  0  0  -0.202462  0  3.951419  0  -0.044064  0  -0.162223  -0.200385  0  3.932139  0
C  C84  1  0.55390021  0.95341972  0.87741301  1  0  -0.155958  0  3.698652  0  0  -0.201297  0  3.940054  0  0  -0.202444  0  3.951418  0  -0.044285  0  -0.162226  -0.200346  0  3.932091  0
C  C85  1  0.38698141  0.15031866  0.06894636  1  0  0.278452  0  3.682833  0  0  0.283775  0  3.923549  0  0  0.292785  0  3.943674  0  0.495224  0  0.126113  0.27783  0  3.909769  0
C  C86  1  0.61301999  0.84968032  0.93105466  1  0  0.278474  0  3.682731  0  0  0.283776  0  3.923459  0  0  0.292785  0  3.943581  0  0.495457  0  0.126074  0.277828  0  3.909689  0
C  C87  1  0.18037921  0.25014325  0.98204518  1  0  0.137057  0  3.745096  0  0  0.106386  0  3.99787  0  0  0.113631  0  4.017208  0  0.50112  0  0.035235  0.101811  0  3.984374  0
C  C88  1  0.81961883  0.74985665  0.01795442  1  0  0.137023  0  3.745114  0  0  0.106345  0  3.997893  0  0  0.113589  0  4.017233  0  0.501298  0  0.035209  0.101771  0  3.984396  0
C  C89  1  0.28364748  0.34662338  0.97882755  1  0  -0.127403  0  3.756746  0  0  -0.142156  0  4.011465  0  0  -0.149732  0  4.033555  0  -0.049886  0  -0.090298  -0.137279  0  3.996509  0
C  C90  1  0.71635121  0.65337378  0.02117560  1  0  -0.127507  0  3.756815  0  0  -0.142275  0  4.0115  0  0  -0.149852  0  4.03359  0  -0.049436  0  -0.090353  -0.137396  0  3.996543  0
C  C91  1  0.44666583  0.34317564  0.02289106  1  0  0.004984  0  3.751576  0  0  -0.01376  0  4.002914  0  0  -0.009194  0  4.021243  0  -0.058183  0  -0.067682  -0.016303  0  3.989924  0
C  C92  1  0.55332921  0.65682700  0.97710900  1  0  0.005081  0  3.751558  0  0  -0.013657  0  4.002894  0  0  -0.009094  0  4.021225  0  -0.058149  0  -0.067632  -0.016201  0  3.989904  0
C  C93  1  0.49823935  0.24405486  0.06811008  1  0  -0.169247  0  3.694516  0  0  -0.185728  0  3.937349  0  0  -0.194544  0  3.959281  0  0.000562  0  -0.091317  -0.180089  0  3.922566  0
C  C94  1  0.50175969  0.75594413  0.93189038  1  0  -0.169291  0  3.694526  0  0  -0.185781  0  3.937373  0  0  -0.194596  0  3.959303  0  0.000532  0  -0.091327  -0.180144  0  3.922593  0
S  S95  1  0.80143733  0.93207790  0.27489426  1  0  -0.529449  0  1.979677  0  0  -0.475948  0  2.332921  0  0  -0.495513  0  2.324287  0  -0.698841  0  -0.190174  -0.462203  0  2.339269  0
S  S96  1  0.19856408  0.06792108  0.72510827  1  0  -0.529436  0  1.979747  0  0  -0.475927  0  2.333001  0  0  -0.495491  0  2.324365  0  -0.698831  0  -0.190153  -0.462183  0  2.339351  0
N  N97  1  0.87689856  0.27870412  0.37483886  1  0  -0.385909  0  3.243604  0  0  -0.311446  0  3.497265  0  0  -0.332191  0  3.517902  0  -1.233335  0  -0.332242  -0.29717  0  3.48281  0
N  N98  1  0.12310572  0.72129760  0.62516323  1  0  -0.385938  0  3.243703  0  0  -0.311506  0  3.497348  0  0  -0.332251  0  3.517982  0  -1.233314  0  -0.332276  -0.297228  0  3.482889  0
N  N99  1  0.45085272  0.57328414  0.27652173  1  0  -0.358937  0  3.042254  0  0  -0.326239  0  3.303741  0  0  -0.33777  0  3.318821  0  -1.195873  0  -0.323218  -0.31826  0  3.293401  0
N  N100  1  0.54914680  0.42671119  0.72347755  1  0  -0.358996  0  3.042227  0  0  -0.326305  0  3.303737  0  0  -0.337836  0  3.318816  0  -1.195815  0  -0.32326  -0.318325  0  3.293397  0
N  N101  1  0.22913481  0.15370242  0.02569338  1  0  -0.371198  0  3.185388  0  0  -0.303094  0  3.439574  0  0  -0.324148  0  3.460566  0  -1.233869  0  -0.320764  -0.288534  0  3.42487  0
N  N102  1  0.77086623  0.84629473  0.97430880  1  0  -0.371131  0  3.185427  0  0  -0.303014  0  3.43959  0  0  -0.324066  0  3.46058  0  -1.234043  0  -0.320705  -0.288455  0  3.424887  0
Cl  Cl103  1  0.12485885  0.94591640  0.19378171  1  0  -0.553242  0  1.018524  0  0  -0.485175  0  1.301167  0  0  -0.5051  0  1.282637  0  -0.645633  0  -0.28842  -0.47058  0  1.313758  0
Cl  Cl104  1  0.87513902  0.05408258  0.80621772  1  0  -0.553207  0  1.01849  0  0  -0.485159  0  1.30115  0  0  -0.505081  0  1.282621  0  -0.645631  0  -0.288417  -0.470565  0  1.313744  0
Cl  Cl105  1  0.88887689  0.18388388  0.09910600  1  0  -0.545538  0  1.010882  0  0  -0.479769  0  1.2996  0  0  -0.49671  0  1.277433  0  -0.645418  0  -0.278556  -0.467497  0  1.314966  0
Cl  Cl106  1  0.11112145  0.81611144  0.90089300  1  0  -0.545526  0  1.010863  0  0  -0.479766  0  1.299591  0  0  -0.496705  0  1.277417  0  -0.645445  0  -0.278551  -0.467493  0  1.314953  0
Cl  Cl107  1  0.26647909  0.21197220  0.41825696  1  0  -0.58034  0  0.872102  0  0  -0.515875  0  1.119687  0  0  -0.531965  0  1.1001  0  -0.661386  0  -0.323005  -0.504213  0  1.133439  0
Cl  Cl108  1  0.73352183  0.78803044  0.58174220  1  0  -0.580338  0  0.87213  0  0  -0.515862  0  1.119716  0  0  -0.531947  0  1.100119  0  -0.66138  0  -0.323  -0.504198  0  1.133467  0
