# generated using pymatgen
data_VCuAsH8C10(NO3)2
_symmetry_space_group_name_H-M   'P 1'
_cell_length_a   5.61463134
_cell_length_b   10.25641404
_cell_length_c   11.70944822
_cell_angle_alpha   72.69925438
_cell_angle_beta   80.78320159
_cell_angle_gamma   88.61997609
_symmetry_Int_Tables_number   1
_chemical_formula_structural   VCuAsH8C10(NO3)2
_chemical_formula_sum   'V2 Cu2 As2 H16 C20 N4 O12'
_cell_volume   635.28248228
_cell_formula_units_Z   2
loop_
 _symmetry_equiv_pos_site_id
 _symmetry_equiv_pos_as_xyz
  1  'x, y, z'
loop_
 _atom_site_type_symbol
 _atom_site_label
 _atom_site_symmetry_multiplicity
 _atom_site_fract_x
 _atom_site_fract_y
 _atom_site_fract_z
 _atom_site_occupancy
 _atom_site_hle17_bader_spin_density
 _atom_site_hle17_ddec_charge
 _atom_site_hle17_ddec_spin_density
 _atom_site_hle17_ddec_sum_bond_order
 _atom_site_hle17_magmom
 _atom_site_hse06_10hf_bader_spin_density
 _atom_site_hse06_10hf_ddec_charge
 _atom_site_hse06_10hf_ddec_spin_density
 _atom_site_hse06_10hf_ddec_sum_bond_order
 _atom_site_hse06_10hf_magmom
 _atom_site_hse06_bader_spin_density
 _atom_site_hse06_ddec_charge
 _atom_site_hse06_ddec_spin_density
 _atom_site_hse06_ddec_sum_bond_order
 _atom_site_hse06_magmom
 _atom_site_pbe_bader_spin_density
 _atom_site_pbe_cm5_charge
 _atom_site_pbe_ddec_charge
 _atom_site_pbe_ddec_spin_density
 _atom_site_pbe_ddec_sum_bond_order
 _atom_site_pbe_magmom
V  V0  1  0.11741145  0.78870422  0.25791604  1  0  1.930738  0  2.996432  0  0  1.970306  0  3.419801  0  0  2.063681  0  3.389057  0  0  1.437061  1.894873  0  3.4633  0
V  V1  1  0.88264175  0.21130486  0.74204128  1  0  1.930287  0  2.996539  0  0  1.969793  0  3.419864  0  0  2.062975  0  3.389494  0  0  1.437  1.894527  0  3.463167  0
Cu  Cu2  1  0.68387146  0.87844109  0.82760497  1  0  0.910318  0  1.946289  0  0  0.861647  0  2.381231  0  0  0.893595  0  2.325328  0  0  0.749661  0.843738  0  2.417165  0
Cu  Cu3  1  0.31600282  0.12151733  0.17243771  1  0  0.910122  0  1.944945  0  0  0.860996  0  2.380223  0  0  0.892664  0  2.324487  0  0  0.748947  0.84334  0  2.416078  0
As  As4  1  0.65366411  0.88866419  0.11351447  1  0  1.788189  0  4.048382  0  0  1.740275  0  4.527798  0  0  1.806371  0  4.479328  0  0  0.664718  1.694543  0  4.558868  0
As  As5  1  0.34639804  0.11125819  0.88641005  1  0  1.787749  0  4.04809  0  0  1.739836  0  4.527585  0  0  1.805923  0  4.479108  0  0  0.66465  1.694117  0  4.55864  0
H  H6  1  0.33697054  0.94187222  0.64782220  1  0  0.108488  0  0.927912  0  0  0.117347  0  0.986768  0  0  0.120091  0  0.984686  0  0  0.12506  0.115241  0  0.988452  0
H  H7  1  0.66302219  0.05814547  0.35221964  1  0  0.108493  0  0.927699  0  0  0.117368  0  0.986564  0  0  0.120127  0  0.984429  0  0  0.125138  0.115279  0  0.988243  0
H  H8  1  0.27174988  0.84979891  0.47658327  1  0  0.12432  0  0.964158  0  0  0.133797  0  1.023896  0  0  0.137564  0  1.022445  0  0  0.111722  0.131113  0  1.02487  0
H  H9  1  0.72824650  0.15023516  0.52343010  1  0  0.124348  0  0.964335  0  0  0.133849  0  1.02404  0  0  0.137606  0  1.022606  0  0  0.111704  0.131148  0  1.025045  0
H  H10  1  0.52559847  0.65754225  0.44148851  1  0  0.106563  0  0.934424  0  0  0.11765  0  0.992001  0  0  0.120479  0  0.989833  0  0  0.115638  0.115522  0  0.993626  0
H  H11  1  0.47439762  0.34246935  0.55853842  1  0  0.106486  0  0.934303  0  0  0.117484  0  0.992027  0  0  0.12029  0  0.989899  0  0  0.115586  0.115369  0  0.993632  0
H  H12  1  0.83481927  0.56358506  0.57415544  1  0  0.138737  0  0.96578  0  0  0.151656  0  1.017644  0  0  0.15622  0  1.013946  0  0  0.112965  0.148326  0  1.020616  0
H  H13  1  0.16524378  0.43644145  0.42585721  1  0  0.138755  0  0.965892  0  0  0.151646  0  1.017774  0  0  0.156206  0  1.014083  0  0  0.113122  0.148327  0  1.020743  0
H  H14  1  0.09036581  0.49924267  0.69566332  1  0  0.126082  0  0.95784  0  0  0.135748  0  1.016897  0  0  0.139209  0  1.015613  0  0  0.1178  0.133401  0  1.017461  0
H  H15  1  0.90962471  0.50077808  0.30432836  1  0  0.125903  0  0.958092  0  0  0.135643  0  1.017104  0  0  0.139086  0  1.015822  0  0  0.117768  0.133306  0  1.017668  0
H  H16  1  0.38210235  0.44549240  0.84111576  1  0  0.108413  0  0.93662  0  0  0.120667  0  0.992899  0  0  0.123748  0  0.990115  0  0  0.110801  0.118015  0  0.995649  0
H  H17  1  0.61785187  0.55449636  0.15891956  1  0  0.108273  0  0.936783  0  0  0.120527  0  0.993056  0  0  0.123606  0  0.990271  0  0  0.110728  0.117869  0  0.995828  0
H  H18  1  0.37926195  0.58785908  0.98650297  1  0  0.103109  0  0.954298  0  0  0.113555  0  1.017423  0  0  0.116395  0  1.016422  0  0  0.108034  0.111328  0  1.018614  0
H  H19  1  0.62074152  0.41216178  0.01352268  1  0  0.103023  0  0.9545  0  0  0.113435  0  1.017665  0  0  0.116245  0  1.01669  0  0  0.108039  0.11122  0  1.018846  0
H  H20  1  0.07953516  0.77249285  0.97838760  1  0  0.102617  0  0.95325  0  0  0.105791  0  1.021308  0  0  0.109109  0  1.017557  0  0  0.122651  0.103348  0  1.023945  0
H  H21  1  0.92046124  0.22754429  0.02162157  1  0  0.10265  0  0.952922  0  0  0.105761  0  1.021137  0  0  0.109067  0  1.0174  0  0  0.122695  0.103331  0  1.023773  0
C  C22  1  0.44449931  0.86003391  0.62595698  1  0  0.14398  0  3.650956  0  0  0.115525  0  3.90148  0  0  0.122749  0  3.918865  0  0  0.056919  0.110871  0  3.889792  0
C  C23  1  0.55547159  0.13997848  0.37407857  1  0  0.144094  0  3.651316  0  0  0.11565  0  3.901818  0  0  0.122898  0  3.919238  0  0  0.056837  0.111011  0  3.89018  0
C  C24  1  0.40880744  0.80739421  0.53277827  1  0  -0.109838  0  3.685504  0  0  -0.123459  0  3.936884  0  0  -0.130527  0  3.957939  0  0  -0.071963  -0.118857  0  3.922595  0
C  C25  1  0.59116730  0.19263456  0.46724844  1  0  -0.109836  0  3.686545  0  0  -0.123519  0  3.937906  0  0  -0.130601  0  3.95898  0  0  -0.071959  -0.118893  0  3.923635  0
C  C26  1  0.55171107  0.70064196  0.51324820  1  0  0.012546  0  3.678607  0  0  -0.009664  0  3.933383  0  0  -0.006009  0  3.950972  0  0  -0.053304  -0.011807  0  3.921341  0
C  C27  1  0.44829592  0.29937587  0.48677284  1  0  0.012693  0  3.678836  0  0  -0.009449  0  3.933709  0  0  -0.005808  0  3.951325  0  0  -0.053258  -0.011582  0  3.921646  0
C  C28  1  0.72493635  0.64857635  0.58680475  1  0  -0.114426  0  3.65232  0  0  -0.130863  0  3.891371  0  0  -0.136794  0  3.910522  0  0  -0.066344  -0.127383  0  3.879002  0
C  C29  1  0.27505420  0.35143725  0.41320416  1  0  -0.114634  0  3.652685  0  0  -0.131114  0  3.891782  0  0  -0.137048  0  3.910933  0  0  -0.066477  -0.127635  0  3.879424  0
C  C30  1  0.75281154  0.70623564  0.67795123  1  0  0.160466  0  3.765996  0  0  0.15626  0  4.009202  0  0  0.160959  0  4.031346  0  0  0.116309  0.153192  0  3.994542  0
C  C31  1  0.24716471  0.29377169  0.32208606  1  0  0.160558  0  3.765583  0  0  0.15656  0  4.008603  0  0  0.16127  0  4.030756  0  0  0.116242  0.153511  0  3.993995  0
C  C32  1  0.93005260  0.66248302  0.76095895  1  0  0.170146  0  3.76395  0  0  0.167584  0  4.007368  0  0  0.174635  0  4.028819  0  0  0.119164  0.162874  0  3.993234  0
C  C33  1  0.06990363  0.33752209  0.23906683  1  0  0.170079  0  3.763576  0  0  0.167298  0  4.007243  0  0  0.17434  0  4.028674  0  0  0.119027  0.162625  0  3.993159  0
C  C34  1  0.09263023  0.55741149  0.75962906  1  0  -0.127057  0  3.666174  0  0  -0.144276  0  3.910485  0  0  -0.152641  0  3.932937  0  0  -0.069125  -0.13886  0  3.894938  0
C  C35  1  0.90737637  0.44258183  0.24039838  1  0  -0.127073  0  3.666693  0  0  -0.144368  0  3.911144  0  0  -0.152721  0  3.933604  0  0  -0.069223  -0.138954  0  3.895606  0
C  C36  1  0.25583460  0.52797355  0.84153070  1  0  0.005672  0  3.696566  0  0  -0.01506  0  3.949625  0  0  -0.010121  0  3.967819  0  0  -0.064906  -0.018297  0  3.937713  0
C  C37  1  0.74416866  0.47203812  0.15849053  1  0  0.005836  0  3.696522  0  0  -0.014815  0  3.949534  0  0  -0.009884  0  3.967732  0  0  -0.06482  -0.018046  0  3.937613  0
C  C38  1  0.25432150  0.60510232  0.92164469  1  0  -0.127068  0  3.726482  0  0  -0.147444  0  3.992763  0  0  -0.154985  0  4.013496  0  0  -0.084469  -0.142661  0  3.979134  0
C  C39  1  0.74564958  0.39492642  0.07837805  1  0  -0.12701  0  3.726877  0  0  -0.1473  0  3.993148  0  0  -0.154826  0  4.013885  0  0  -0.084409  -0.142503  0  3.97951  0
C  C40  1  0.08763803  0.70831763  0.91890782  1  0  0.159465  0  3.66156  0  0  0.130135  0  3.91947  0  0  0.139001  0  3.934453  0  0  0.055336  0.123991  0  3.909863  0
C  C41  1  0.91232388  0.29170388  0.08111325  1  0  0.159322  0  3.661516  0  0  0.129872  0  3.91972  0  0  0.138725  0  3.934714  0  0  0.055099  0.123749  0  3.910175  0
N  N42  1  0.61299278  0.81069952  0.69557630  1  0  -0.321529  0  3.337939  0  0  -0.264391  0  3.619121  0  0  -0.279859  0  3.631126  0  0  -0.344814  -0.255023  0  3.611493  0
N  N43  1  0.38698305  0.18928228  0.30446596  1  0  -0.321794  0  3.337454  0  0  -0.2647  0  3.618634  0  0  -0.280197  0  3.630672  0  0  -0.344703  -0.255321  0  3.611055  0
N  N44  1  0.92904003  0.73478523  0.84126528  1  0  -0.333034  0  3.314725  0  0  -0.282725  0  3.605843  0  0  -0.298645  0  3.615415  0  0  -0.344208  -0.273192  0  3.60047  0
N  N45  1  0.07091960  0.26521686  0.15874223  1  0  -0.332812  0  3.313906  0  0  -0.282334  0  3.6051  0  0  -0.298179  0  3.614611  0  0  -0.344005  -0.27284  0  3.599804  0
O  O46  1  0.76789408  0.93126150  0.96346933  1  0  -0.85093  0  1.839335  0  0  -0.831423  0  2.157119  0  0  -0.860858  0  2.132687  0  0  -0.408672  -0.810847  0  2.172967  0
O  O47  1  0.23208026  0.06859780  0.03645718  1  0  -0.850816  0  1.837741  0  0  -0.831412  0  2.15555  0  0  -0.860863  0  2.131226  0  0  -0.408502  -0.810857  0  2.171419  0
O  O48  1  0.84822912  0.77160184  0.19185641  1  0  -0.898195  0  1.754542  0  0  -0.879803  0  2.046826  0  0  -0.917541  0  2.031863  0  0  -0.496356  -0.85034  0  2.057028  0
O  O49  1  0.15190040  0.22835587  0.80805788  1  0  -0.897988  0  1.754798  0  0  -0.879685  0  2.047196  0  0  -0.917341  0  2.032193  0  0  -0.496309  -0.850267  0  2.057367  0
O  O50  1  0.39483144  0.78305444  0.14843329  1  0  -0.89713  0  1.725092  0  0  -0.880782  0  2.01054  0  0  -0.914759  0  1.991565  0  0  -0.490733  -0.854337  0  2.024158  0
O  O51  1  0.60525442  0.21683952  0.85157447  1  0  -0.89695  0  1.725302  0  0  -0.880576  0  2.010765  0  0  -0.914458  0  1.991703  0  0  -0.490773  -0.854197  0  2.024398  0
O  O52  1  0.61808383  0.02583999  0.16729600  1  0  -0.813623  0  1.795966  0  0  -0.793172  0  2.105405  0  0  -0.822188  0  2.083256  0  0  -0.405505  -0.773452  0  2.119691  0
O  O53  1  0.38198772  0.97412844  0.83257566  1  0  -0.813315  0  1.796456  0  0  -0.792796  0  2.105948  0  0  -0.821839  0  2.083785  0  0  -0.405552  -0.77298  0  2.120038  0
O  O54  1  0.88305336  0.07233911  0.69886320  1  0  -0.823104  0  1.405553  0  0  -0.841897  0  1.694348  0  0  -0.874076  0  1.682691  0  0  -0.616672  -0.817497  0  1.704568  0
O  O55  1  0.11689376  0.92773235  0.30101965  1  0  -0.823223  0  1.405904  0  0  -0.841992  0  1.694828  0  0  -0.874148  0  1.683073  0  0  -0.61666  -0.81754  0  1.705105  0
O  O56  1  0.11676789  0.65538630  0.37659319  1  0  -0.783536  0  1.308129  0  0  -0.792394  0  1.56444  0  0  -0.824063  0  1.557725  0  0  -0.606417  -0.767512  0  1.57132  0
O  O57  1  0.88328539  0.34469934  0.62341680  1  0  -0.783596  0  1.30792  0  0  -0.792249  0  1.564072  0  0  -0.823854  0  1.557406  0  0  -0.606285  -0.767423  0  1.570916  0
