# generated using pymatgen
data_ZnH10C14O5
_symmetry_space_group_name_H-M   'P 1'
_cell_length_a   5.52759389
_cell_length_b   13.59041991
_cell_length_c   15.98996062
_cell_angle_alpha   90.00021824
_cell_angle_beta   89.99984000
_cell_angle_gamma   98.16405283
_symmetry_Int_Tables_number   1
_chemical_formula_structural   ZnH10C14O5
_chemical_formula_sum   'Zn4 H40 C56 O20'
_cell_volume   1189.02940396
_cell_formula_units_Z   4
loop_
 _symmetry_equiv_pos_site_id
 _symmetry_equiv_pos_as_xyz
  1  'x, y, z'
loop_
 _atom_site_type_symbol
 _atom_site_label
 _atom_site_symmetry_multiplicity
 _atom_site_fract_x
 _atom_site_fract_y
 _atom_site_fract_z
 _atom_site_occupancy
 _atom_site_hle17_bader_spin_density
 _atom_site_hle17_ddec_charge
 _atom_site_hle17_ddec_spin_density
 _atom_site_hle17_ddec_sum_bond_order
 _atom_site_hle17_magmom
 _atom_site_hse06_10hf_bader_spin_density
 _atom_site_hse06_10hf_ddec_charge
 _atom_site_hse06_10hf_ddec_spin_density
 _atom_site_hse06_10hf_ddec_sum_bond_order
 _atom_site_hse06_10hf_magmom
 _atom_site_hse06_bader_spin_density
 _atom_site_hse06_ddec_charge
 _atom_site_hse06_ddec_spin_density
 _atom_site_hse06_ddec_sum_bond_order
 _atom_site_hse06_magmom
 _atom_site_pbe_bader_charge
 _atom_site_pbe_bader_spin_density
 _atom_site_pbe_cm5_charge
 _atom_site_pbe_ddec_charge
 _atom_site_pbe_ddec_spin_density
 _atom_site_pbe_ddec_sum_bond_order
 _atom_site_pbe_magmom
Zn  Zn0  1  0.06510080  0.88812367  0.92012547  1  0  1.204126  0  1.714313  0  0  1.030284  0  2.200805  0  0  1.080124  0  2.134168  0  1.353337  0  0.707303  0.994937  0  2.247122  0
Zn  Zn1  1  0.43487927  0.11187081  0.42011736  1  0  1.203997  0  1.714392  0  0  1.030175  0  2.200911  0  0  1.080024  0  2.134269  0  1.353516  0  0.707281  0.994827  0  2.247226  0
Zn  Zn2  1  0.93490331  0.11188875  0.07987950  1  0  1.204087  0  1.714538  0  0  1.030262  0  2.201086  0  0  1.080103  0  2.134442  0  1.353484  0  0.707293  0.994915  0  2.247397  0
Zn  Zn3  1  0.56509018  0.88812525  0.57987572  1  0  1.204084  0  1.714614  0  0  1.030289  0  2.201159  0  0  1.080125  0  2.134519  0  1.353383  0  0.70726  0.994942  0  2.247471  0
H  H4  1  0.67161806  0.86538065  0.83296515  1  0  0.437663  0  0.864022  0  0  0.405961  0  0.92826  0  0  0.416357  0  0.913412  0  0.65232  0  0.298938  0.398635  0  0.938709  0
H  H5  1  0.82836584  0.13461238  0.33295892  1  0  0.437529  0  0.864171  0  0  0.405791  0  0.928458  0  0  0.416188  0  0.913609  0  0.652467  0  0.298894  0.398472  0  0.93889  0
H  H6  1  0.32838863  0.13462359  0.16703481  1  0  0.437658  0  0.864024  0  0  0.405965  0  0.928255  0  0  0.416361  0  0.913407  0  0.652258  0  0.298943  0.398637  0  0.938706  0
H  H7  1  0.17161189  0.86538145  0.66703541  1  0  0.437682  0  0.863996  0  0  0.405967  0  0.928258  0  0  0.416361  0  0.913412  0  0.652309  0  0.298933  0.398642  0  0.938705  0
H  H8  1  0.88322871  0.86797392  0.76830521  1  0  0.442142  0  0.850464  0  0  0.412122  0  0.911988  0  0  0.422309  0  0.897079  0  0.665514  0  0.304547  0.404909  0  0.922533  0
H  H9  1  0.61676612  0.13201635  0.26829585  1  0  0.442116  0  0.850474  0  0  0.412075  0  0.91204  0  0  0.422262  0  0.897134  0  0.663862  0  0.304496  0.404861  0  0.922587  0
H  H10  1  0.11678494  0.13202438  0.23169726  1  0  0.442094  0  0.850526  0  0  0.412078  0  0.912045  0  0  0.422266  0  0.897136  0  0.663836  0  0.304534  0.404867  0  0.922587  0
H  H11  1  0.38322091  0.86797823  0.73169599  1  0  0.442146  0  0.850463  0  0  0.412123  0  0.911991  0  0  0.422312  0  0.89708  0  0.663855  0  0.304541  0.404912  0  0.922534  0
H  H12  1  0.69531757  0.67746341  0.79596881  1  0  0.096079  0  0.965995  0  0  0.101451  0  1.035425  0  0  0.104592  0  1.033625  0  0.100874  0  0.100341  0.09914  0  1.036787  0
H  H13  1  0.80466836  0.32252337  0.29596883  1  0  0.096026  0  0.966002  0  0  0.101398  0  1.035477  0  0  0.104543  0  1.033678  0  0.10726  0  0.10034  0.099091  0  1.036841  0
H  H14  1  0.30466249  0.32253712  0.20403427  1  0  0.096036  0  0.965999  0  0  0.101438  0  1.035401  0  0  0.104581  0  1.033603  0  0.101006  0  0.100312  0.099126  0  1.036766  0
H  H15  1  0.19531531  0.67747195  0.70402800  1  0  0.096069  0  0.965916  0  0  0.101429  0  1.03539  0  0  0.104571  0  1.033591  0  0.107387  0  0.100357  0.099121  0  1.03675  0
H  H16  1  0.82582642  0.51272309  0.79422710  1  0  0.084994  0  0.996261  0  0  0.094362  0  1.06256  0  0  0.096289  0  1.06379  0  0.07594  0  0.095059  0.093002  0  1.06175  0
H  H17  1  0.67417633  0.48726516  0.29422399  1  0  0.08495  0  0.996158  0  0  0.094329  0  1.062451  0  0  0.096244  0  1.063701  0  0.076052  0  0.095035  0.092968  0  1.06164  0
H  H18  1  0.17416424  0.48728190  0.20577224  1  0  0.08491  0  0.996063  0  0  0.094284  0  1.062394  0  0  0.096213  0  1.063634  0  0.075915  0  0.095002  0.092923  0  1.061582  0
H  H19  1  0.32582285  0.51272793  0.70576909  1  0  0.084955  0  0.996106  0  0  0.094325  0  1.062421  0  0  0.096246  0  1.063675  0  0.076078  0  0.095066  0.092964  0  1.061612  0
H  H20  1  0.22155532  0.40322891  0.95663838  1  0  0.095414  0  0.966304  0  0  0.107532  0  1.025245  0  0  0.110581  0  1.023793  0  0.07158  0  0.102934  0.105325  0  1.026457  0
H  H21  1  0.27843565  0.59676736  0.45663590  1  0  0.095301  0  0.966206  0  0  0.107578  0  1.025014  0  0  0.110544  0  1.023669  0  0.07171  0  0.102893  0.105398  0  1.026178  0
H  H22  1  0.77845111  0.59677459  0.04336408  1  0  0.095376  0  0.966279  0  0  0.107524  0  1.025192  0  0  0.110573  0  1.023742  0  0.071595  0  0.102894  0.105315  0  1.026406  0
H  H23  1  0.72154053  0.40322722  0.54336031  1  0  0.095384  0  0.966309  0  0  0.107491  0  1.025259  0  0  0.110539  0  1.023811  0  0.071522  0  0.10289  0.105282  0  1.026474  0
H  H24  1  0.09334053  0.56909390  0.95654457  1  0  0.097887  0  0.95761  0  0  0.107953  0  1.02153  0  0  0.110794  0  1.019917  0  0.087763  0  0.10362  0.105866  0  1.02276  0
H  H25  1  0.40665457  0.43089865  0.45654021  1  0  0.097901  0  0.95753  0  0  0.107953  0  1.02146  0  0  0.110798  0  1.01984  0  0.087843  0  0.103658  0.105868  0  1.02271  0
H  H26  1  0.90666434  0.43090514  0.04345727  1  0  0.097925  0  0.957562  0  0  0.107998  0  1.02146  0  0  0.110842  0  1.01984  0  0.087634  0  0.103647  0.105905  0  1.022719  0
H  H27  1  0.59333091  0.56909667  0.54345537  1  0  0.097884  0  0.957525  0  0  0.107931  0  1.021489  0  0  0.11078  0  1.019863  0  0.087611  0  0.103596  0.105844  0  1.022719  0
H  H28  1  0.94691233  0.38151961  0.80431968  1  0  0.085367  0  0.979088  0  0  0.095051  0  1.045493  0  0  0.09736  0  1.045179  0  0.050809  0  0.097269  0.093367  0  1.045803  0
H  H29  1  0.55308563  0.61847095  0.30431282  1  0  0.085179  0  0.979176  0  0  0.094832  0  1.045614  0  0  0.097142  0  1.045298  0  0.052304  0  0.097215  0.09315  0  1.045918  0
H  H30  1  0.05311245  0.61848983  0.19568466  1  0  0.085401  0  0.979094  0  0  0.095134  0  1.045445  0  0  0.097449  0  1.045136  0  0.050966  0  0.097248  0.093448  0  1.045763  0
H  H31  1  0.44692208  0.38152586  0.69568026  1  0  0.085309  0  0.979105  0  0  0.094976  0  1.045504  0  0  0.097284  0  1.04519  0  0.050707  0  0.097232  0.093298  0  1.04581  0
H  H32  1  0.04041505  0.21144278  0.79377056  1  0  0.086239  0  0.980702  0  0  0.096564  0  1.041794  0  0  0.097923  0  1.044212  0  0.085462  0  0.096733  0.095575  0  1.040246  0
H  H33  1  0.45956463  0.78854472  0.29377246  1  0  0.086269  0  0.98058  0  0  0.096568  0  1.041723  0  0  0.097926  0  1.044143  0  0.085415  0  0.096749  0.095572  0  1.040181  0
H  H34  1  0.95958983  0.78856146  0.20623691  1  0  0.08624  0  0.980549  0  0  0.096573  0  1.041666  0  0  0.097934  0  1.044071  0  0.085508  0  0.096757  0.095549  0  1.040149  0
H  H35  1  0.54043920  0.21145134  0.70622438  1  0  0.086286  0  0.980571  0  0  0.096583  0  1.041718  0  0  0.097943  0  1.044135  0  0.085422  0  0.096754  0.095578  0  1.040183  0
H  H36  1  0.75479139  0.06903728  0.85225288  1  0  0.110132  0  0.955181  0  0  0.118042  0  1.01847  0  0  0.121672  0  1.0155  0  0.117869  0  0.103765  0.115401  0  1.020651  0
H  H37  1  0.74517803  0.93095145  0.35225728  1  0  0.110086  0  0.955227  0  0  0.117996  0  1.018507  0  0  0.121625  0  1.015533  0  0.118204  0  0.103771  0.115357  0  1.020687  0
H  H38  1  0.24521918  0.93097291  0.14776021  1  0  0.110085  0  0.954965  0  0  0.117938  0  1.018344  0  0  0.121569  0  1.015369  0  0.117723  0  0.103769  0.115299  0  1.020522  0
H  H39  1  0.25481443  0.06904313  0.64774143  1  0  0.110148  0  0.955092  0  0  0.118002  0  1.01846  0  0  0.121628  0  1.015492  0  0.11811  0  0.103744  0.115364  0  1.020639  0
H  H40  1  0.29148217  0.27234795  0.94300545  1  0  0.101081  0  0.973886  0  0  0.110892  0  1.037337  0  0  0.114392  0  1.034738  0  0.092898  0  0.10486  0.108387  0  1.039223  0
H  H41  1  0.20851671  0.72763929  0.44299796  1  0  0.100827  0  0.973869  0  0  0.110707  0  1.03728  0  0  0.114214  0  1.034665  0  0.092923  0  0.104812  0.108201  0  1.039168  0
H  H42  1  0.70853382  0.72766224  0.05699826  1  0  0.101007  0  0.973857  0  0  0.110795  0  1.037346  0  0  0.114295  0  1.034747  0  0.093005  0  0.104829  0.108291  0  1.03923  0
H  H43  1  0.79149332  0.27235380  0.55699074  1  0  0.101065  0  0.973883  0  0  0.11087  0  1.037344  0  0  0.114372  0  1.034744  0  0.092996  0  0.104857  0.108366  0  1.03923  0
C  C44  1  0.30274406  0.73404350  0.87525544  1  0  0.666462  0  3.882322  0  0  0.614562  0  4.170651  0  0  0.649389  0  4.163155  0  1.538788  0  0.217719  0.590946  0  4.175  0
C  C45  1  0.19723454  0.26594467  0.37525671  1  0  0.666798  0  3.88239  0  0  0.614723  0  4.170945  0  0  0.649575  0  4.163415  0  1.538875  0  0.21778  0.591098  0  4.175304  0
C  C46  1  0.69726083  0.26596594  0.12474140  1  0  0.666502  0  3.882196  0  0  0.614534  0  4.170612  0  0  0.649359  0  4.16312  0  1.538083  0  0.217674  0.590907  0  4.174967  0
C  C47  1  0.80274809  0.73404768  0.62474450  1  0  0.666508  0  3.882407  0  0  0.614589  0  4.170767  0  0  0.649439  0  4.16324  0  1.538858  0  0.217761  0.590963  0  4.175125  0
C  C48  1  0.38420850  0.63441509  0.87600716  1  0  -0.085625  0  3.772804  0  0  -0.060223  0  4.003101  0  0  -0.070457  0  4.027506  0  -0.049027  0  -0.023005  -0.053591  0  3.986614  0
C  C49  1  0.11577473  0.36557086  0.37600593  1  0  -0.086057  0  3.772912  0  0  -0.060558  0  4.003217  0  0  -0.070795  0  4.027615  0  -0.049456  0  -0.023156  -0.053923  0  3.986735  0
C  C50  1  0.61579456  0.36558915  0.12399343  1  0  -0.085668  0  3.772791  0  0  -0.060214  0  4.003057  0  0  -0.070447  0  4.027461  0  -0.048326  0  -0.022977  -0.053574  0  3.986569  0
C  C51  1  0.88420841  0.63441777  0.62399216  1  0  -0.085638  0  3.77268  0  0  -0.06023  0  4.002992  0  0  -0.070468  0  4.027389  0  -0.049086  0  -0.022978  -0.053596  0  3.986509  0
C  C52  1  0.59175780  0.61695668  0.83109273  1  0  -0.052126  0  3.725422  0  0  -0.075227  0  3.973281  0  0  -0.07362  0  3.992934  0  -0.003271  0  -0.082463  -0.076009  0  3.959899  0
C  C53  1  0.90822870  0.38303336  0.33109400  1  0  -0.052078  0  3.725524  0  0  -0.075207  0  3.973336  0  0  -0.073612  0  3.993001  0  -0.009952  0  -0.082518  -0.07599  0  3.959948  0
C  C54  1  0.40823674  0.38304384  0.16890598  1  0  -0.052108  0  3.725475  0  0  -0.075251  0  3.97333  0  0  -0.073648  0  3.99299  0  -0.003461  0  -0.082455  -0.076032  0  3.959939  0
C  C55  1  0.09175781  0.61695973  0.66890158  1  0  -0.052204  0  3.725515  0  0  -0.075312  0  3.973392  0  0  -0.073707  0  3.99305  0  -0.009794  0  -0.082538  -0.076094  0  3.960008  0
C  C56  1  0.66507901  0.52316130  0.83064370  1  0  -0.123968  0  3.727093  0  0  -0.140571  0  3.975103  0  0  -0.145314  0  3.996068  0  -0.079977  0  -0.092542  -0.137477  0  3.960949  0
C  C57  1  0.83491886  0.47682502  0.33064309  1  0  -0.124057  0  3.726955  0  0  -0.140598  0  3.975017  0  0  -0.145343  0  3.99597  0  -0.080173  0  -0.092541  -0.137503  0  3.960859  0
C  C58  1  0.33493026  0.47683997  0.16935626  1  0  -0.123858  0  3.726974  0  0  -0.140475  0  3.974965  0  0  -0.145233  0  3.995932  0  -0.07984  0  -0.092492  -0.13738  0  3.960803  0
C  C59  1  0.16507256  0.52316659  0.66935187  1  0  -0.123939  0  3.726922  0  0  -0.140501  0  3.974968  0  0  -0.145254  0  3.995933  0  -0.07989  0  -0.092548  -0.137409  0  3.960814  0
C  C60  1  0.53418204  0.44316260  0.87501029  1  0  0.064256  0  3.754134  0  0  0.078111  0  3.981725  0  0  0.080811  0  4.004633  0  -0.02538  0  3.6e-05  0.076452  0  3.966158  0
C  C61  1  0.96581007  0.55682482  0.37500593  1  0  0.064603  0  3.753779  0  0  0.078289  0  3.981628  0  0  0.081015  0  4.004485  0  -0.025299  0  0.000109  0.076628  0  3.966068  0
C  C62  1  0.46582878  0.55684313  0.12499218  1  0  0.06423  0  3.754076  0  0  0.078123  0  3.981595  0  0  0.080844  0  4.004473  0  -0.025541  0  9.1e-05  0.076465  0  3.966028  0
C  C63  1  0.03417747  0.44316604  0.62498590  1  0  0.064461  0  3.753983  0  0  0.078226  0  3.981667  0  0  0.080938  0  4.004561  0  -0.025649  0  4.6e-05  0.076568  0  3.966099  0
C  C64  1  0.32671074  0.46216048  0.92028057  1  0  -0.116453  0  3.733361  0  0  -0.13347  0  3.981656  0  0  -0.138664  0  4.003491  0  -0.043306  0  -0.086957  -0.130061  0  3.966856  0
C  C65  1  0.17328122  0.53783178  0.42027433  1  0  -0.116354  0  3.733214  0  0  -0.133485  0  3.981602  0  0  -0.138627  0  4.003468  0  -0.043345  0  -0.086837  -0.130086  0  3.966804  0
C  C66  1  0.67330887  0.53784451  0.07972628  1  0  -0.116353  0  3.733227  0  0  -0.133427  0  3.981553  0  0  -0.138627  0  4.003381  0  -0.042763  0  -0.08693  -0.130012  0  3.966749  0
C  C67  1  0.82669494  0.46215759  0.57972188  1  0  -0.116531  0  3.733476  0  0  -0.13351  0  3.981766  0  0  -0.138704  0  4.003599  0  -0.042761  0  -0.086908  -0.130101  0  3.966967  0
C  C68  1  0.25332886  0.55565257  0.92098914  1  0  -0.054355  0  3.736542  0  0  -0.080069  0  3.987113  0  0  -0.078397  0  4.007787  0  -0.055548  0  -0.080891  -0.080885  0  3.973061  0
C  C69  1  0.24666103  0.44434415  0.42098290  1  0  -0.054216  0  3.736367  0  0  -0.07991  0  3.987015  0  0  -0.078238  0  4.007667  0  -0.055303  0  -0.080861  -0.080748  0  3.972956  0
C  C70  1  0.74668015  0.44435315  0.07901270  1  0  -0.054427  0  3.736446  0  0  -0.080142  0  3.987025  0  0  -0.078474  0  4.0077  0  -0.056026  0  -0.080932  -0.080967  0  3.972959  0
C  C71  1  0.75331954  0.55564746  0.57900956  1  0  -0.054302  0  3.736322  0  0  -0.079993  0  3.986875  0  0  -0.078327  0  4.007545  0  -0.055846  0  -0.080843  -0.080807  0  3.972822  0
C  C72  1  0.60719087  0.34238942  0.87310784  1  0  0.037711  0  3.766235  0  0  0.055869  0  3.999027  0  0  0.05356  0  4.022771  0  -0.027073  0  -0.007231  0.057239  0  3.98288  0
C  C73  1  0.89279609  0.65759873  0.37310348  1  0  0.03753  0  3.765904  0  0  0.055721  0  3.998771  0  0  0.05341  0  4.022506  0  -0.026727  0  -0.007238  0.05709  0  3.982633  0
C  C74  1  0.39282667  0.65762002  0.12689962  1  0  0.037688  0  3.766383  0  0  0.055885  0  3.999095  0  0  0.053573  0  4.022834  0  -0.027142  0  -0.00725  0.057255  0  3.982954  0
C  C75  1  0.10718861  0.34239436  0.62688585  1  0  0.037674  0  3.766114  0  0  0.055862  0  3.998923  0  0  0.05355  0  4.022657  0  -0.026152  0  -0.007222  0.057233  0  3.982782  0
C  C76  1  0.82094833  0.32185136  0.83255114  1  0  -0.085327  0  3.686872  0  0  -0.108011  0  3.935733  0  0  -0.107932  0  3.954803  0  -0.04789  0  -0.079867  -0.107741  0  3.92267  0
C  C77  1  0.67903272  0.67813869  0.33255054  1  0  -0.084973  0  3.686634  0  0  -0.107602  0  3.935474  0  0  -0.107518  0  3.954538  0  -0.049985  0  -0.079798  -0.107334  0  3.922413  0
C  C78  1  0.17907180  0.67815511  0.16745382  1  0  -0.08542  0  3.687018  0  0  -0.108152  0  3.935861  0  0  -0.108087  0  3.954943  0  -0.047692  0  -0.079883  -0.107883  0  3.922794  0
C  C79  1  0.32095742  0.32185960  0.66744442  1  0  -0.085341  0  3.686654  0  0  -0.107994  0  3.935515  0  0  -0.107909  0  3.954579  0  -0.04868  0  -0.079886  -0.107731  0  3.922457  0
C  C80  1  0.87542387  0.22489450  0.82650860  1  0  -0.06842  0  3.75807  0  0  -0.079149  0  4.009421  0  0  -0.082848  0  4.031264  0  0.02209  0  -0.089973  -0.076783  0  3.994599  0
C  C81  1  0.62455829  0.77509327  0.32650925  1  0  -0.06843  0  3.75803  0  0  -0.079173  0  4.009408  0  0  -0.082872  0  4.031253  0  0.022054  0  -0.089906  -0.076801  0  3.994594  0
C  C82  1  0.12458643  0.77510974  0.17350074  1  0  -0.068525  0  3.757742  0  0  -0.079271  0  4.009124  0  0  -0.082967  0  4.030955  0  0.021944  0  -0.090038  -0.076879  0  3.994328  0
C  C83  1  0.37544270  0.22490502  0.67348384  1  0  -0.068378  0  3.757755  0  0  -0.079077  0  4.009114  0  0  -0.082773  0  4.03095  0  0.02224  0  -0.0899  -0.0767  0  3.994311  0
C  C84  1  0.71824142  0.14522431  0.85990268  1  0  -0.054909  0  3.693782  0  0  -0.08006  0  3.940421  0  0  -0.078104  0  3.957998  0  -0.097137  0  -0.079979  -0.081042  0  3.928417  0
C  C85  1  0.78173927  0.85476596  0.35990082  1  0  -0.054884  0  3.693548  0  0  -0.079966  0  3.94017  0  0  -0.078006  0  3.957745  0  -0.097282  0  -0.08004  -0.080949  0  3.928163  0
C  C86  1  0.28177199  0.85478364  0.14011041  1  0  -0.054655  0  3.693073  0  0  -0.079737  0  3.939741  0  0  -0.077778  0  3.957314  0  -0.097049  0  -0.079898  -0.080716  0  3.927729  0
C  C87  1  0.21825759  0.14523085  0.64009038  1  0  -0.054967  0  3.693672  0  0  -0.080126  0  3.9403  0  0  -0.078147  0  3.957909  0  -0.097404  0  -0.080098  -0.08112  0  3.928284  0
C  C88  1  0.50940732  0.16472840  0.90285963  1  0  -0.08151  0  3.78179  0  0  -0.056458  0  4.015297  0  0  -0.066224  0  4.039178  0  -0.015114  0  -0.021426  -0.050114  0  3.999199  0
C  C89  1  0.99058881  0.83525628  0.40285903  1  0  -0.081464  0  3.781649  0  0  -0.056539  0  4.015259  0  0  -0.066302  0  4.039147  0  -0.015036  0  -0.021443  -0.050187  0  3.999166  0
C  C90  1  0.49061228  0.83527658  0.09714721  1  0  -0.081547  0  3.781485  0  0  -0.056508  0  4.01514  0  0  -0.066286  0  4.039006  0  -0.015197  0  -0.021403  -0.050158  0  3.999056  0
C  C91  1  0.00941579  0.16473161  0.59713593  1  0  -0.08162  0  3.782005  0  0  -0.056397  0  4.015279  0  0  -0.066251  0  4.039267  0  -0.014977  0  -0.021368  -0.050011  0  3.999143  0
C  C92  1  0.45768832  0.26202051  0.90988279  1  0  -0.096332  0  3.696585  0  0  -0.130825  0  3.944438  0  0  -0.130595  0  3.964934  0  -0.008617  0  -0.079353  -0.130674  0  3.93049  0
C  C93  1  0.04229525  0.73796795  0.40987781  1  0  -0.096147  0  3.696334  0  0  -0.130648  0  3.944207  0  0  -0.130411  0  3.964695  0  -0.00862  0  -0.079368  -0.130502  0  3.930266  0
C  C94  1  0.54233414  0.73798745  0.09012655  1  0  -0.096316  0  3.69663  0  0  -0.13079  0  3.944511  0  0  -0.130561  0  3.965005  0  -0.008705  0  -0.079364  -0.130641  0  3.930567  0
C  C95  1  0.95770212  0.26202514  0.59011152  1  0  -0.096328  0  3.696682  0  0  -0.130855  0  3.944514  0  0  -0.130599  0  3.965032  0  -0.009019  0  -0.07938  -0.130717  0  3.930557  0
C  C96  1  0.32849631  0.08360647  0.93853389  1  0  0.702892  0  3.865548  0  0  0.652767  0  4.148783  0  0  0.688883  0  4.140187  0  1.550717  0  0.231837  0.628126  0  4.153995  0
C  C97  1  0.17150910  0.91637850  0.43853391  1  0  0.702352  0  3.86605  0  0  0.652381  0  4.149139  0  0  0.688475  0  4.14057  0  1.550532  0  0.231607  0.627723  0  4.154375  0
C  C98  1  0.67152951  0.91640075  0.06147482  1  0  0.702957  0  3.865997  0  0  0.652701  0  4.149503  0  0  0.688858  0  4.140844  0  1.55137  0  0.23172  0.628031  0  4.154759  0
C  C99  1  0.82849085  0.08361161  0.56146292  1  0  0.702817  0  3.86569  0  0  0.65268  0  4.148902  0  0  0.688829  0  4.140295  0  1.550896  0  0.231695  0.628007  0  4.154141  0
O  O100  1  0.13210107  0.74927561  0.92624681  1  0  -0.638151  0  2.026062  0  0  -0.566837  0  2.29627  0  0  -0.596617  0  2.282585  0  -1.149629  0  -0.312547  -0.546082  0  2.30501  0
O  O101  1  0.36787866  0.25071818  0.42624870  1  0  -0.638168  0  2.026138  0  0  -0.566782  0  2.296398  0  0  -0.596571  0  2.282704  0  -1.149691  0  -0.31251  -0.546023  0  2.305149  0
O  O102  1  0.86790200  0.25073383  0.07375753  1  0  -0.638157  0  2.026305  0  0  -0.566801  0  2.296477  0  0  -0.596572  0  2.282787  0  -1.14967  0  -0.312546  -0.546072  0  2.305295  0
O  O103  1  0.63210088  0.74928085  0.57375251  1  0  -0.638147  0  2.026086  0  0  -0.566858  0  2.296348  0  0  -0.596646  0  2.282652  0  -1.149725  0  -0.312576  -0.546115  0  2.305131  0
O  O104  1  0.40100371  0.80083143  0.82486757  1  0  -0.687901  0  2.048511  0  0  -0.622234  0  2.277028  0  0  -0.646899  0  2.263423  0  -1.226954  0  -0.322998  -0.605001  0  2.285911  0
O  O105  1  0.09898900  0.19915335  0.32487197  1  0  -0.687966  0  2.048476  0  0  -0.622215  0  2.277036  0  0  -0.646902  0  2.263452  0  -1.226891  0  -0.323017  -0.604979  0  2.285911  0
O  O106  1  0.59899341  0.19917132  0.17512739  1  0  -0.687866  0  2.048159  0  0  -0.622178  0  2.276722  0  0  -0.64685  0  2.263129  0  -1.226795  0  -0.322953  -0.604933  0  2.285601  0
O  O107  1  0.90100500  0.80083528  0.67513049  1  0  -0.687879  0  2.048571  0  0  -0.622161  0  2.27706  0  0  -0.646849  0  2.263476  0  -1.227032  0  -0.322979  -0.604917  0  2.285938  0
O  O108  1  0.17283761  0.10813263  0.98960219  1  0  -0.683263  0  2.146911  0  0  -0.611448  0  2.440551  0  0  -0.639766  0  2.42062  0  -1.21566  0  -0.325914  -0.591755  0  2.453863  0
O  O109  1  0.32715007  0.89185573  0.48960596  1  0  -0.683164  0  2.147317  0  0  -0.611363  0  2.440878  0  0  -0.639673  0  2.420959  0  -1.215861  0  -0.32592  -0.591663  0  2.454195  0
O  O110  1  0.82715979  0.89188127  0.01040340  1  0  -0.683215  0  2.147289  0  0  -0.611332  0  2.440982  0  0  -0.639661  0  2.421031  0  -1.21636  0  -0.32588  -0.591637  0  2.454311  0
O  O111  1  0.67289820  0.10813290  0.51037774  1  0  -0.683224  0  2.147005  0  0  -0.611449  0  2.440706  0  0  -0.63977  0  2.42076  0  -1.216179  0  -0.325922  -0.591752  0  2.454035  0
O  O112  1  0.33843791  0.99496400  0.91263514  1  0  -0.650988  0  2.064587  0  0  -0.577394  0  2.338721  0  0  -0.606819  0  2.321063  0  -1.159712  0  -0.315655  -0.556861  0  2.350237  0
O  O113  1  0.16157300  0.00502002  0.41263016  1  0  -0.650515  0  2.064575  0  0  -0.577072  0  2.338737  0  0  -0.606512  0  2.32113  0  -1.159284  0  -0.315416  -0.556535  0  2.350263  0
O  O114  1  0.66159540  0.00504396  0.08738671  1  0  -0.650985  0  2.06458  0  0  -0.577375  0  2.338796  0  0  -0.606828  0  2.321143  0  -1.160002  0  -0.31556  -0.556833  0  2.350323  0
O  O115  1  0.83840006  0.99497084  0.58738669  1  0  -0.65083  0  2.064212  0  0  -0.577342  0  2.338454  0  0  -0.606741  0  2.32073  0  -1.159306  0  -0.315529  -0.556823  0  2.350034  0
O  O116  1  0.84211832  0.89910992  0.82156050  1  0  -0.833114  0  1.883554  0  0  -0.759563  0  2.089155  0  0  -0.78279  0  2.05216  0  -1.261566  0  -0.564127  -0.743226  0  2.114841  0
O  O117  1  0.65786416  0.10087855  0.32154989  1  0  -0.832955  0  1.883685  0  0  -0.75934  0  2.089343  0  0  -0.782559  0  2.052324  0  -1.260086  0  -0.564031  -0.743008  0  2.115022  0
O  O118  1  0.15788655  0.10088912  0.17844197  1  0  -0.83309  0  1.883605  0  0  -0.759554  0  2.089174  0  0  -0.782776  0  2.052167  0  -1.259854  0  -0.564155  -0.743217  0  2.114855  0
O  O119  1  0.34211640  0.89911305  0.67844257  1  0  -0.833184  0  1.883594  0  0  -0.759609  0  2.089183  0  0  -0.782833  0  2.052175  0  -1.259906  0  -0.564123  -0.743271  0  2.114865  0
