# generated using pymatgen
data_CoH23C25(NO)4
_symmetry_space_group_name_H-M   'P 1'
_cell_length_a   10.16389473
_cell_length_b   11.20265463
_cell_length_c   14.08038484
_cell_angle_alpha   92.80707767
_cell_angle_beta   108.75439408
_cell_angle_gamma   114.23021404
_symmetry_Int_Tables_number   1
_chemical_formula_structural   CoH23C25(NO)4
_chemical_formula_sum   'Co2 H46 C50 N8 O8'
_cell_volume   1353.63846217
_cell_formula_units_Z   2
loop_
 _symmetry_equiv_pos_site_id
 _symmetry_equiv_pos_as_xyz
  1  'x, y, z'
loop_
 _atom_site_type_symbol
 _atom_site_label
 _atom_site_symmetry_multiplicity
 _atom_site_fract_x
 _atom_site_fract_y
 _atom_site_fract_z
 _atom_site_occupancy
 _atom_site_pbe_bader_charge
 _atom_site_pbe_bader_spin_density
 _atom_site_pbe_cm5_charge
 _atom_site_pbe_ddec_charge
 _atom_site_pbe_ddec_spin_density
 _atom_site_pbe_ddec_sum_bond_order
 _atom_site_pbe_magmom
Co  Co0  1  0.52357284  0.67786540  0.74300754  1  1.199163  -2.529698  0.683931  0.802947  -2.769455  2.58107  -2.471
Co  Co1  1  0.47642232  0.32213134  0.25699132  1  1.199069  2.529773  0.68393  0.802988  2.769489  2.580693  2.471
H  H2  1  0.94584827  0.51865555  0.66784966  1  0.025776  -0.000416  0.096839  0.131611  -0.00014  1.017031  0.0
H  H3  1  0.05415053  0.48135283  0.33214176  1  0.025535  0.000417  0.096847  0.131614  0.00014  1.017061  0.0
H  H4  1  0.04845705  0.57082792  0.80229976  1  0.072923  -0.000863  0.101799  0.149864  -0.000317  0.997469  -0.001
H  H5  1  0.95154646  0.42917952  0.19769129  1  0.072743  0.000863  0.101821  0.14984  0.000317  0.997427  0.001
H  H6  1  0.12328367  0.66689108  0.71970057  1  0.091381  -0.000241  0.109294  0.167497  -1.9e-05  0.977133  0.0
H  H7  1  0.87671048  0.33311422  0.28028973  1  0.090697  0.000241  0.109291  0.167498  1.9e-05  0.976993  0.0
H  H8  1  0.09200210  0.89755873  0.74530594  1  0.112321  -0.000902  0.107064  0.15074  -0.00033  1.036311  -0.001
H  H9  1  0.90799625  0.10244667  0.25468532  1  0.112291  0.000902  0.107057  0.150712  0.000331  1.036295  0.001
H  H10  1  0.95870103  0.05953509  0.80780751  1  0.033353  -0.000273  0.100609  0.146491  -9.1e-05  0.975048  0.0
H  H11  1  0.04130496  0.94047081  0.19219473  1  0.03311  0.000273  0.10063  0.146537  9.1e-05  0.975103  0.0
H  H12  1  0.75411661  0.97181281  0.78153742  1  0.143281  -0.00046  0.100884  0.15921  -0.00032  1.039967  0.0
H  H13  1  0.24588697  0.02818820  0.21846700  1  0.143402  0.00046  0.100899  0.159248  0.00032  1.03996  0.0
H  H14  1  0.82282096  0.00248030  0.67951123  1  0.022545  -0.000435  0.093687  0.13641  -0.000137  0.996748  0.0
H  H15  1  0.17717880  0.99752760  0.32049390  1  0.022525  0.000435  0.09367  0.136408  0.000137  0.996731  0.0
H  H16  1  0.65128368  0.27176146  0.62007985  1  0.05864  -9.9e-05  0.096478  0.132141  -1.6e-05  1.006477  0.0
H  H17  1  0.34871569  0.72823537  0.37991997  1  0.057695  0.0001  0.096495  0.132169  1.6e-05  1.006299  0.0
H  H18  1  0.55782215  0.24915226  0.48504393  1  0.120662  -0.000575  0.099937  0.15638  -0.000352  1.043748  -0.001
H  H19  1  0.44217588  0.75083973  0.51495902  1  0.120523  0.000576  0.099964  0.156385  0.000352  1.043605  0.001
H  H20  1  0.46088097  0.14238204  0.55527378  1  0.06599  -0.000381  0.100039  0.151816  -0.000147  0.999871  0.0
H  H21  1  0.53912210  0.85761797  0.44473051  1  0.065972  0.000381  0.100064  0.151875  0.000147  0.999838  0.0
H  H22  1  0.23418410  0.24851851  0.45128053  1  0.105625  -0.000976  0.105645  0.144834  -0.000405  1.037206  -0.001
H  H23  1  0.76582307  0.75148146  0.54872113  1  0.105469  0.000976  0.105681  0.144869  0.000404  1.037169  0.001
H  H24  1  0.15855296  0.48196472  0.61152252  1  0.10267  -0.000203  0.102475  0.160752  -0.0001  1.010128  0.0
H  H25  1  0.84144473  0.51803093  0.38847262  1  0.102599  0.000204  0.102465  0.160705  0.0001  1.010151  0.0
H  H26  1  0.07582091  0.38541971  0.48319651  1  0.082429  2.6e-05  0.090833  0.133306  4e-06  1.034157  0.0
H  H27  1  0.92418562  0.61457907  0.51680000  1  0.082329  -2.6e-05  0.090805  0.13327  -4e-06  1.034166  0.0
H  H28  1  0.20771254  0.55966870  0.51361555  1  0.042672  -0.000167  0.092336  0.131845  4.5e-05  1.03381  0.0
H  H29  1  0.79229470  0.44032932  0.48638679  1  0.042548  0.000167  0.092325  0.131824  -4.4e-05  1.0338  0.0
H  H30  1  0.74819403  0.44110826  0.71992768  1  0.103924  0.000208  0.145423  0.091265  0.000154  0.973425  0.0
H  H31  1  0.25181255  0.55889876  0.28007756  1  0.103838  -0.000208  0.145416  0.091264  -0.000154  0.973348  0.0
H  H32  1  0.90064432  0.63748172  0.92727143  1  0.086134  8.4e-05  0.106472  0.108488  8e-05  0.99832  0.0
H  H33  1  0.09935236  0.36254088  0.07273120  1  0.086362  -8.4e-05  0.106492  0.108559  -8e-05  0.998242  0.0
H  H34  1  0.87541373  0.60144145  0.09515020  1  0.067928  4.9e-05  0.102703  0.10291  -7e-06  1.007725  0.0
H  H35  1  0.12458210  0.39857321  0.90485206  1  0.068022  -4.9e-05  0.102725  0.102908  7e-06  1.007721  0.0
H  H36  1  0.41646432  0.28053466  0.94039691  1  0.100731  0.000476  0.110447  0.118627  0.00015  0.983715  0.0
H  H37  1  0.58353820  0.71946021  0.05960216  1  0.10083  -0.000476  0.110443  0.118635  -0.00015  0.983706  0.0
H  H38  1  0.43763338  0.31639178  0.77140341  1  0.070936  -3.4e-05  0.103961  0.101497  4.2e-05  1.029845  0.0
H  H39  1  0.56237361  0.68361204  0.22859545  1  0.070965  3.4e-05  0.103942  0.10147  -4.2e-05  1.029842  0.0
H  H40  1  0.19523666  0.75020467  0.50871204  1  0.065249  -0.000301  0.101104  0.098443  -9e-05  1.033765  0.0
H  H41  1  0.80474290  0.24978987  0.49128677  1  0.065152  0.000301  0.101086  0.098446  9e-05  1.033704  0.0
H  H42  1  0.98911491  0.80812124  0.41343495  1  0.038348  3e-06  0.104905  0.107885  -5e-06  1.012967  0.0
H  H43  1  0.01088171  0.19188865  0.58657164  1  0.038319  -2e-06  0.10489  0.107878  5e-06  1.012955  0.0
H  H44  1  0.38695835  0.09116734  0.75034960  1  0.081698  -4.2e-05  0.104928  0.108658  1.9e-05  1.018516  0.0
H  H45  1  0.61304403  0.90881024  0.24966325  1  0.08185  4.2e-05  0.104997  0.108759  -1.9e-05  1.01846  0.0
H  H46  1  0.17879768  0.15159773  0.65738822  1  0.064245  -0.000126  0.101563  0.10082  -3.7e-05  1.02219  0.0
H  H47  1  0.82122450  0.84840497  0.34262828  1  0.063946  0.000126  0.101604  0.100837  3.7e-05  1.022236  0.0
C  C48  1  0.01569559  0.60671173  0.73130810  1  -0.027363  -0.000733  -0.231206  -0.43604  -0.000489  3.965834  0.0
C  C49  1  0.98430439  0.39329274  0.26868421  1  -0.026213  0.000733  -0.231274  -0.43605  0.000489  3.965871  0.0
C  C50  1  0.93301865  0.68812622  0.73641677  1  0.396574  -0.011433  0.106635  0.22291  -0.006203  3.999398  -0.008
C  C51  1  0.06698226  0.31188017  0.26357367  1  0.396411  0.011432  0.106639  0.222822  0.006203  3.999472  0.008
C  C52  1  0.98131876  0.82475735  0.74482148  1  -0.033974  -0.0026  -0.118261  -0.347262  -0.001448  3.93923  -0.001
C  C53  1  0.01868018  0.17524712  0.25517131  1  -0.033983  0.002601  -0.118225  -0.34715  0.001448  3.939039  0.001
C  C54  1  0.85866963  0.84910822  0.75139534  1  0.431848  -0.009652  0.112016  0.296196  -0.005656  4.005831  -0.008
C  C55  1  0.14132683  0.15089331  0.24859895  1  0.431793  0.009649  0.112143  0.296362  0.005653  4.005676  0.008
C  C56  1  0.84752227  0.97751757  0.75601492  1  -0.044137  -0.000738  -0.235278  -0.44128  -0.000347  3.929714  -0.001
C  C57  1  0.15247962  0.02248429  0.24398629  1  -0.043945  0.000739  -0.235297  -0.4414  0.000347  3.929672  0.001
C  C58  1  0.53974828  0.24617528  0.55800383  1  -0.095974  -0.00109  -0.233545  -0.437178  -0.00063  3.939107  -0.001
C  C59  1  0.46026048  0.75382168  0.44199599  1  -0.094917  0.001089  -0.233579  -0.437275  0.000629  3.938907  0.001
C  C60  1  0.46958333  0.33518755  0.57315647  1  0.372272  -0.009178  0.108363  0.23401  -0.005055  3.96343  -0.006
C  C61  1  0.53042229  0.66481343  0.42684627  1  0.372412  0.009178  0.108331  0.2341  0.005054  3.963411  0.006
C  C62  1  0.32340726  0.32530330  0.51780094  1  -0.008779  -0.002995  -0.120385  -0.34799  -0.001694  3.941086  -0.002
C  C63  1  0.67659524  0.67469765  0.48220253  1  -0.008867  0.002996  -0.120414  -0.348086  0.001694  3.940961  0.002
C  C64  1  0.31235799  0.43162672  0.56638971  1  0.442638  -0.006447  0.108087  0.293811  -0.004074  4.001625  -0.006
C  C65  1  0.68764457  0.56837226  0.43361372  1  0.442766  0.006448  0.108056  0.293801  0.004074  4.00148  0.006
C  C66  1  0.18019041  0.46596219  0.54149047  1  -0.085537  -0.000542  -0.240223  -0.446448  -0.000192  3.933204  0.0
C  C67  1  0.81980943  0.53403355  0.45850659  1  -0.085279  0.000542  -0.240151  -0.446323  0.000192  3.933115  0.0
C  C68  1  0.68845004  0.49724577  0.73607261  1  0.703042  -0.001174  0.14479  0.099764  -0.000749  3.906114  -0.001
C  C69  1  0.31155404  0.50275624  0.26393195  1  0.703199  0.001174  0.144727  0.09963  0.000749  3.906002  0.001
C  C70  1  0.67068127  0.47817247  0.83834637  1  -0.089702  -0.000355  -0.013377  0.02321  -0.000446  3.982785  0.001
C  C71  1  0.32932174  0.52184417  0.16165331  1  -0.088883  0.000356  -0.013378  0.023231  0.000446  3.982251  -0.001
C  C72  1  0.79471413  0.55808256  0.92951583  1  0.006247  -0.001337  -0.091219  -0.124114  -0.00059  3.993202  -0.001
C  C73  1  0.20527843  0.44193393  0.07048360  1  0.005675  0.001335  -0.091245  -0.124241  0.000589  3.993059  0.001
C  C74  1  0.78141071  0.53827955  0.02341870  1  -0.042496  0.002247  -0.082204  -0.088124  0.001192  3.983613  0.002
C  C75  1  0.21858312  0.46173314  0.97658448  1  -0.042745  -0.002246  -0.082206  -0.088086  -0.001191  3.983712  -0.002
C  C76  1  0.64509849  0.43861533  0.02780338  1  -0.001113  0.001228  -0.012383  -0.023451  0.00062  3.954724  0.001
C  C77  1  0.35489441  0.56138320  0.97219146  1  -0.001048  -0.00123  -0.012428  -0.023578  -0.000621  3.954994  -0.001
C  C78  1  0.52243900  0.35736494  0.93644432  1  -0.033967  0.002129  -0.074842  -0.070409  0.001138  3.937709  0.001
C  C79  1  0.47755939  0.64264051  0.06354837  1  -0.034148  -0.002129  -0.074796  -0.070399  -0.001138  3.937673  -0.001
C  C80  1  0.53517287  0.37717665  0.84228987  1  -0.021854  -0.002287  -0.088091  -0.121059  -0.001169  3.981968  -0.002
C  C81  1  0.46482981  0.62283103  0.15770810  1  -0.022183  0.002286  -0.088077  -0.120969  0.001169  3.98175  0.002
C  C82  1  0.63238921  0.42485483  0.13048797  1  1.55968  0.004115  0.201391  0.554394  0.004016  4.225085  0.002
C  C83  1  0.36761773  0.57515303  0.86951311  1  1.559292  -0.004116  0.201544  0.554683  -0.004015  4.22479  -0.002
C  C84  1  0.42689120  0.87898256  0.69879174  1  1.577743  -0.002984  0.199203  0.551037  -0.003272  4.232739  -0.001
C  C85  1  0.57309799  0.12099810  0.30120255  1  1.577464  0.002979  0.199233  0.551113  0.00327  4.23262  0.001
C  C86  1  0.30453702  0.91671828  0.63630528  1  -0.04429  -0.004643  -0.019508  -0.0348  -0.002386  3.975189  -0.003
C  C87  1  0.69545739  0.08326860  0.36369461  1  -0.044536  0.004646  -0.019455  -0.03482  0.002388  3.975103  0.003
C  C88  1  0.19184195  0.83900318  0.54054694  1  0.001759  -0.000837  -0.088307  -0.100432  -0.00041  4.00104  0.0
C  C89  1  0.80815437  0.16099371  0.45945574  1  0.002027  0.000835  -0.08824  -0.100352  0.000409  4.000873  0.0
C  C90  1  0.07492598  0.87239374  0.48710485  1  -0.067141  0.000227  -0.090237  -0.137471  0.000134  3.988963  0.0
C  C91  1  0.92507407  0.12760636  0.51290301  1  -0.067031  -0.000227  -0.090189  -0.137431  -0.000134  3.988963  0.0
C  C92  1  0.06421409  0.98405820  0.52760014  1  -0.024302  -0.00035  -0.006236  0.063423  -0.000179  3.991113  0.0
C  C93  1  0.93579530  0.01594604  0.47240922  1  -0.063487  0.000349  -0.006452  0.063104  0.000179  3.991283  0.0
C  C94  1  0.29840732  0.03069841  0.67601385  1  -0.020366  -0.001347  -0.084859  -0.102431  -0.000694  4.000514  -0.001
C  C95  1  0.70159832  0.96928996  0.32399572  1  -0.020245  0.001346  -0.085059  -0.102687  0.000693  4.000598  0.001
C  C96  1  0.18067442  0.06333198  0.62305039  1  -0.064622  -0.000527  -0.088789  -0.137502  -0.000272  3.990203  0.0
C  C97  1  0.81933948  0.93666457  0.37696337  1  -0.064399  0.000527  -0.088757  -0.137373  0.000272  3.99027  0.0
N  N98  1  0.74039684  0.73289224  0.74870168  1  -0.746641  -0.057381  -0.260389  -0.314373  -0.031356  3.475961  -0.038
N  N99  1  0.25959706  0.26711238  0.25129707  1  -0.746351  0.057375  -0.260476  -0.314517  0.031359  3.476278  0.038
N  N100  1  0.78654967  0.63565384  0.73768364  1  -0.821946  -0.001313  -0.151207  0.0366  6.7e-05  3.741536  0.001
N  N101  1  0.21345201  0.36435184  0.26231406  1  -0.821946  0.001315  -0.151175  0.036753  -6.7e-05  3.741659  -0.001
N  N102  1  0.44548042  0.50457544  0.64771030  1  -0.736069  -0.063013  -0.26333  -0.302849  -0.034307  3.495466  -0.046
N  N103  1  0.55452211  0.49542351  0.35229242  1  -0.736051  0.063008  -0.263305  -0.302881  0.034306  3.495496  0.046
N  N104  1  0.54029359  0.44579476  0.65035768  1  -0.811606  -0.001476  -0.148163  0.034859  -0.000104  3.746521  0.001
N  N105  1  0.45971095  0.55420616  0.34964411  1  -0.811588  0.001476  -0.148106  0.034892  0.000104  3.746516  -0.001
O  O106  1  0.74396540  0.49868512  0.21072148  1  -1.180645  0.01979  -0.321924  -0.557884  0.009737  2.14652  0.016
O  O107  1  0.25603065  0.50131348  0.78927407  1  -1.180201  -0.019804  -0.322036  -0.558058  -0.009745  2.146079  -0.016
O  O108  1  0.49931642  0.33339627  0.12775128  1  -1.123734  0.119981  -0.328708  -0.542087  0.061735  2.355606  0.09
O  O109  1  0.50068150  0.66660618  0.87224052  1  -1.123921  -0.119984  -0.328753  -0.542125  -0.061734  2.355866  -0.09
O  O110  1  0.53080475  0.95387195  0.78059375  1  -1.157259  -0.016877  -0.316957  -0.525011  -0.008155  2.091563  -0.013
O  O111  1  0.46918516  0.04608306  0.21940154  1  -1.156997  0.016874  -0.316904  -0.525075  0.008153  2.091269  0.013
O  O112  1  0.41012463  0.76231491  0.65986693  1  -1.14742  -0.105848  -0.33414  -0.566351  -0.054712  2.416036  -0.081
O  O113  1  0.58984870  0.23764859  0.34012337  1  -1.147356  0.105812  -0.334312  -0.566415  0.054691  2.41615  0.081
