# generated using pymatgen
data_AlC27N7(Cl2O)6
_symmetry_space_group_name_H-M   'P 1'
_cell_length_a   4.13882934
_cell_length_b   18.13205007
_cell_length_c   18.23436767
_cell_angle_alpha   119.76914430
_cell_angle_beta   91.31123530
_cell_angle_gamma   90.07281011
_symmetry_Int_Tables_number   1
_chemical_formula_structural   AlC27N7(Cl2O)6
_chemical_formula_sum   'Al1 C27 N7 Cl12 O6'
_cell_volume   1187.38510503
_cell_formula_units_Z   1
loop_
 _symmetry_equiv_pos_site_id
 _symmetry_equiv_pos_as_xyz
  1  'x, y, z'
loop_
 _atom_site_type_symbol
 _atom_site_label
 _atom_site_symmetry_multiplicity
 _atom_site_fract_x
 _atom_site_fract_y
 _atom_site_fract_z
 _atom_site_occupancy
 _atom_site_pbe_bader_charge
 _atom_site_pbe_bader_spin_density
 _atom_site_pbe_cm5_charge
 _atom_site_pbe_ddec_charge
 _atom_site_pbe_ddec_spin_density
 _atom_site_pbe_ddec_sum_bond_order
 _atom_site_pbe_magmom
Al  Al0  1  0.01147413  0.00083782  0.50007092  1  2.514662  0  0.432  1.644652  0  2.502178  0
C  C1  1  0.50616947  0.06504501  0.43478363  1  1.616048  0  0.274534  0.679604  0  4.080067  0
C  C2  1  0.52477691  0.06469560  0.62867228  1  1.64358  0  0.274564  0.679889  0  4.079865  0
C  C3  1  0.50371047  0.87146982  0.43585322  1  1.652807  0  0.274066  0.679749  0  4.080251  0
C  C4  1  0.36813792  0.23731358  0.37554736  1  0.104514  0  0.016648  0.064047  0  4.011595  0
C  C5  1  0.50885110  0.20140271  0.29468141  1  0.11717  0  -0.013811  -0.100099  0  3.915896  0
C  C6  1  0.37973280  0.12028238  0.85638278  1  0.19098  0  0.016532  0.063137  0  4.012983  0
C  C7  1  0.52331987  0.20268316  0.90322910  1  0.046708  0  -0.014253  -0.099365  0  3.918628  0
C  C8  1  0.51120780  0.59552280  0.29526815  1  0.118944  0  -0.013476  -0.097416  0  3.918304  0
C  C9  1  0.35825324  0.64206161  0.26079177  1  0.130569  0  0.015939  0.062784  0  4.015641  0
C  C10  1  0.67046740  0.23842462  0.85807799  1  0.062979  0  0.016379  0.062783  0  4.014018  0
C  C11  1  0.66191459  0.19399762  0.76911745  1  0.106573  0  0.007076  0.057231  0  4.045458  0
C  C12  1  0.52901384  0.11203825  0.72416288  1  0.121102  0  -0.011929  -0.113418  0  3.946156  0
C  C13  1  0.39542296  0.07457328  0.76768737  1  0.09309  0  0.007079  0.057139  0  4.044662  0
C  C14  1  0.36503964  0.73148462  0.30603592  1  0.137998  0  0.007004  0.057098  0  4.044727  0
C  C15  1  0.50208642  0.77548674  0.38755840  1  0.085601  0  -0.011975  -0.114042  0  3.946991  0
C  C16  1  0.64273091  0.73055684  0.42364763  1  0.158753  0  0.007308  0.057783  0  4.045396  0
C  C17  1  0.65978788  0.64136499  0.37711924  1  0.078439  0  0.015744  0.061502  0  4.01553  0
C  C18  1  0.64699978  0.11943730  0.26055376  1  0.077545  0  0.016175  0.063325  0  4.013189  0
C  C19  1  0.63214314  0.07433756  0.30485119  1  0.174635  0  0.00741  0.05699  0  4.045005  0
C  C20  1  0.50564974  0.11205914  0.38571962  1  0.106467  0  -0.011752  -0.111336  0  3.945345  0
C  C21  1  0.37956552  0.19375984  0.42144151  1  0.145494  0  0.006881  0.055718  0  4.046737  0
C  C22  1  0.51356887  0.37742936  0.25261445  1  1.552174  0  0.359985  0.51223  0  4.060781  0
C  C23  1  0.51678442  0.24402822  0.11962206  1  1.510395  0  0.359806  0.511853  0  4.058997  0
C  C24  1  0.51203767  0.24866351  0.24731657  1  1.142554  0  0.254533  0.404199  0  4.021829  0
C  C25  1  0.51241811  0.50095403  0.24748466  1  1.085234  0  0.254561  0.404498  0  4.021104  0
C  C26  1  0.51559983  0.37825936  0.11960315  1  1.505642  0  0.35948  0.512061  0  4.056826  0
C  C27  1  0.52107704  0.25000153  0.99724205  1  1.183611  0  0.254858  0.405035  0  4.01974  0
N  N28  1  0.51514395  0.33325780  0.16391995  1  -1.26767  0  -0.191742  -0.225723  0  3.569313  0
N  N29  1  0.48957891  0.20260948  0.16258603  1  -1.207909  0  -0.318986  -0.433228  0  3.268034  0
N  N30  1  0.53733116  0.33372934  0.29347111  1  -1.153516  0  -0.319471  -0.434413  0  3.279629  0
N  N31  1  0.48836973  0.46175239  0.29325353  1  -1.187081  0  -0.319818  -0.435095  0  3.273462  0
N  N32  1  0.53691012  0.46290125  0.16313423  1  -1.138729  0  -0.318695  -0.43473  0  3.26949  0
N  N33  1  0.54518535  0.20354155  0.03595739  1  -1.146605  0  -0.319577  -0.434296  0  3.268959  0
N  N34  1  0.49479619  0.33489459  0.03539950  1  -1.169224  0  -0.318402  -0.433982  0  3.276019  0
Cl  Cl35  1  0.77035355  0.97232141  0.26107154  1  -0.152145  0  0.022986  -0.015634  0  1.663615  0
Cl  Cl36  1  0.85147167  0.07278602  0.16795802  1  -0.125381  0  0.031448  -0.00554  0  1.696545  0
Cl  Cl37  1  0.23723575  0.23947082  0.52216235  1  -0.156619  0  0.023696  -0.014665  0  1.649308  0
Cl  Cl38  1  0.16456016  0.33122719  0.41988614  1  -0.130413  0  0.031894  -0.004862  0  1.706561  0
Cl  Cl39  1  0.87958864  0.59304000  0.42172172  1  -0.126448  0  0.031433  -0.005029  0  1.69963  0
Cl  Cl40  1  0.79524469  0.78635733  0.52539654  1  -0.151423  0  0.023044  -0.01562  0  1.656313  0
Cl  Cl41  1  0.14564617  0.59394503  0.16653551  1  -0.13506  0  0.031309  -0.005523  0  1.698264  0
Cl  Cl42  1  0.20464160  0.78873752  0.26246811  1  -0.154703  0  0.02348  -0.014928  0  1.661592  0
Cl  Cl43  1  0.16718130  0.07392501  0.90272332  1  -0.130683  0  0.031428  -0.005335  0  1.697353  0
Cl  Cl44  1  0.24960133  0.97216757  0.71073100  1  -0.160185  0  0.023257  -0.015418  0  1.65883  0
Cl  Cl45  1  0.87808719  0.33328657  0.90722185  1  -0.129832  0  0.031412  -0.005263  0  1.702071  0
Cl  Cl46  1  0.81541770  0.23904629  0.71356601  1  -0.154916  0  0.024197  -0.01413  0  1.648883  0
O  O47  1  0.27124920  0.90708243  0.48465640  1  -1.249644  0  -0.230668  -0.593013  0  2.417818  0
O  O48  1  0.26626826  0.01632919  0.42220685  1  -1.245065  0  -0.230179  -0.593386  0  2.420981  0
O  O49  1  0.28576475  0.07814775  0.59238660  1  -1.248003  0  -0.231102  -0.594869  0  2.419628  0
O  O50  1  0.73879494  0.90805985  0.42296164  1  -1.249572  0  -0.230479  -0.595106  0  2.423929  0
O  O51  1  0.75922124  0.01595634  0.59319052  1  -1.244713  0  -0.230391  -0.593227  0  2.419035  0
O  O52  1  0.74664941  0.07861990  0.48439437  1  -1.248729  0  -0.231442  -0.594617  0  2.416713  0
