# generated using pymatgen
data_Al2H17C20O13
_symmetry_space_group_name_H-M   'P 1'
_cell_length_a   6.65364386
_cell_length_b   13.99838444
_cell_length_c   16.02667881
_cell_angle_alpha   90.23042307
_cell_angle_beta   90.54976718
_cell_angle_gamma   89.26376200
_symmetry_Int_Tables_number   1
_chemical_formula_structural   Al2H17C20O13
_chemical_formula_sum   'Al4 H34 C40 O26'
_cell_volume   1492.52581702
_cell_formula_units_Z   2
loop_
 _symmetry_equiv_pos_site_id
 _symmetry_equiv_pos_as_xyz
  1  'x, y, z'
loop_
 _atom_site_type_symbol
 _atom_site_label
 _atom_site_symmetry_multiplicity
 _atom_site_fract_x
 _atom_site_fract_y
 _atom_site_fract_z
 _atom_site_occupancy
 _atom_site_pbe_bader_charge
 _atom_site_pbe_bader_spin_density
 _atom_site_pbe_cm5_charge
 _atom_site_pbe_ddec_charge
 _atom_site_pbe_ddec_spin_density
 _atom_site_pbe_ddec_sum_bond_order
 _atom_site_pbe_magmom
Al  Al0  1  0.11509662  0.50095709  0.50119039  1  2.500095  0  0.397664  1.64361  0  2.571823  0
Al  Al1  1  0.61463156  0.50380911  0.50117655  1  2.504547  0  0.396365  1.646434  0  2.577176  0
Al  Al2  1  0.62014579  0.99594835  0.00229921  1  2.500255  0  0.394806  1.636284  0  2.587486  0
Al  Al3  1  0.11966196  0.00171020  0.00199849  1  2.499155  0  0.398971  1.633088  0  2.579  0
H  H4  1  0.09724370  0.34068606  0.92696522  1  0.046037  0  0.092919  0.098998  0  0.9868  0
H  H5  1  0.29965134  0.38549264  0.75971229  1  0.040542  0  0.095903  0.105968  0  0.993993  0
H  H6  1  0.11026311  0.45685766  0.80849237  1  0.072182  0  0.09658  0.106058  0  0.980323  0
H  H7  1  0.16772624  0.17027789  0.20975016  1  0.131106  0  0.108419  0.114668  0  1.02231  0
H  H8  1  0.17301284  0.28750872  0.32768829  1  0.095383  0  0.110797  0.118773  0  0.996862  0
H  H9  1  0.54239617  0.34413245  0.28821583  1  0.126564  0  0.118915  0.141474  0  0.988732  0
H  H10  1  0.11105109  0.76370562  0.63679183  1  0.065844  0  0.113349  0.131503  0  0.989637  0
H  H11  1  0.62913372  0.62314596  0.74522111  1  0.061005  0  0.108729  0.11656  0  0.991865  0
H  H12  1  0.10683019  0.88257417  0.24014886  1  0.084283  0  0.108265  0.126343  0  1.025484  0
H  H13  1  0.62013964  0.73202370  0.14215861  1  0.105717  0  0.108213  0.128047  0  1.003313  0
H  H14  1  0.39956931  0.23095090  0.53113539  1  0.034877  0  0.111442  0.116564  0  0.965827  0
H  H15  1  0.38782529  0.29577078  0.62841788  1  0.061313  0  0.100694  0.095031  0  1.027991  0
H  H16  1  0.35092287  0.16890566  0.62555405  1  0.043297  0  0.100747  0.103528  0  1.010293  0
H  H17  1  0.30552892  0.27042577  0.07074963  1  0.087529  0  0.107594  0.111793  0  0.996765  0
H  H18  1  0.56526839  0.26478626  0.04166055  1  0.043093  0  0.097428  0.096672  0  0.996353  0
H  H19  1  0.47377682  0.36153549  0.10608646  1  0.061236  0  0.097703  0.096549  0  0.989074  0
H  H20  1  0.83792790  0.83167722  0.71835068  1  0.050491  0  0.088406  0.083041  0  1.020333  0
H  H21  1  0.81248541  0.95655914  0.74214417  1  0.099093  0  0.103626  0.119723  0  1.017847  0
H  H22  1  0.86604835  0.87342738  0.82435324  1  0.08886  0  0.098318  0.106142  0  1.019985  0
H  H23  1  0.62638876  0.74222523  0.86274515  1  0.074118  0  0.110503  0.111016  0  0.988166  0
H  H24  1  0.83164318  0.83345514  0.31511747  1  0.063722  0  0.100151  0.100686  0  1.00233  0
H  H25  1  0.99270770  0.91373288  0.37207274  1  0.036428  0  0.1029  0.102017  0  0.980284  0
H  H26  1  0.83223918  0.83378804  0.42692046  1  0.077929  0  0.114295  0.122311  0  0.96402  0
H  H27  1  0.88513208  0.52980876  0.24073837  1  0.07248  0  0.104284  0.111847  0  0.981621  0
H  H28  1  0.87212156  0.61955201  0.32033037  1  0.101992  0  0.102545  0.113264  0  1.022963  0
H  H29  1  0.87469322  0.65321654  0.21190537  1  0.037637  0  0.090182  0.083514  0  1.015861  0
H  H30  1  0.33201330  0.16699236  0.75458231  1  0.055407  0  0.088473  0.079935  0  1.050588  0
H  H31  1  0.41988126  0.10074127  0.84341481  1  0.065315  0  0.101886  0.112242  0  1.048238  0
H  H32  1  0.32517717  0.03942048  0.75281238  1  0.090947  0  0.10343  0.118423  0  1.016785  0
H  H33  1  0.28811466  0.26894403  0.87889027  1  0.053203  0  0.097646  0.109946  0  0.999349  0
H  H34  1  0.37324042  0.37901612  0.52252850  1  0.629698  0  0.336836  0.405949  0  0.911213  0
H  H35  1  0.86732077  0.62990835  0.50677210  1  0.643013  0  0.356166  0.435973  0  0.845447  0
H  H36  1  0.37513400  0.10741259  0.04962278  1  0.643967  0  0.34413  0.416632  0  0.892814  0
H  H37  1  0.88131615  0.88280227  0.03861103  1  0.612563  0  0.351709  0.427518  0  0.858975  0
C  C38  1  0.37060413  0.61627815  0.61442201  1  1.578602  0  0.267547  0.641455  0  4.094917  0
C  C39  1  0.35064864  0.61538238  0.38917228  1  1.613287  0  0.274712  0.687275  0  4.074374  0
C  C40  1  0.85551487  0.38943170  0.38802179  1  1.582748  0  0.270409  0.635428  0  4.095896  0
C  C41  1  0.87679957  0.38503288  0.61156433  1  1.594046  0  0.272491  0.674236  0  4.074267  0
C  C42  1  0.99472177  0.32292698  0.75126225  1  -0.020686  0  -0.014061  0.049969  0  3.940235  0
C  C43  1  0.87242806  0.31419491  0.68058376  1  -0.003342  0  -0.018143  -0.174266  0  3.980329  0
C  C44  1  0.74195612  0.23485905  0.67885131  1  0.522393  0  0.083407  0.132075  0  4.016595  0
C  C45  1  0.72920502  0.17119194  0.74744576  1  0.549328  0  0.084203  0.131462  0  4.010293  0
C  C46  1  0.85776818  0.18129785  0.81806934  1  -0.021585  0  -0.01366  -0.166952  0  3.966328  0
C  C47  1  0.98870599  0.25828738  0.81695506  1  0.018611  0  -0.015472  0.043498  0  3.947338  0
C  C48  1  0.14874933  0.30989241  0.86752500  1  -0.036333  0  -0.152597  -0.197872  0  3.86869  0
C  C49  1  0.15577718  0.38326581  0.79271877  1  -0.040251  0  -0.150723  -0.194213  0  3.87107  0
C  C50  1  0.03103072  0.20855227  0.22746012  1  -0.026022  0  -0.082835  -0.080372  0  3.987169  0
C  C51  1  0.03464428  0.27350322  0.29318746  1  -0.041276  0  -0.083215  -0.102932  0  3.970222  0
C  C52  1  0.85742349  0.32166795  0.31579209  1  -0.014737  0  -0.008056  -0.015872  0  3.985901  0
C  C53  1  0.67950320  0.30578572  0.27095340  1  -0.019198  0  -0.085523  -0.205206  0  3.942048  0
C  C54  1  0.67555700  0.24120213  0.20453778  1  0.503901  0  0.091142  0.242424  0  4.011122  0
C  C55  1  0.85306000  0.19060563  0.18232737  1  -0.035412  0  -0.019033  -0.146406  0  3.935987  0
C  C56  1  0.22186711  0.75833145  0.68711657  1  -0.023656  0  -0.08864  -0.209071  0  3.950671  0
C  C57  1  0.22556602  0.82731024  0.75035380  1  0.581432  0  0.094157  0.245697  0  4.039627  0
C  C58  1  0.36940501  0.81982879  0.81514354  1  -0.064306  0  -0.013865  -0.136263  0  3.937103  0
C  C59  1  0.51403642  0.74597876  0.81287455  1  -0.034765  0  -0.080863  -0.082382  0  4.015145  0
C  C60  1  0.51494860  0.67949958  0.74835790  1  0.031072  0  -0.090267  -0.120977  0  4.003167  0
C  C61  1  0.36683683  0.68531146  0.68558675  1  -0.022173  0  -0.012183  -0.017444  0  3.998188  0
C  C62  1  0.21021341  0.76079256  0.31352254  1  0.493449  0  0.092272  0.254613  0  4.060115  0
C  C63  1  0.21577561  0.82451379  0.24672262  1  0.018461  0  -0.115421  -0.270423  0  4.001935  0
C  C64  1  0.36702045  0.81465909  0.18690119  1  -0.077412  0  -0.016537  0.007197  0  4.036875  0
C  C65  1  0.50862010  0.74042982  0.19100618  1  -0.040655  0  -0.109432  -0.255656  0  4.00361  0
C  C66  1  0.49509209  0.67332475  0.25510377  1  0.566684  0  0.090336  0.258313  0  4.067274  0
C  C67  1  0.35120542  0.68432165  0.31820921  1  0.001769  0  -0.025311  -0.243635  0  3.90356  0
C  C68  1  0.36901266  0.88273388  0.11546045  1  1.567452  0  0.267668  0.649079  0  4.074301  0
C  C69  1  0.37144692  0.88794620  0.88692265  1  1.60238  0  0.27442  0.660282  0  4.090929  0
C  C70  1  0.86458951  0.11236965  0.88890066  1  1.588591  0  0.276788  0.671677  0  4.073132  0
C  C71  1  0.85995410  0.11747110  0.11429794  1  1.566713  0  0.264372  0.653468  0  4.095285  0
C  C72  1  0.43400390  0.22822209  0.59830068  1  0.440862  0  -0.134002  -0.169634  0  3.899741  0
C  C73  1  0.45973383  0.28489943  0.09156238  1  0.356448  0  -0.13438  -0.171623  0  3.91583  0
C  C74  1  0.89199194  0.89016288  0.75844387  1  0.330249  0  -0.144083  -0.169338  0  3.873114  0
C  C75  1  0.92544752  0.84225121  0.37156794  1  0.39355  0  -0.129821  -0.168906  0  3.905476  0
C  C76  1  0.82253881  0.60011513  0.25704389  1  0.355406  0  -0.140499  -0.165996  0  3.880494  0
C  C77  1  0.40933401  0.10127315  0.77524438  1  0.349806  0  -0.148843  -0.185767  0  3.861665  0
O  O78  1  0.51628459  0.60260722  0.42831302  1  -1.255292  0  -0.234162  -0.597749  0  2.331871  0
O  O79  1  0.20508431  0.60069973  0.57629489  1  -1.259965  0  -0.237611  -0.599519  0  2.338723  0
O  O80  1  0.04718541  0.42094977  0.59482747  1  -1.252863  0  -0.235706  -0.590816  0  2.301868  0
O  O81  1  0.18542457  0.57583684  0.40587627  1  -1.247557  0  -0.2263  -0.583439  0  2.360216  0
O  O82  1  0.02186072  0.40368253  0.42575453  1  -1.25622  0  -0.23507  -0.590134  0  2.346019  0
O  O83  1  0.54129197  0.57963189  0.59675810  1  -1.258849  0  -0.236446  -0.592815  0  2.342688  0
O  O84  1  0.36714872  0.44360857  0.50112389  1  -1.440196  0  -0.452425  -0.992288  0  2.230049  0
O  O85  1  0.68686411  0.42693973  0.40679554  1  -1.2577  0  -0.229181  -0.573748  0  2.351141  0
O  O86  1  0.71079347  0.40606757  0.57583054  1  -1.259462  0  -0.230296  -0.594221  0  2.379538  0
O  O87  1  0.86475680  0.56108274  0.50134377  1  -1.445745  0  -0.446994  -0.99617  0  2.214097  0
O  O88  1  0.20442114  0.91182207  0.91901830  1  -1.255849  0  -0.227894  -0.584419  0  2.364296  0
O  O89  1  0.53826854  0.90011750  0.08233336  1  -1.257415  0  -0.240238  -0.600721  0  2.320745  0
O  O90  1  0.69451080  0.08017344  0.09202204  1  -1.262159  0  -0.237859  -0.603976  0  2.400166  0
O  O91  1  0.54349600  0.91465712  0.91276563  1  -1.262065  0  -0.229726  -0.586857  0  2.356409  0
O  O92  1  0.69989288  0.08768842  0.92128983  1  -1.258086  0  -0.226915  -0.584815  0  2.383718  0
O  O93  1  0.19897015  0.91748226  0.09286458  1  -1.262204  0  -0.239844  -0.600103  0  2.343562  0
O  O94  1  0.37031292  0.05820837  0.00667982  1  -1.447715  0  -0.450431  -0.98307  0  2.19059  0
O  O95  1  0.03859440  0.08556511  0.91361702  1  -1.243402  0  -0.223089  -0.564084  0  2.31367  0
O  O96  1  0.03199371  0.09690056  0.08370376  1  -1.25878  0  -0.239726  -0.602581  0  2.335684  0
O  O97  1  0.87398194  0.93951177  0.00408397  1  -1.416969  0  -0.448009  -0.983573  0  2.197895  0
O  O98  1  0.64726392  0.21348934  0.60474612  1  -1.093343  0  -0.209276  -0.178943  0  2.573228  0
O  O99  1  0.49272881  0.22790512  0.16483150  1  -1.082281  0  -0.205793  -0.199413  0  2.567926  0
O  O100  1  0.10314782  0.90662579  0.74573603  1  -1.08298  0  -0.203846  -0.198247  0  2.555736  0
O  O101  1  0.07666123  0.76871121  0.37723577  1  -1.075999  0  -0.181936  -0.159011  0  2.576634  0
O  O102  1  0.60743647  0.59060078  0.25445192  1  -1.07687  0  -0.20241  -0.188187  0  2.540637  0
O  O103  1  0.60695750  0.09350057  0.73820553  1  -1.076391  0  -0.206266  -0.186171  0  2.56616  0
