# generated using pymatgen
data_CdH30C18S2(N2O3)2
_symmetry_space_group_name_H-M   'P 1'
_cell_length_a   8.34809420
_cell_length_b   8.48989559
_cell_length_c   8.50491125
_cell_angle_alpha   88.84096019
_cell_angle_beta   66.87129782
_cell_angle_gamma   91.10727631
_symmetry_Int_Tables_number   1
_chemical_formula_structural   CdH30C18S2(N2O3)2
_chemical_formula_sum   'Cd1 H30 C18 S2 N4 O6'
_cell_volume   553.97504635
_cell_formula_units_Z   1
loop_
 _symmetry_equiv_pos_site_id
 _symmetry_equiv_pos_as_xyz
  1  'x, y, z'
loop_
 _atom_site_type_symbol
 _atom_site_label
 _atom_site_symmetry_multiplicity
 _atom_site_fract_x
 _atom_site_fract_y
 _atom_site_fract_z
 _atom_site_occupancy
 _atom_site_hle17_bader_spin_density
 _atom_site_hle17_ddec_charge
 _atom_site_hle17_ddec_spin_density
 _atom_site_hle17_ddec_sum_bond_order
 _atom_site_hle17_magmom
 _atom_site_hse06_10hf_bader_spin_density
 _atom_site_hse06_10hf_ddec_charge
 _atom_site_hse06_10hf_ddec_spin_density
 _atom_site_hse06_10hf_ddec_sum_bond_order
 _atom_site_hse06_10hf_magmom
 _atom_site_hse06_bader_spin_density
 _atom_site_hse06_ddec_charge
 _atom_site_hse06_ddec_spin_density
 _atom_site_hse06_ddec_sum_bond_order
 _atom_site_hse06_magmom
 _atom_site_pbe_bader_spin_density
 _atom_site_pbe_cm5_charge
 _atom_site_pbe_ddec_charge
 _atom_site_pbe_ddec_spin_density
 _atom_site_pbe_ddec_sum_bond_order
 _atom_site_pbe_magmom
Cd  Cd0  1  0.49999849  0.00000025  0.50000073  1  0  1.035063  0  1.66855  0  0  0.845338  0  2.075583  0  0  0.894878  0  2.03566  0  0  0.776745  0.810567  0  2.102492  0
H  H1  1  0.17153693  0.83836878  0.62513879  1  0  0.258754  0  0.920098  0  0  0.251005  0  0.973897  0  0  0.255868  0  0.971823  0  0  0.291005  0.247507  0  0.975446  0
H  H2  1  0.82845824  0.16162858  0.37486571  1  0  0.25872  0  0.920131  0  0  0.250964  0  0.973929  0  0  0.255827  0  0.971854  0  0  0.29094  0.247463  0  0.975483  0
H  H3  1  0.44621085  0.08991724  0.84611503  1  0  0.256375  0  0.899213  0  0  0.251234  0  0.949764  0  0  0.255959  0  0.947428  0  0  0.296454  0.247853  0  0.951484  0
H  H4  1  0.55378437  0.91008244  0.15388703  1  0  0.25637  0  0.899159  0  0  0.251247  0  0.949699  0  0  0.255964  0  0.947382  0  0  0.296466  0.24787  0  0.951418  0
H  H5  1  0.72537236  0.25020876  0.85617898  1  0  0.103059  0  0.946539  0  0  0.117024  0  0.998836  0  0  0.120068  0  0.9978  0  0  0.106966  0.114819  0  0.999728  0
H  H6  1  0.27463985  0.74979471  0.14381531  1  0  0.103054  0  0.94647  0  0  0.117036  0  0.998756  0  0  0.120081  0  0.997715  0  0  0.106943  0.114802  0  0.999686  0
H  H7  1  0.63372046  0.53055698  0.90328466  1  0  0.100809  0  0.967166  0  0  0.111544  0  1.028369  0  0  0.11463  0  1.026348  0  0  0.104802  0.109326  0  1.029843  0
H  H8  1  0.36628911  0.46944409  0.09671071  1  0  0.100771  0  0.967181  0  0  0.111501  0  1.028395  0  0  0.114589  0  1.026368  0  0  0.104793  0.109278  0  1.029867  0
H  H9  1  0.97326998  0.17980852  0.59713274  1  0  0.117817  0  0.97805  0  0  0.121047  0  1.049182  0  0  0.125466  0  1.045417  0  0  0.105783  0.117851  0  1.051934  0
H  H10  1  0.02673572  0.82019362  0.40285937  1  0  0.117827  0  0.978063  0  0  0.121064  0  1.049186  0  0  0.125484  0  1.045421  0  0  0.105791  0.117873  0  1.051943  0
H  H11  1  0.20455721  0.56967627  0.72048948  1  0  0.075451  0  0.943817  0  0  0.097444  0  1.006013  0  0  0.097636  0  1.007072  0  0  0.091779  0.09725  0  1.005327  0
H  H12  1  0.79543797  0.43032228  0.27951733  1  0  0.07548  0  0.943791  0  0  0.097441  0  1.006011  0  0  0.097632  0  1.007072  0  0  0.091775  0.097247  0  1.005326  0
H  H13  1  0.43172412  0.61906656  0.64973847  1  0  0.0877  0  0.945114  0  0  0.110178  0  1.006632  0  0  0.110392  0  1.007591  0  0  0.098423  0.109913  0  1.00607  0
H  H14  1  0.56827235  0.38093202  0.35026902  1  0  0.08769  0  0.945042  0  0  0.11015  0  1.006574  0  0  0.110365  0  1.007533  0  0  0.098402  0.109886  0  1.006012  0
H  H15  1  0.33075939  0.61311367  0.50001890  1  0  0.079575  0  0.987867  0  0  0.098856  0  1.05546  0  0  0.098095  0  1.058619  0  0  0.094367  0.099296  0  1.053364  0
H  H16  1  0.66923835  0.38688258  0.49998818  1  0  0.079614  0  0.987969  0  0  0.098862  0  1.055596  0  0  0.098102  0  1.058754  0  0  0.094385  0.099301  0  1.053499  0
H  H17  1  0.32982097  0.80760457  0.87535478  1  0  0.071298  0  0.957468  0  0  0.08839  0  1.019147  0  0  0.08894  0  1.019147  0  0  0.103492  0.087864  0  1.019328  0
H  H18  1  0.67017426  0.19239631  0.12464842  1  0  0.07127  0  0.957504  0  0  0.088404  0  1.019167  0  0  0.088955  0  1.019166  0  0  0.103495  0.087878  0  1.019348  0
H  H19  1  0.10348988  0.78519499  0.91734828  1  0  0.054536  0  0.928548  0  0  0.071392  0  0.993777  0  0  0.071711  0  0.993969  0  0  0.098145  0.071122  0  0.993679  0
H  H20  1  0.89650661  0.21480356  0.08265568  1  0  0.054583  0  0.928554  0  0  0.071459  0  0.99379  0  0  0.071779  0  0.993979  0  0  0.09816  0.071187  0  0.993692  0
H  H21  1  0.11422771  0.06774925  0.80772210  1  0  0.080689  0  0.9218  0  0  0.100157  0  0.979318  0  0  0.100311  0  0.980129  0  0  0.110041  0.099915  0  0.978951  0
H  H22  1  0.88576749  0.93224925  0.19227883  1  0  0.08073  0  0.921802  0  0  0.100188  0  0.979303  0  0  0.100342  0  0.980113  0  0  0.110053  0.099946  0  0.978936  0
H  H23  1  0.15011096  0.04795115  0.00077099  1  0  0.070278  0  0.963047  0  0  0.083953  0  1.030883  0  0  0.08458  0  1.031045  0  0  0.101201  0.08342  0  1.030835  0
H  H24  1  0.84988554  0.95204737  0.99923062  1  0  0.070323  0  0.96305  0  0  0.083994  0  1.03085  0  0  0.08462  0  1.031013  0  0  0.101218  0.083461  0  1.030803  0
H  H25  1  0.25935789  0.31995451  0.90819051  1  0  0.075996  0  0.951439  0  0  0.093668  0  1.022066  0  0  0.094556  0  1.021605  0  0  0.08939  0.092929  0  1.022492  0
H  H26  1  0.74063733  0.68004517  0.09181155  1  0  0.076045  0  0.95139  0  0  0.093699  0  1.022031  0  0  0.094588  0  1.02157  0  0  0.089397  0.092963  0  1.022462  0
H  H27  1  0.27726481  0.30859127  0.69165137  1  0  0.091074  0  0.9584  0  0  0.111005  0  1.023306  0  0  0.111458  0  1.024238  0  0  0.097413  0.110592  0  1.022735  0
H  H28  1  0.72273171  0.69140844  0.30835019  1  0  0.091089  0  0.958432  0  0  0.111039  0  1.023304  0  0  0.111492  0  1.024236  0  0  0.097414  0.110628  0  1.022732  0
H  H29  1  0.46613251  0.34795298  0.73585934  1  0  0.076768  0  0.982759  0  0  0.098992  0  1.04694  0  0  0.098748  0  1.048657  0  0  0.093674  0.099067  0  1.04585  0
H  H30  1  0.53386398  0.65204557  0.26414462  1  0  0.076789  0  0.98276  0  0  0.098987  0  1.046975  0  0  0.098742  0  1.048693  0  0  0.093682  0.099065  0  1.045882  0
C  C31  1  0.79595170  0.34149909  0.76085545  1  0  -0.061917  0  3.756026  0  0  -0.074297  0  4.00978  0  0  -0.076637  0  4.028451  0  0  -0.090369  -0.072781  0  3.997177  0
C  C32  1  0.20405524  0.65849957  0.23913982  1  0  -0.061874  0  3.756026  0  0  -0.074282  0  4.009769  0  0  -0.076626  0  4.028456  0  0  -0.090297  -0.072749  0  3.99719  0
C  C33  1  0.74302921  0.49910676  0.78773679  1  0  -0.080162  0  3.791675  0  0  -0.107773  0  4.045767  0  0  -0.105789  0  4.063623  0  0  -0.091294  -0.108967  0  4.03375  0
C  C34  1  0.25697911  0.50089661  0.21225546  1  0  -0.079976  0  3.79152  0  0  -0.107587  0  4.045604  0  0  -0.105607  0  4.063464  0  0  -0.091203  -0.108774  0  4.033568  0
C  C35  1  0.82941805  0.61598726  0.66716275  1  0  -0.162518  0  3.704529  0  0  -0.141738  0  3.952716  0  0  -0.148483  0  3.973567  0  0  -0.019057  -0.13748  0  3.938972  0
C  C36  1  0.17058503  0.38401365  0.33282922  1  0  -0.162603  0  3.70436  0  0  -0.141784  0  3.952536  0  0  -0.148529  0  3.973389  0  0  -0.019083  -0.137523  0  3.938787  0
C  C37  1  0.97330133  0.58067340  0.51254588  1  0  0.050341  0  3.742921  0  0  0.06178  0  3.967181  0  0  0.062002  0  3.991435  0  0  -0.00178  0.061611  0  3.950949  0
C  C38  1  0.02669656  0.41932862  0.48744921  1  0  0.050298  0  3.74303  0  0  0.061703  0  3.967312  0  0  0.061929  0  3.991564  0  0  -0.001849  0.061531  0  3.951082  0
C  C39  1  0.93493051  0.30214340  0.61489724  1  0  -0.102952  0  3.702453  0  0  -0.129012  0  3.959708  0  0  -0.128465  0  3.975632  0  0  -0.087621  -0.129375  0  3.949115  0
C  C40  1  0.06507523  0.69786108  0.38509360  1  0  -0.103048  0  3.702434  0  0  -0.129096  0  3.959656  0  0  -0.128538  0  3.975558  0  0  -0.087664  -0.12947  0  3.949068  0
C  C41  1  0.31240312  0.64412547  0.63003988  1  0  -0.132322  0  3.691993  0  0  -0.228599  0  3.947714  0  0  -0.226117  0  3.960475  0  0  -0.151999  -0.230059  0  3.93883  0
C  C42  1  0.68759332  0.35587076  0.36996770  1  0  -0.132345  0  3.691971  0  0  -0.228561  0  3.947672  0  0  -0.22608  0  3.960434  0  0  -0.151958  -0.230022  0  3.93879  0
C  C43  1  0.22598451  0.84884251  0.83711009  1  0  -0.001781  0  3.670937  0  0  -0.060537  0  3.934258  0  0  -0.05713  0  3.946884  0  0  -0.079154  -0.062718  0  3.925421  0
C  C44  1  0.77401201  0.15115841  0.16289496  1  0  -0.001803  0  3.671018  0  0  -0.060697  0  3.934438  0  0  -0.057291  0  3.947065  0  0  -0.079198  -0.062876  0  3.925597  0
C  C45  1  0.20456921  0.02436271  0.86313533  1  0  -0.011139  0  3.647925  0  0  -0.066566  0  3.905495  0  0  -0.06372  0  3.918704  0  0  -0.079857  -0.068376  0  3.896396  0
C  C46  1  0.79542602  0.97563816  0.13686669  1  0  -0.011341  0  3.648108  0  0  -0.066654  0  3.905599  0  0  -0.063809  0  3.918807  0  0  -0.079893  -0.068462  0  3.896506  0
C  C47  1  0.34169689  0.28204327  0.77884997  1  0  -0.137876  0  3.69735  0  0  -0.234798  0  3.955807  0  0  -0.231674  0  3.966523  0  0  -0.154727  -0.236683  0  3.948369  0
C  C48  1  0.65829832  0.71795643  0.22115327  1  0  -0.138016  0  3.697321  0  0  -0.234908  0  3.955801  0  0  -0.231783  0  3.966509  0  0  -0.154767  -0.236794  0  3.948374  0
S  S49  1  0.75869513  0.81480466  0.70952405  1  0  1.291707  0  5.678799  0  0  1.191021  0  6.205843  0  0  1.239561  0  6.181323  0  0  0.50427  1.157521  0  6.221734  0
S  S50  1  0.24130138  0.18519384  0.29047520  1  0  1.291531  0  5.678723  0  0  1.190761  0  6.20583  0  0  1.239296  0  6.181315  0  0  0.504202  1.157261  0  6.221713  0
N  N51  1  0.27579954  0.81195462  0.65566508  1  0  -0.38371  0  3.230733  0  0  -0.300643  0  3.478859  0  0  -0.319807  0  3.49224  0  0  -0.493622  -0.287257  0  3.469221  0
N  N52  1  0.72419695  0.18804393  0.34433888  1  0  -0.383637  0  3.230781  0  0  -0.30052  0  3.478874  0  0  -0.319684  0  3.492261  0  0  -0.493513  -0.287133  0  3.46923  0
N  N53  1  0.37207148  0.11222587  0.77695485  1  0  -0.377637  0  3.213864  0  0  -0.298477  0  3.465434  0  0  -0.317001  0  3.478009  0  0  -0.49179  -0.285579  0  3.456379  0
N  N54  1  0.62792374  0.88777383  0.22304839  1  0  -0.377538  0  3.213806  0  0  -0.298458  0  3.465418  0  0  -0.316976  0  3.477983  0  0  -0.491817  -0.285566  0  3.456373  0
O  O55  1  0.90908135  0.90546286  0.71205898  1  0  -0.652743  0  1.958536  0  0  -0.598889  0  2.204739  0  0  -0.619648  0  2.191236  0  0  -0.334497  -0.584187  0  2.213529  0
O  O56  1  0.09091778  0.09453687  0.28794041  1  0  -0.652678  0  1.958645  0  0  -0.598774  0  2.204826  0  0  -0.619529  0  2.191323  0  0  -0.334454  -0.584073  0  2.213613  0
O  O57  1  0.71502745  0.86104964  0.56249965  1  0  -0.694268  0  2.031661  0  0  -0.62877  0  2.311678  0  0  -0.652127  0  2.295276  0  0  -0.354715  -0.612182  0  2.322305  0
O  O58  1  0.28497172  0.13895365  0.43750197  1  0  -0.694356  0  2.031747  0  0  -0.628693  0  2.311609  0  0  -0.652047  0  2.295207  0  0  -0.354681  -0.612106  0  2.322234  0
O  O59  1  0.60721226  0.81028507  0.87298446  1  0  -0.660669  0  1.931319  0  0  -0.611229  0  2.178326  0  0  -0.630801  0  2.164119  0  0  -0.34508  -0.597459  0  2.187687  0
O  O60  1  0.39278936  0.18970645  0.12701305  1  0  -0.660563  0  1.93105  0  0  -0.611181  0  2.178141  0  0  -0.630751  0  2.163933  0  0  -0.345126  -0.597411  0  2.187501  0
