# generated using pymatgen
data_ZnH19C29N3O4
_symmetry_space_group_name_H-M   'P 1'
_cell_length_a   9.18100520
_cell_length_b   10.37841758
_cell_length_c   14.26120000
_cell_angle_alpha   76.97603203
_cell_angle_beta   71.65282731
_cell_angle_gamma   64.94375508
_symmetry_Int_Tables_number   1
_chemical_formula_structural   ZnH19C29N3O4
_chemical_formula_sum   'Zn2 H38 C58 N6 O8'
_cell_volume   1161.69890546
_cell_formula_units_Z   2
loop_
 _symmetry_equiv_pos_site_id
 _symmetry_equiv_pos_as_xyz
  1  'x, y, z'
loop_
 _atom_site_type_symbol
 _atom_site_label
 _atom_site_symmetry_multiplicity
 _atom_site_fract_x
 _atom_site_fract_y
 _atom_site_fract_z
 _atom_site_occupancy
 _atom_site_hle17_bader_spin_density
 _atom_site_hle17_ddec_charge
 _atom_site_hle17_ddec_spin_density
 _atom_site_hle17_ddec_sum_bond_order
 _atom_site_hle17_magmom
 _atom_site_hse06_10hf_bader_spin_density
 _atom_site_hse06_10hf_ddec_charge
 _atom_site_hse06_10hf_ddec_spin_density
 _atom_site_hse06_10hf_ddec_sum_bond_order
 _atom_site_hse06_10hf_magmom
 _atom_site_hse06_bader_spin_density
 _atom_site_hse06_ddec_charge
 _atom_site_hse06_ddec_spin_density
 _atom_site_hse06_ddec_sum_bond_order
 _atom_site_hse06_magmom
 _atom_site_pbe_bader_charge
 _atom_site_pbe_bader_spin_density
 _atom_site_pbe_cm5_charge
 _atom_site_pbe_ddec_charge
 _atom_site_pbe_ddec_spin_density
 _atom_site_pbe_ddec_sum_bond_order
 _atom_site_pbe_magmom
Zn  Zn0  1  0.54896441  0.80673205  0.81010269  1  0  0.968513  0  1.975314  0  0  0.773957  0  2.463501  0  0  0.820014  0  2.408581  0  1.280058  0  0.692451  0.741911  0  2.501152  0
Zn  Zn1  1  0.45103644  0.19326677  0.18989677  1  0  0.968484  0  1.975337  0  0  0.773964  0  2.463529  0  0  0.820014  0  2.408608  0  1.280057  0  0.692455  0.741917  0  2.501184  0
H  H2  1  0.36218276  0.70705407  0.70580934  1  0  0.08438  0  0.920919  0  0  0.094942  0  0.98004  0  0  0.097321  0  0.978399  0  0.098221  0  0.122388  0.0934  0  0.980882  0
H  H3  1  0.63782255  0.29293727  0.29419045  1  0  0.084397  0  0.920919  0  0  0.094948  0  0.980053  0  0  0.097325  0  0.978419  0  0.098193  0  0.122382  0.093406  0  0.980895  0
H  H4  1  0.16713550  0.57419894  0.75796242  1  0  0.112235  0  0.940253  0  0  0.122355  0  0.99881  0  0  0.125547  0  0.997743  0  0.10917  0  0.113362  0.12043  0  0.999001  0
H  H5  1  0.83287420  0.42579026  0.24203963  1  0  0.112216  0  0.940292  0  0  0.122341  0  0.998848  0  0  0.125534  0  0.99778  0  0.109418  0  0.113366  0.120418  0  0.999038  0
H  H6  1  0.08569190  0.49105550  0.93633231  1  0  0.092389  0  0.950513  0  0  0.106995  0  1.00421  0  0  0.10908  0  1.003152  0  0.095647  0  0.109705  0.105358  0  1.005127  0
H  H7  1  0.91431287  0.50894225  0.06366933  1  0  0.092373  0  0.950554  0  0  0.106968  0  1.004265  0  0  0.109053  0  1.003207  0  0.095676  0  0.109681  0.105331  0  1.005181  0
H  H8  1  0.18372688  0.55014704  0.06132652  1  0  0.132073  0  0.954261  0  0  0.139761  0  1.017116  0  0  0.144001  0  1.014036  0  0.156666  0  0.112227  0.136655  0  1.019607  0
H  H9  1  0.81627504  0.44985714  0.93867255  1  0  0.132032  0  0.954308  0  0  0.139717  0  1.017176  0  0  0.143956  0  1.014097  0  0.156658  0  0.112186  0.136611  0  1.019667  0
H  H10  1  0.25920091  0.63417519  0.15633633  1  0  0.134076  0  0.956483  0  0  0.143141  0  1.017447  0  0  0.146871  0  1.015527  0  0.14996  0  0.114316  0.140426  0  1.019539  0
H  H11  1  0.74079757  0.36582899  0.84366063  1  0  0.134093  0  0.956411  0  0  0.143142  0  1.017392  0  0  0.146881  0  1.015453  0  0.150082  0  0.114329  0.140424  0  1.019486  0
H  H12  1  0.59591667  0.82760671  0.15313818  1  0  0.130763  0  0.973522  0  0  0.137444  0  1.037752  0  0  0.141551  0  1.03544  0  0.151092  0  0.110976  0.134603  0  1.039953  0
H  H13  1  0.40407979  0.17239426  0.84686182  1  0  0.130732  0  0.973554  0  0  0.137441  0  1.037738  0  0  0.141547  0  1.035426  0  0.151064  0  0.110966  0.1346  0  1.039939  0
H  H14  1  0.78612409  0.89812244  0.06016316  1  0  0.125544  0  0.94892  0  0  0.131605  0  1.013269  0  0  0.136574  0  1.009319  0  0.151575  0  0.111285  0.127831  0  1.016511  0
H  H15  1  0.21387371  0.10188067  0.93983691  1  0  0.125498  0  0.948972  0  0  0.131574  0  1.013307  0  0  0.136542  0  1.009359  0  0.151592  0  0.111278  0.1278  0  1.01655  0
H  H16  1  0.00118400  0.98051382  0.93444576  1  0  0.092096  0  0.947344  0  0  0.105564  0  1.003565  0  0  0.107982  0  1.001801  0  0.080377  0  0.108602  0.103745  0  1.004857  0
H  H17  1  0.99881921  0.01947966  0.06555340  1  0  0.092138  0  0.947335  0  0  0.105601  0  1.003551  0  0  0.108019  0  1.001785  0  0.080019  0  0.108619  0.103773  0  1.004855  0
H  H18  1  0.03528303  0.98432973  0.75547561  1  0  0.118926  0  0.982764  0  0  0.12713  0  1.043571  0  0  0.130305  0  1.042598  0  0.138149  0  0.110553  0.124692  0  1.044369  0
H  H19  1  0.96472180  0.01566267  0.24452480  1  0  0.118972  0  0.982686  0  0  0.127172  0  1.043484  0  0  0.130346  0  1.042525  0  0.138156  0  0.110576  0.124735  0  1.044281  0
H  H20  1  0.85073648  0.90324242  0.70277522  1  0  0.08017  0  0.92007  0  0  0.092946  0  0.975267  0  0  0.095143  0  0.973817  0  0.092297  0  0.121964  0.091059  0  0.976766  0
H  H21  1  0.14926646  0.09675427  0.29722557  1  0  0.080158  0  0.920169  0  0  0.092954  0  0.975337  0  0  0.095151  0  0.973886  0  0.092271  0  0.121991  0.091083  0  0.976816  0
H  H22  1  0.11839438  0.76161722  0.29496161  1  0  0.111711  0  0.962125  0  0  0.120578  0  1.026641  0  0  0.123659  0  1.02484  0  0.115617  0  0.10591  0.118353  0  1.027928  0
H  H23  1  0.88160255  0.23838268  0.70503777  1  0  0.111732  0  0.962171  0  0  0.12059  0  1.026705  0  0  0.12367  0  1.024905  0  0.115641  0  0.105905  0.118366  0  1.027992  0
H  H24  1  0.04616453  0.74660925  0.47716168  1  0  0.087838  0  0.973282  0  0  0.099577  0  1.031525  0  0  0.101289  0  1.032431  0  0.090193  0  0.098469  0.097797  0  1.031883  0
H  H25  1  0.95383099  0.25339386  0.52283745  1  0  0.087881  0  0.973177  0  0  0.09961  0  1.031438  0  0  0.101323  0  1.032342  0  0.090253  0  0.098485  0.097832  0  1.031794  0
H  H26  1  0.26341967  0.68451805  0.56732789  1  0  0.077929  0  0.953935  0  0  0.091758  0  1.011609  0  0  0.094201  0  1.01088  0  0.044936  0  0.097023  0.089779  0  1.012447  0
H  H27  1  0.73657496  0.31548185  0.43267196  1  0  0.077905  0  0.95397  0  0  0.091721  0  1.01166  0  0  0.094164  0  1.010931  0  0.044931  0  0.097012  0.089743  0  1.012497  0
H  H28  1  0.55604319  0.64036601  0.47198813  1  0  0.092531  0  0.963803  0  0  0.10404  0  1.022842  0  0  0.106041  0  1.023336  0  0.046526  0  0.101633  0.101611  0  1.023958  0
H  H29  1  0.44395105  0.35962960  0.52801179  1  0  0.092519  0  0.963813  0  0  0.104009  0  1.022892  0  0  0.106013  0  1.023382  0  0.04647  0  0.101616  0.10158  0  1.024008  0
H  H30  1  0.62822564  0.66522667  0.28849454  1  0  0.090037  0  0.958601  0  0  0.102774  0  1.018449  0  0  0.105217  0  1.017623  0  0.062781  0  0.101412  0.10088  0  1.019392  0
H  H31  1  0.37176907  0.33476788  0.71150687  1  0  0.089982  0  0.95863  0  0  0.102717  0  1.018488  0  0  0.10516  0  1.017661  0  0.062634  0  0.101354  0.100819  0  1.019433  0
H  H32  1  0.72613949  0.70157572  0.52049459  1  0  0.095616  0  0.977255  0  0  0.104511  0  1.041523  0  0  0.107177  0  1.040791  0  0.103046  0  0.099043  0.102532  0  1.04255  0
H  H33  1  0.27386527  0.29842204  0.47950566  1  0  0.095626  0  0.977205  0  0  0.104544  0  1.041453  0  0  0.10721  0  1.04072  0  0.102983  0  0.099043  0.102561  0  1.042475  0
H  H34  1  0.11241639  0.37865995  0.64842638  1  0  0.101942  0  0.961932  0  0  0.108894  0  1.028379  0  0  0.112736  0  1.025665  0  0.113126  0  0.099282  0.106427  0  1.029902  0
H  H35  1  0.88758216  0.62133888  0.35157425  1  0  0.101895  0  0.961943  0  0  0.108836  0  1.0284  0  0  0.112681  0  1.025685  0  0.113108  0  0.099258  0.106342  0  1.029957  0
H  H36  1  0.64387801  0.01094173  0.61731752  1  0  0.083714  0  0.965527  0  0  0.092906  0  1.031519  0  0  0.096046  0  1.029925  0  0.062045  0  0.096856  0.090794  0  1.032564  0
H  H37  1  0.35612020  0.98906566  0.38268317  1  0  0.083759  0  0.965483  0  0  0.092954  0  1.031466  0  0  0.096067  0  1.029902  0  0.062049  0  0.096871  0.090841  0  1.032515  0
H  H38  1  0.20330450  0.03143447  0.55889342  1  0  0.088528  0  0.953061  0  0  0.099093  0  1.014648  0  0  0.102556  0  1.012853  0  0.051796  0  0.098596  0.096599  0  1.016266  0
H  H39  1  0.79669438  0.96857399  0.44110697  1  0  0.088564  0  0.95307  0  0  0.099119  0  1.014669  0  0  0.102582  0  1.012873  0  0.052199  0  0.098613  0.096624  0  1.016289  0
C  C40  1  0.31628750  0.67217170  0.78358539  1  0  0.142784  0  3.707919  0  0  0.110912  0  3.963043  0  0  0.117274  0  3.980948  0  0.497214  0  0.058119  0.106427  0  3.9507  0
C  C41  1  0.68371591  0.32782392  0.21641408  1  0  0.142746  0  3.70798  0  0  0.1109  0  3.963103  0  0  0.117261  0  3.981006  0  0.497261  0  0.058133  0.106417  0  3.950762  0
C  C42  1  0.21106041  0.59761860  0.81230036  1  0  -0.113908  0  3.734672  0  0  -0.12907  0  3.991564  0  0  -0.1353  0  4.013024  0  0.019716  0  -0.076358  -0.125291  0  3.976841  0
C  C43  1  0.78894301  0.40237701  0.18770121  1  0  -0.113909  0  3.734754  0  0  -0.12907  0  3.991658  0  0  -0.135302  0  4.013121  0  0.019429  0  -0.076366  -0.125291  0  3.976928  0
C  C44  1  0.16376535  0.55310178  0.91294118  1  0  -0.003019  0  3.720612  0  0  -0.023351  0  3.974367  0  0  -0.020464  0  3.993902  0  -0.077316  0  -0.066445  -0.024409  0  3.961338  0
C  C45  1  0.83624312  0.44689277  0.08706024  1  0  -0.002953  0  3.720714  0  0  -0.023287  0  3.974487  0  0  -0.0204  0  3.994021  0  -0.077408  0  -0.06641  -0.024344  0  3.961459  0
C  C46  1  0.21810240  0.58599863  0.98230264  1  0  -0.137355  0  3.663688  0  0  -0.156131  0  3.9129  0  0  -0.162542  0  3.933547  0  -0.075408  0  -0.075196  -0.152487  0  3.89796  0
C  C47  1  0.78189837  0.41400554  0.01769736  1  0  -0.13731  0  3.663649  0  0  -0.156098  0  3.912846  0  0  -0.162513  0  3.933506  0  -0.075349  0  -0.075128  -0.152452  0  3.897904  0
C  C48  1  0.32129695  0.66355353  0.94739136  1  0  0.171832  0  3.747344  0  0  0.168  0  3.988724  0  0  0.173192  0  4.010341  0  0.498875  0  0.121427  0.166242  0  3.971226  0
C  C49  1  0.67870430  0.33644957  0.05260732  1  0  0.171857  0  3.747225  0  0  0.16811  0  3.988513  0  0  0.1733  0  4.010131  0  0.498995  0  0.121469  0.166349  0  3.971017  0
C  C50  1  0.39106601  0.70367998  0.01244907  1  0  0.191839  0  3.770324  0  0  0.183824  0  4.018321  0  0  0.191186  0  4.038257  0  0.469881  0  0.123511  0.179805  0  4.003331  0
C  C51  1  0.60893362  0.29632420  0.98754905  1  0  0.191794  0  3.770429  0  0  0.183748  0  4.018473  0  0  0.191096  0  4.038412  0  0.469862  0  0.123538  0.179731  0  4.003482  0
C  C52  1  0.34795668  0.68423241  0.11626844  1  0  -0.163924  0  3.596544  0  0  -0.18869  0  3.840857  0  0  -0.195413  0  3.859712  0  0.010686  0  -0.069393  -0.188842  0  3.832459  0
C  C53  1  0.65204133  0.31577283  0.88372914  1  0  -0.163924  0  3.596534  0  0  -0.188651  0  3.840851  0  0  -0.195379  0  3.859692  0  0.010863  0  -0.069408  -0.1888  0  3.832454  0
C  C54  1  0.42294036  0.72815337  0.16871608  1  0  0.125789  0  3.736128  0  0  0.134972  0  3.971876  0  0  0.140722  0  3.993172  0  -0.007103  0  0.019702  0.132172  0  3.960571  0
C  C55  1  0.57705677  0.27184866  0.83128361  1  0  0.125822  0  3.736074  0  0  0.134984  0  3.971817  0  0  0.140746  0  3.993094  0  -0.007423  0  0.019699  0.132185  0  3.960513  0
C  C56  1  0.54122530  0.78731124  0.11432662  1  0  -0.176375  0  3.626948  0  0  -0.201852  0  3.87664  0  0  -0.209068  0  3.895677  0  -0.106292  0  -0.075673  -0.201367  0  3.867591  0
C  C57  1  0.45877183  0.21269080  0.88567447  1  0  -0.176368  0  3.626986  0  0  -0.20187  0  3.876632  0  0  -0.209092  0  3.895672  0  -0.106262  0  -0.075622  -0.201384  0  3.867583  0
C  C58  1  0.58052640  0.80076053  0.01081822  1  0  0.19331  0  3.781254  0  0  0.185414  0  4.02784  0  0  0.192912  0  4.047738  0  0.581886  0  0.122061  0.181245  0  4.013118  0
C  C59  1  0.41946931  0.19924471  0.98918193  1  0  0.193293  0  3.781249  0  0  0.18548  0  4.02776  0  0  0.192967  0  4.047656  0  0.581856  0  0.122052  0.18131  0  4.013037  0
C  C60  1  0.70788412  0.85592811  0.94522725  1  0  0.168427  0  3.749312  0  0  0.165906  0  3.987252  0  0  0.170761  0  4.009239  0  0.474533  0  0.119801  0.163929  0  3.97021  0
C  C61  1  0.29211855  0.14407179  0.05477447  1  0  0.168411  0  3.749399  0  0  0.165884  0  3.9873  0  0  0.170739  0  4.009288  0  0.474537  0  0.119768  0.163915  0  3.970246  0
C  C62  1  0.80480979  0.89882208  0.98053754  1  0  -0.139196  0  3.674513  0  0  -0.157157  0  3.923608  0  0  -0.163713  0  3.944275  0  -0.046213  0  -0.076967  -0.152971  0  3.908723  0
C  C63  1  0.19519011  0.10117889  0.01946386  1  0  -0.139205  0  3.674621  0  0  -0.157187  0  3.923709  0  0  -0.163741  0  3.944376  0  -0.046163  0  -0.076964  -0.153002  0  3.908814  0
C  C64  1  0.92336799  0.94510833  0.91102280  1  0  0.003155  0  3.711474  0  0  -0.018783  0  3.967374  0  0  -0.015859  0  3.986865  0  -0.059252  0  -0.065198  -0.019776  0  3.9538  0
C  C65  1  0.07663448  0.05488943  0.08897581  1  0  0.003162  0  3.71145  0  0  -0.018775  0  3.967347  0  0  -0.015849  0  3.986839  0  -0.059069  0  -0.06518  -0.019762  0  3.953775  0
C  C66  1  0.94411248  0.94652365  0.80976059  1  0  -0.116418  0  3.722909  0  0  -0.131128  0  3.976425  0  0  -0.137417  0  3.998341  0  0.019528  0  -0.078833  -0.126988  0  3.961575  0
C  C67  1  0.05589417  0.05346983  0.19023997  1  0  -0.116465  0  3.722665  0  0  -0.131168  0  3.976165  0  0  -0.137462  0  3.998096  0  0.019381  0  -0.078906  -0.127031  0  3.961322  0
C  C68  1  0.84164967  0.90333977  0.78098061  1  0  0.141977  0  3.706248  0  0  0.110706  0  3.960448  0  0  0.116787  0  3.978327  0  0.482307  0  0.057575  0.106293  0  3.948479  0
C  C69  1  0.15834976  0.09666227  0.21902002  1  0  0.141944  0  3.706244  0  0  0.110655  0  3.960441  0  0  0.116738  0  3.978321  0  0.482233  0  0.057566  0.106232  0  3.948474  0
C  C70  1  0.37922350  0.71436175  0.27818695  1  0  0.023823  0  3.787962  0  0  0.042742  0  4.017231  0  0  0.04046  0  4.042083  0  -0.068046  0  -0.013752  0.044213  0  4.000505  0
C  C71  1  0.62077093  0.28563601  0.72181329  1  0  0.023781  0  3.788029  0  0  0.042729  0  4.017271  0  0  0.040443  0  4.042126  0  -0.068071  0  -0.013825  0.0442  0  4.000543  0
C  C72  1  0.21531976  0.73626446  0.33267498  1  0  -0.103886  0  3.714098  0  0  -0.125213  0  3.959638  0  0  -0.127925  0  3.982272  0  0.033663  0  -0.085713  -0.123534  0  3.944598  0
C  C73  1  0.78467467  0.26373330  0.66732665  1  0  -0.103845  0  3.714054  0  0  -0.125173  0  3.959569  0  0  -0.127886  0  3.982207  0  0.033708  0  -0.085614  -0.123494  0  3.944529  0
C  C74  1  0.17398630  0.72866473  0.43606292  1  0  -0.068822  0  3.781415  0  0  -0.079678  0  4.026125  0  0  -0.08265  0  4.050813  0  -0.104674  0  -0.091476  -0.077644  0  4.010168  0
C  C75  1  0.82600996  0.27133410  0.56393817  1  0  -0.068851  0  3.78132  0  0  -0.079711  0  4.026042  0  0  -0.082683  0  4.050727  0  -0.104807  0  -0.091502  -0.077681  0  4.010088  0
C  C76  1  0.29600652  0.69358873  0.48635299  1  0  -0.066139  0  3.774668  0  0  -0.081288  0  4.023381  0  0  -0.083758  0  4.046409  0  -0.037982  0  -0.089152  -0.079724  0  4.007779  0
C  C77  1  0.70399156  0.30641117  0.51364686  1  0  -0.066132  0  3.774706  0  0  -0.081266  0  4.023411  0  0  -0.083735  0  4.046438  0  -0.037729  0  -0.089162  -0.079704  0  4.00781  0
C  C78  1  0.45996176  0.66916240  0.43305444  1  0  -0.068827  0  3.789987  0  0  -0.080389  0  4.038652  0  0  -0.083285  0  4.062712  0  -0.103182  0  -0.090593  -0.077756  0  4.022207  0
C  C79  1  0.54003592  0.33083322  0.56694408  1  0  -0.068791  0  3.79002  0  0  -0.080345  0  4.038693  0  0  -0.083242  0  4.062756  0  -0.103314  0  -0.090571  -0.077712  0  4.022246  0
C  C80  1  0.50066750  0.68184894  0.32970905  1  0  -0.106177  0  3.735213  0  0  -0.128123  0  3.982248  0  0  -0.130795  0  4.004909  0  0.030912  0  -0.088753  -0.126342  0  3.96694  0
C  C81  1  0.49932551  0.31815203  0.67029025  1  0  -0.106165  0  3.735344  0  0  -0.128115  0  3.982382  0  0  -0.130789  0  4.005047  0  0.031031  0  -0.088695  -0.126329  0  3.967067  0
C  C82  1  0.81321261  0.59690078  0.69424325  1  0  0.631647  0  3.935632  0  0  0.585149  0  4.227321  0  0  0.619168  0  4.219376  0  1.560011  0  0.196776  0.562432  0  4.230794  0
C  C83  1  0.18678567  0.40310126  0.30575551  1  0  0.631709  0  3.935692  0  0  0.585231  0  4.227368  0  0  0.61925  0  4.219421  0  1.559748  0  0.196804  0.562514  0  4.230842  0
C  C84  1  0.84568138  0.61232382  0.51055076  1  0  -0.078187  0  3.735028  0  0  -0.100442  0  3.984203  0  0  -0.100742  0  4.003764  0  -0.074864  0  -0.088009  -0.100297  0  3.972185  0
C  C85  1  0.15431879  0.38767393  0.48945042  1  0  -0.078206  0  3.734965  0  0  -0.100469  0  3.984128  0  0  -0.100771  0  4.00369  0  -0.074504  0  -0.087991  -0.100318  0  3.972111  0
C  C86  1  0.91030305  0.54611717  0.59397120  1  0  -0.065948  0  3.763493  0  0  -0.041986  0  3.99049  0  0  -0.048897  0  4.0134  0  -0.010625  0  -0.020709  -0.036498  0  3.973627  0
C  C87  1  0.08969483  0.45388059  0.40602974  1  0  -0.065887  0  3.763445  0  0  -0.041951  0  3.990465  0  0  -0.04886  0  4.013377  0  -0.0109  0  -0.020718  -0.036462  0  3.973593  0
C  C88  1  0.06556362  0.43307868  0.58288727  1  0  -0.080094  0  3.741333  0  0  -0.102879  0  3.99281  0  0  -0.1041  0  4.012977  0  -0.083424  0  -0.087085  -0.101615  0  3.979262  0
C  C89  1  0.93443676  0.56692122  0.41711351  1  0  -0.080073  0  3.741341  0  0  -0.102842  0  3.992809  0  0  -0.10406  0  4.012964  0  -0.083478  0  -0.087059  -0.101558  0  3.979282  0
C  C90  1  0.31866747  0.05222568  0.70555848  1  0  0.638505  0  3.917164  0  0  0.590556  0  4.214532  0  0  0.623633  0  4.206456  0  1.56775  0  0.200787  0.56775  0  4.219625  0
C  C91  1  0.68133263  0.94777743  0.29444183  1  0  0.638437  0  3.917252  0  0  0.590478  0  4.214688  0  0  0.623557  0  4.206616  0  1.567822  0  0.200749  0.567673  0  4.219779  0
C  C92  1  0.58159757  0.00501728  0.56580386  1  0  -0.061117  0  3.757793  0  0  -0.084954  0  4.009302  0  0  -0.084957  0  4.02906  0  -0.040532  0  -0.086377  -0.084356  0  3.995083  0
C  C93  1  0.41840665  0.99498690  0.43419474  1  0  -0.061254  0  3.757861  0  0  -0.085079  0  4.009445  0  0  -0.085059  0  4.029208  0  -0.040078  0  -0.086472  -0.084482  0  3.995226  0
C  C94  1  0.41434118  0.02197225  0.60003000  1  0  -0.069815  0  3.746058  0  0  -0.046911  0  3.977289  0  0  -0.052899  0  3.999344  0  -0.00999  0  -0.021244  -0.043063  0  3.962155  0
C  C95  1  0.58565743  0.97803942  0.39996780  1  0  -0.069752  0  3.745986  0  0  -0.04692  0  3.97733  0  0  -0.052907  0  3.999374  0  -0.010084  0  -0.021196  -0.043071  0  3.962196  0
C  C96  1  0.33385658  0.01684585  0.53281376  1  0  -0.082334  0  3.75012  0  0  -0.10384  0  4.000264  0  0  -0.105264  0  4.020326  0  -0.025309  0  -0.088448  -0.102716  0  3.986474  0
C  C97  1  0.66614602  0.98315939  0.46718429  1  0  -0.082476  0  3.750187  0  0  -0.103959  0  4.000364  0  0  -0.105382  0  4.020435  0  -0.025217  0  -0.088556  -0.102835  0  3.986577  0
N  N98  1  0.36865979  0.70444380  0.84942255  1  0  -0.342067  0  3.246597  0  0  -0.272576  0  3.50926  0  0  -0.288937  0  3.524715  0  -1.240162  0  -0.314134  -0.261578  0  3.498886  0
N  N99  1  0.63134173  0.29555610  0.15057519  1  0  -0.342112  0  3.246627  0  0  -0.272667  0  3.509291  0  0  -0.289025  0  3.524748  0  -1.240244  0  -0.314208  -0.26167  0  3.498921  0
N  N100  1  0.50429375  0.76099354  0.96283682  1  0  -0.391916  0  3.327057  0  0  -0.323466  0  3.599262  0  0  -0.341298  0  3.612386  0  -1.265977  0  -0.329281  -0.308908  0  3.588165  0
N  N101  1  0.49570332  0.23901385  0.03716201  1  0  -0.391853  0  3.326929  0  0  -0.323495  0  3.599218  0  0  -0.341293  0  3.612311  0  -1.265934  0  -0.329334  -0.308935  0  3.588115  0
N  N102  1  0.72646964  0.86032491  0.84683969  1  0  -0.33741  0  3.264924  0  0  -0.266828  0  3.529718  0  0  -0.282794  0  3.544515  0  -1.247948  0  -0.315018  -0.255808  0  3.519813  0
N  N103  1  0.27353046  0.13967820  0.15316132  1  0  -0.337353  0  3.264962  0  0  -0.266777  0  3.529751  0  0  -0.282742  0  3.544547  0  -1.247902  0  -0.315002  -0.255761  0  3.519851  0
O  O104  1  0.67934555  0.71075230  0.69130342  1  0  -0.652892  0  2.113142  0  0  -0.577045  0  2.39221  0  0  -0.606996  0  2.37899  0  -1.170438  0  -0.337499  -0.556152  0  2.40004  0
O  O105  1  0.32065091  0.28924866  0.30869658  1  0  -0.652878  0  2.113193  0  0  -0.57706  0  2.392272  0  0  -0.60701  0  2.379056  0  -1.170384  0  -0.337501  -0.556166  0  2.400103  0
O  O106  1  0.86184838  0.53295244  0.77121517  1  0  -0.628139  0  1.890843  0  0  -0.588397  0  2.113872  0  0  -0.608887  0  2.102354  0  -1.193237  0  -0.339101  -0.573632  0  2.120729  0
O  O107  1  0.13815227  0.46704425  0.22878398  1  0  -0.628197  0  1.890888  0  0  -0.588452  0  2.113918  0  0  -0.608943  0  2.102393  0  -1.192967  0  -0.339117  -0.573688  0  2.120774  0
O  O108  1  0.40112472  0.00607957  0.77403820  1  0  -0.683733  0  2.078296  0  0  -0.613566  0  2.366042  0  0  -0.640217  0  2.34807  0  -1.202733  0  -0.352661  -0.594506  0  2.377904  0
O  O109  1  0.59887356  0.99392247  0.22596336  1  0  -0.683687  0  2.078388  0  0  -0.613522  0  2.366153  0  0  -0.64017  0  2.348176  0  -1.202825  0  -0.352625  -0.594463  0  2.378014  0
O  O110  1  0.16583578  0.12331909  0.72306940  1  0  -0.596348  0  1.908302  0  0  -0.55434  0  2.130785  0  0  -0.575164  0  2.120989  0  -1.189814  0  -0.322704  -0.539066  0  2.136983  0
O  O111  1  0.83416365  0.87668294  0.27693262  1  0  -0.596318  0  1.908309  0  0  -0.554278  0  2.130797  0  0  -0.575104  0  2.121006  0  -1.189789  0  -0.322674  -0.539  0  2.136982  0
