# generated using pymatgen
data_NiH14C10(N4O)2
_symmetry_space_group_name_H-M   'P 1'
_cell_length_a   7.27238115
_cell_length_b   7.39172784
_cell_length_c   8.08478250
_cell_angle_alpha   107.53145616
_cell_angle_beta   89.84306143
_cell_angle_gamma   119.46925964
_symmetry_Int_Tables_number   1
_chemical_formula_structural   NiH14C10(N4O)2
_chemical_formula_sum   'Ni1 H14 C10 N8 O2'
_cell_volume   355.21677403
_cell_formula_units_Z   1
loop_
 _symmetry_equiv_pos_site_id
 _symmetry_equiv_pos_as_xyz
  1  'x, y, z'
loop_
 _atom_site_type_symbol
 _atom_site_label
 _atom_site_symmetry_multiplicity
 _atom_site_fract_x
 _atom_site_fract_y
 _atom_site_fract_z
 _atom_site_occupancy
 _atom_site_pbe_cm5_charge
 _atom_site_pbe_ddec_charge
 _atom_site_pbe_ddec_spin_density
 _atom_site_pbe_ddec_sum_bond_order
 _atom_site_pbe_magmom
Ni  Ni0  1  0.99999728  0.99999921  0.49999964  1  0.715606  0.917293  -0.00029  2.675219  0.0
H  H1  1  0.77058584  0.54010025  0.23346415  1  0.117615  0.040509  -1.2e-05  1.063076  0.0
H  H2  1  0.22942035  0.45990508  0.76653763  1  0.117653  0.040549  -1.2e-05  1.063178  0.0
H  H3  1  0.66440624  0.57311204  0.75674178  1  0.100859  0.116393  4.7e-05  1.014311  0.0
H  H4  1  0.09114310  0.42673804  0.24388319  1  0.100706  0.116212  -4.7e-05  1.014585  0.0
H  H5  1  0.33559337  0.42688838  0.24325732  1  0.100863  0.116431  4.7e-05  1.014344  0.0
H  H6  1  0.90885596  0.57326403  0.75611640  1  0.100683  0.116184  -4.7e-05  1.014577  0.0
H  H7  1  0.90215280  0.80478531  0.90302753  1  0.111664  0.140485  -4e-06  1.006508  0.0
H  H8  1  0.09784821  0.19521516  0.09697034  1  0.111644  0.140467  -4e-06  1.006432  0.0
H  H9  1  0.48467844  0.21516547  0.83257211  1  0.101564  0.11912  -2.2e-05  1.01576  0.0
H  H10  1  0.26985368  0.78530466  0.16826992  1  0.101301  0.118655  2e-05  1.016737  0.0
H  H11  1  0.51532280  0.78483821  0.16742919  1  0.101574  0.119133  -2.2e-05  1.015741  0.0
H  H12  1  0.73014896  0.21469907  0.83173015  1  0.101283  0.118628  2e-05  1.016714  0.0
H  H13  1  0.61173784  0.22335388  0.02591099  1  0.106692  0.121856  -1e-06  1.015601  0.0
H  H14  1  0.38826338  0.77664975  0.97409153  1  0.106715  0.121889  -1e-06  1.015547  0.0
C  C15  1  0.54438150  0.77582003  0.56953348  1  0.317016  0.446884  0.011575  4.23137  0.013
C  C16  1  0.76812823  0.22353723  0.43054049  1  0.316768  0.447196  -0.011289  4.232096  -0.013
C  C17  1  0.45560402  0.22416871  0.43046465  1  0.316981  0.44683  0.011576  4.231292  0.013
C  C18  1  0.23186735  0.77645510  0.56945127  1  0.316717  0.447027  -0.011291  4.231958  -0.013
C  C19  1  0.82031031  0.63980132  0.14631823  1  0.166987  0.28213  -9e-06  4.110561  0.0
C  C20  1  0.17970721  0.36023219  0.85369065  1  0.166853  0.28203  -9e-06  4.110309  0.0
C  C21  1  0.81236272  0.62473972  0.84050563  1  -0.136499  -0.265439  -6e-06  3.858725  0.0
C  C22  1  0.18764074  0.37526566  0.15949493  1  -0.136451  -0.265443  -6e-06  3.858694  0.0
C  C23  1  0.63986512  0.27968409  0.91252069  1  -0.136444  -0.280962  -8e-06  3.897563  0.0
C  C24  1  0.36013389  0.72031789  0.08748134  1  -0.136434  -0.280988  -8e-06  3.897478  0.0
N  N25  1  0.70169571  0.79269272  0.51738895  1  -0.375783  -0.526932  0.029008  3.263983  0.023
N  N26  1  0.90787633  0.20627406  0.48286215  1  -0.375914  -0.527383  -0.028723  3.264908  -0.023
N  N27  1  0.29830011  0.20730566  0.48261945  1  -0.375694  -0.526791  0.029009  3.264121  0.023
N  N28  1  0.09211752  0.79371482  0.51713230  1  -0.375851  -0.527252  -0.028716  3.264859  -0.023
N  N29  1  0.37472910  0.74996769  0.63635553  1  -0.298624  -0.377538  0.000115  3.530216  0.0
N  N30  1  0.62526686  0.25001443  0.36364062  1  -0.298659  -0.377629  0.000116  3.530123  0.0
N  N31  1  0.76033801  0.52050077  0.97407883  1  -0.285535  0.031195  -2.8e-05  3.718111  0.0
N  N32  1  0.23966295  0.47949960  0.02592149  1  -0.285451  0.031343  -2.8e-05  3.718329  0.0
O  O33  1  0.92424704  0.84757769  0.20742238  1  -0.290211  -0.460987  -0.000478  2.352661  -0.001
O  O34  1  0.07574573  0.15240627  0.79256938  1  -0.290194  -0.461094  -0.000474  2.351929  -0.001
