# generated using pymatgen
data_NaPH5(C2O)3
_symmetry_space_group_name_H-M   'P 1'
_cell_length_a   6.33054832
_cell_length_b   7.45711937
_cell_length_c   14.54351868
_cell_angle_alpha   104.85320059
_cell_angle_beta   99.65131646
_cell_angle_gamma   89.95834789
_symmetry_Int_Tables_number   1
_chemical_formula_structural   NaPH5(C2O)3
_chemical_formula_sum   'Na4 P4 H20 C24 O12'
_cell_volume   653.58823858
_cell_formula_units_Z   4
loop_
 _symmetry_equiv_pos_site_id
 _symmetry_equiv_pos_as_xyz
  1  'x, y, z'
loop_
 _atom_site_type_symbol
 _atom_site_label
 _atom_site_symmetry_multiplicity
 _atom_site_fract_x
 _atom_site_fract_y
 _atom_site_fract_z
 _atom_site_occupancy
 _atom_site_hle17_bader_spin_density
 _atom_site_hle17_ddec_charge
 _atom_site_hle17_ddec_spin_density
 _atom_site_hle17_ddec_sum_bond_order
 _atom_site_hle17_magmom
 _atom_site_hse06_10hf_bader_spin_density
 _atom_site_hse06_10hf_ddec_charge
 _atom_site_hse06_10hf_ddec_spin_density
 _atom_site_hse06_10hf_ddec_sum_bond_order
 _atom_site_hse06_10hf_magmom
 _atom_site_hse06_bader_spin_density
 _atom_site_hse06_ddec_charge
 _atom_site_hse06_ddec_spin_density
 _atom_site_hse06_ddec_sum_bond_order
 _atom_site_hse06_magmom
 _atom_site_pbe_bader_spin_density
 _atom_site_pbe_cm5_charge
 _atom_site_pbe_ddec_charge
 _atom_site_pbe_ddec_spin_density
 _atom_site_pbe_ddec_sum_bond_order
 _atom_site_pbe_magmom
Na  Na0  1  0.24973243  0.10876191  0.00002597  1  0  0.906305  0  0.426626  0  0  0.872977  0  0.57217  0  0  0.881361  0  0.55223  0  0  0.817009  0.866479  0  0.586795  0
Na  Na1  1  0.75026258  0.89124074  0.99997377  1  0  0.906297  0  0.426637  0  0  0.872969  0  0.572181  0  0  0.881354  0  0.552244  0  0  0.817004  0.866475  0  0.586809  0
Na  Na2  1  0.74998299  0.45741986  0.99977865  1  0  0.921764  0  0.40027  0  0  0.893113  0  0.542909  0  0  0.900823  0  0.522235  0  0  0.763487  0.887122  0  0.557996  0
Na  Na3  1  0.25001360  0.54258277  0.00022189  1  0  0.921774  0  0.400265  0  0  0.893093  0  0.542941  0  0  0.900803  0  0.522267  0  0  0.763491  0.8871  0  0.558029  0
P  P4  1  0.00288006  0.28059899  0.14986705  1  0  1.457619  0  4.916934  0  0  1.30397  0  5.420991  0  0  1.353891  0  5.378049  0  0  0.281642  1.269209  0  5.450066  0
P  P5  1  0.49673092  0.13091364  0.85027739  1  0  1.458887  0  4.912622  0  0  1.305878  0  5.415249  0  0  1.355851  0  5.372176  0  0  0.28225  1.271022  0  5.444605  0
P  P6  1  0.99711975  0.71940502  0.85013600  1  0  1.457536  0  4.916799  0  0  1.30389  0  5.420864  0  0  1.353808  0  5.377928  0  0  0.281642  1.269156  0  5.449889  0
P  P7  1  0.50326246  0.86908901  0.14972291  1  0  1.458817  0  4.912733  0  0  1.305819  0  5.415342  0  0  1.355794  0  5.372238  0  0  0.282243  1.270966  0  5.444688  0
H  H8  1  0.64603602  0.58168836  0.37550032  1  0  0.091393  0  0.977486  0  0  0.102371  0  1.039788  0  0  0.104548  0  1.040306  0  0  0.099695  0.100733  0  1.039744  0
H  H9  1  0.85389918  0.20691548  0.62431230  1  0  0.092197  0  0.978606  0  0  0.103356  0  1.040355  0  0  0.105553  0  1.040855  0  0  0.099904  0.101702  0  1.040287  0
H  H10  1  0.35397490  0.41831146  0.62449822  1  0  0.091312  0  0.977592  0  0  0.102281  0  1.039901  0  0  0.104457  0  1.040422  0  0  0.099672  0.100642  0  1.039855  0
H  H11  1  0.14609383  0.79307885  0.37568344  1  0  0.092194  0  0.978683  0  0  0.103356  0  1.040415  0  0  0.105553  0  1.040918  0  0  0.099895  0.101701  0  1.040354  0
H  H12  1  0.41491272  0.48993350  0.21816523  1  0  0.102466  0  0.946568  0  0  0.113959  0  1.005202  0  0  0.117111  0  1.003447  0  0  0.114244  0.111654  0  1.006578  0
H  H13  1  0.08477927  0.27265539  0.78172211  1  0  0.10341  0  0.946184  0  0  0.115482  0  1.004057  0  0  0.118628  0  1.002343  0  0  0.114667  0.113199  0  1.005375  0
H  H14  1  0.58509497  0.51006633  0.78183443  1  0  0.102432  0  0.946645  0  0  0.113952  0  1.005252  0  0  0.117105  0  1.003495  0  0  0.114232  0.111652  0  1.00662  0
H  H15  1  0.91520906  0.72734173  0.21827500  1  0  0.103366  0  0.946218  0  0  0.115457  0  1.004068  0  0  0.118603  0  1.002355  0  0  0.114638  0.113172  0  1.005387  0
H  H16  1  0.16694063  0.35635339  0.50057009  1  0  0.088131  0  0.984516  0  0  0.098268  0  1.048583  0  0  0.100571  0  1.048852  0  0  0.09796  0.096608  0  1.048573  0
H  H17  1  0.33325743  0.85560051  0.49968032  1  0  0.087521  0  0.985347  0  0  0.097723  0  1.049213  0  0  0.100049  0  1.049416  0  0  0.097866  0.096017  0  1.049271  0
H  H18  1  0.83307501  0.64364641  0.49943225  1  0  0.088087  0  0.984549  0  0  0.098245  0  1.048578  0  0  0.100549  0  1.04885  0  0  0.097913  0.096581  0  1.04858  0
H  H19  1  0.66674043  0.14439657  0.50032028  1  0  0.087543  0  0.985366  0  0  0.097742  0  1.049223  0  0  0.100067  0  1.049429  0  0  0.097885  0.096033  0  1.049275  0
H  H20  1  0.93787989  0.26372526  0.34223320  1  0  0.091303  0  0.963286  0  0  0.10265  0  1.024577  0  0  0.10446  0  1.025432  0  0  0.102215  0.101285  0  1.024179  0
H  H21  1  0.56200065  0.92143075  0.65809746  1  0  0.091686  0  0.961613  0  0  0.102528  0  1.023627  0  0  0.104424  0  1.024414  0  0  0.101669  0.101081  0  1.023346  0
H  H22  1  0.06213085  0.73627317  0.65776926  1  0  0.0914  0  0.963466  0  0  0.102752  0  1.024699  0  0  0.104566  0  1.025548  0  0  0.102263  0.101386  0  1.024304  0
H  H23  1  0.43799573  0.07856911  0.34190477  1  0  0.091658  0  0.961651  0  0  0.102496  0  1.023677  0  0  0.104391  0  1.024466  0  0  0.101646  0.101048  0  1.023394  0
H  H24  1  0.66125917  0.21748251  0.14921468  1  0  0.449803  0  0.854835  0  0  0.415196  0  0.924312  0  0  0.42702  0  0.907369  0  0  0.311614  0.406915  0  0.936148  0
H  H25  1  0.83849171  0.06853879  0.85085807  1  0  0.449091  0  0.855728  0  0  0.415226  0  0.924117  0  0  0.42706  0  0.907152  0  0  0.311687  0.406931  0  0.935977  0
H  H26  1  0.33874209  0.78251871  0.85078810  1  0  0.449861  0  0.854748  0  0  0.415259  0  0.924212  0  0  0.427083  0  0.907269  0  0  0.311646  0.406976  0  0.936052  0
H  H27  1  0.16150333  0.93146387  0.14914030  1  0  0.449042  0  0.855782  0  0  0.415176  0  0.924174  0  0  0.427011  0  0.907205  0  0  0.311669  0.406883  0  0.936031  0
C  C28  1  0.16076363  0.36791407  0.26810139  1  0  -0.251234  0  3.777753  0  0  -0.20751  0  4.013867  0  0  -0.218563  0  4.036665  0  0  -0.023714  -0.200155  0  3.998548  0
C  C29  1  0.33897972  0.10015597  0.73201842  1  0  -0.251079  0  3.778473  0  0  -0.20765  0  4.014692  0  0  -0.21869  0  4.037532  0  0  -0.023254  -0.200282  0  3.999351  0
C  C30  1  0.83923929  0.63208716  0.73189947  1  0  -0.251023  0  3.777682  0  0  -0.207322  0  4.013826  0  0  -0.218369  0  4.036626  0  0  -0.023677  -0.199965  0  3.9985  0
C  C31  1  0.66101335  0.89984112  0.26798112  1  0  -0.251055  0  3.778382  0  0  -0.207644  0  4.014637  0  0  -0.21868  0  4.037471  0  0  -0.023287  -0.200273  0  3.999291  0
C  C32  1  0.36023744  0.45999295  0.27995526  1  0  -0.015412  0  3.73013  0  0  -0.038341  0  3.97442  0  0  -0.036936  0  3.994636  0  0  -0.070743  -0.039109  0  3.960653  0
C  C33  1  0.13954680  0.18066769  0.72001834  1  0  -0.016794  0  3.731915  0  0  -0.040104  0  3.97605  0  0  -0.038754  0  3.9963  0  0  -0.071392  -0.040855  0  3.962296  0
C  C34  1  0.63976878  0.54000966  0.72004534  1  0  -0.015422  0  3.730448  0  0  -0.038377  0  3.974714  0  0  -0.036971  0  3.994923  0  0  -0.070724  -0.039155  0  3.960962  0
C  C35  1  0.86044786  0.81932940  0.27998201  1  0  -0.016726  0  3.731902  0  0  -0.040041  0  3.976032  0  0  -0.038692  0  3.996283  0  0  -0.071369  -0.040791  0  3.962274  0
C  C36  1  0.09338236  0.33365750  0.34943438  1  0  -0.035947  0  3.761271  0  0  -0.057813  0  4.004837  0  0  -0.056821  0  4.026454  0  0  -0.081737  -0.058358  0  3.990323  0
C  C37  1  0.40649896  0.98431826  0.65077951  1  0  -0.036211  0  3.76106  0  0  -0.057769  0  4.004632  0  0  -0.056889  0  4.026296  0  0  -0.081731  -0.058246  0  3.990071  0
C  C38  1  0.90662549  0.66634649  0.65056860  1  0  -0.036136  0  3.761699  0  0  -0.057999  0  4.005262  0  0  -0.057011  0  4.026884  0  0  -0.081789  -0.058544  0  3.990749  0
C  C39  1  0.59349404  0.01567744  0.34921985  1  0  -0.036252  0  3.761051  0  0  -0.057816  0  4.004629  0  0  -0.056937  0  4.026294  0  0  -0.081736  -0.058298  0  3.990067  0
C  C40  1  0.22476348  0.38665286  0.43956715  1  0  -0.116839  0  3.715038  0  0  -0.134712  0  3.96329  0  0  -0.138655  0  3.984016  0  0  -0.090376  -0.131988  0  3.949128  0
C  C41  1  0.27526933  0.94710307  0.56058701  1  0  -0.116288  0  3.716527  0  0  -0.133858  0  3.96392  0  0  -0.137793  0  3.984675  0  0  -0.089882  -0.131117  0  3.949786  0
C  C42  1  0.77525409  0.61335249  0.56043539  1  0  -0.116785  0  3.715174  0  0  -0.134659  0  3.963393  0  0  -0.138605  0  3.984125  0  0  -0.090366  -0.131941  0  3.949235  0
C  C43  1  0.72472368  0.05289264  0.43941166  1  0  -0.116318  0  3.716584  0  0  -0.133857  0  3.963962  0  0  -0.137793  0  3.984716  0  0  -0.089893  -0.131109  0  3.949815  0
C  C44  1  0.49161059  0.51213159  0.37024851  1  0  -0.112549  0  3.704483  0  0  -0.131155  0  3.95446  0  0  -0.134928  0  3.975089  0  0  -0.08719  -0.128676  0  3.940641  0
C  C45  1  0.00827969  0.14236649  0.62967179  1  0  -0.113722  0  3.707564  0  0  -0.132572  0  3.957542  0  0  -0.136354  0  3.978192  0  0  -0.087566  -0.130062  0  3.943692  0
C  C46  1  0.50839903  0.48787380  0.62975135  1  0  -0.112528  0  3.704711  0  0  -0.131101  0  3.954658  0  0  -0.134874  0  3.975287  0  0  -0.087201  -0.128624  0  3.940835  0
C  C47  1  0.99171633  0.85762505  0.37032519  1  0  -0.113748  0  3.707528  0  0  -0.132585  0  3.95751  0  0  -0.13637  0  3.97816  0  0  -0.08753  -0.130078  0  3.943668  0
C  C48  1  0.42870452  0.47467067  0.45214505  1  0  0.048894  0  3.766229  0  0  0.063524  0  3.997453  0  0  0.065045  0  4.019656  0  0  -0.005008  0.062602  0  3.982174  0
C  C49  1  0.07125355  0.02265015  0.54787523  1  0  0.049455  0  3.767114  0  0  0.063829  0  3.998455  0  0  0.065343  0  4.020667  0  0  -0.004958  0.062915  0  3.983166  0
C  C50  1  0.57130517  0.52533610  0.54785500  1  0  0.048857  0  3.766231  0  0  0.063465  0  3.997484  0  0  0.064986  0  4.019687  0  0  -0.004999  0.062554  0  3.982195  0
C  C51  1  0.92874101  0.97734417  0.45212268  1  0  0.049498  0  3.766879  0  0  0.06383  0  3.99824  0  0  0.065347  0  4.020448  0  0  -0.004964  0.06292  0  3.982947  0
O  O52  1  0.07816184  0.37449316  0.07903980  1  0  -0.992561  0  1.897812  0  0  -0.936188  0  2.172625  0  0  -0.955925  0  2.145747  0  0  -0.567536  -0.921989  0  2.190898  0
O  O53  1  0.42123724  0.29546576  0.92117216  1  0  -0.993097  0  1.897734  0  0  -0.936829  0  2.172273  0  0  -0.956631  0  2.145469  0  0  -0.567746  -0.922588  0  2.190521  0
O  O54  1  0.92183471  0.62550947  0.92096212  1  0  -0.992583  0  1.897782  0  0  -0.936212  0  2.172597  0  0  -0.955949  0  2.145721  0  0  -0.567565  -0.922022  0  2.190865  0
O  O55  1  0.57875787  0.70453828  0.07882640  1  0  -0.993096  0  1.897602  0  0  -0.936856  0  2.172192  0  0  -0.956658  0  2.145391  0  0  -0.567794  -0.92262  0  2.190438  0
O  O56  1  0.01134095  0.06827612  0.11865183  1  0  -0.942541  0  1.999815  0  0  -0.867448  0  2.255193  0  0  -0.891404  0  2.232611  0  0  -0.473801  -0.850321  0  2.270371  0
O  O57  1  0.48873193  0.94966353  0.88138403  1  0  -0.942527  0  1.997623  0  0  -0.867088  0  2.253092  0  0  -0.891027  0  2.230507  0  0  -0.473417  -0.849982  0  2.26832  0
O  O58  1  0.98865571  0.93172791  0.88134891  1  0  -0.942508  0  1.999649  0  0  -0.867411  0  2.255035  0  0  -0.891366  0  2.232451  0  0  -0.473796  -0.850302  0  2.270227  0
O  O59  1  0.51126311  0.05034050  0.11861727  1  0  -0.942442  0  1.997693  0  0  -0.867006  0  2.253168  0  0  -0.890944  0  2.230582  0  0  -0.4734  -0.849904  0  2.268394  0
O  O60  1  0.76139478  0.33238297  0.15699986  1  0  -0.776387  0  1.994374  0  0  -0.710062  0  2.228742  0  0  -0.730755  0  2.202815  0  0  -0.397264  -0.695403  0  2.246375  0
O  O61  1  0.73821763  0.17575791  0.84324960  1  0  -0.776713  0  1.994341  0  0  -0.710922  0  2.227697  0  0  -0.731589  0  2.201657  0  0  -0.398561  -0.696303  0  2.245513  0
O  O62  1  0.23860500  0.66762104  0.84300456  1  0  -0.776416  0  1.994435  0  0  -0.710086  0  2.228802  0  0  -0.730778  0  2.202875  0  0  -0.397285  -0.695431  0  2.246429  0
O  O63  1  0.26177567  0.82424197  0.15674757  1  0  -0.776658  0  1.99444  0  0  -0.710841  0  2.22775  0  0  -0.731504  0  2.201713  0  0  -0.398498  -0.696228  0  2.245562  0
