# generated using pymatgen
data_Cu2H28C21IN9
_symmetry_space_group_name_H-M   'P 1'
_cell_length_a   11.32145196
_cell_length_b   14.58303318
_cell_length_c   16.67669646
_cell_angle_alpha   90.00001271
_cell_angle_beta   89.99989102
_cell_angle_gamma   90.00014283
_symmetry_Int_Tables_number   1
_chemical_formula_structural   Cu2H28C21IN9
_chemical_formula_sum   'Cu8 H112 C84 I4 N36'
_cell_volume   2753.34109007
_cell_formula_units_Z   4
loop_
 _symmetry_equiv_pos_site_id
 _symmetry_equiv_pos_as_xyz
  1  'x, y, z'
loop_
 _atom_site_type_symbol
 _atom_site_label
 _atom_site_symmetry_multiplicity
 _atom_site_fract_x
 _atom_site_fract_y
 _atom_site_fract_z
 _atom_site_occupancy
 _atom_site_pbe_bader_charge
 _atom_site_pbe_bader_spin_density
 _atom_site_pbe_cm5_charge
 _atom_site_pbe_ddec_charge
 _atom_site_pbe_ddec_spin_density
 _atom_site_pbe_ddec_sum_bond_order
 _atom_site_pbe_magmom
Cu  Cu0  1  0.31125757  0.52000880  0.74999971  1  0.630841  0  0.479655  0.256566  0  2.756247  0
Cu  Cu1  1  0.68874071  0.47999411  0.24999996  1  0.630856  0  0.479653  0.256547  0  2.75637  0
Cu  Cu2  1  0.81125690  0.97999246  0.75000004  1  0.630882  0  0.479631  0.256537  0  2.756217  0
Cu  Cu3  1  0.18874314  0.02000839  0.25000023  1  0.630841  0  0.47963  0.256513  0  2.756379  0
Cu  Cu4  1  0.43221162  0.81504973  0.74999907  1  0.612635  0  0.435244  0.237651  0  2.780405  0
Cu  Cu5  1  0.56778931  0.18494907  0.25000121  1  0.612697  0  0.435266  0.23765  0  2.780643  0
Cu  Cu6  1  0.93220911  0.68494696  0.74999933  1  0.612549  0  0.435219  0.237599  0  2.780391  0
Cu  Cu7  1  0.06778563  0.31505321  0.25000034  1  0.612911  0  0.43526  0.237719  0  2.780294  0
H  H8  1  0.51666857  0.47245921  0.64667036  1  0.485196  0  0.309379  0.25244  0  0.974336  0
H  H9  1  0.48333265  0.52754231  0.14666908  1  0.485211  0  0.30939  0.252408  0  0.974359  0
H  H10  1  0.01666809  0.02754240  0.85333027  1  0.485185  0  0.309404  0.252454  0  0.974326  0
H  H11  1  0.98333520  0.97246054  0.35332844  1  0.48521  0  0.309378  0.252412  0  0.974348  0
H  H12  1  0.48333236  0.52754233  0.35332991  1  0.485184  0  0.309394  0.252437  0  0.974349  0
H  H13  1  0.51666916  0.47245786  0.85332699  1  0.48515  0  0.309381  0.252398  0  0.974494  0
H  H14  1  0.98333107  0.97245572  0.14667300  1  0.485174  0  0.309358  0.252375  0  0.974454  0
H  H15  1  0.01667015  0.02754237  0.64667003  1  0.485167  0  0.309376  0.252428  0  0.974343  0
H  H16  1  0.23782356  0.17384133  0.32709043  1  0.508221  0  0.310789  0.247712  0  1.004862  0
H  H17  1  0.76218334  0.82615886  0.82709206  1  0.508312  0  0.310727  0.247609  0  1.004848  0
H  H18  1  0.73781643  0.32615784  0.17290850  1  0.50831  0  0.310714  0.247629  0  1.004914  0
H  H19  1  0.26218030  0.67384231  0.67291015  1  0.508337  0  0.310743  0.247682  0  1.004885  0
H  H20  1  0.76218620  0.82615816  0.67290805  1  0.508306  0  0.310705  0.247569  0  1.004898  0
H  H21  1  0.23782289  0.17384268  0.17290881  1  0.508274  0  0.310745  0.247612  0  1.004922  0
H  H22  1  0.26218097  0.67384302  0.82709117  1  0.508348  0  0.310742  0.247697  0  1.004873  0
H  H23  1  0.73781621  0.32615992  0.32709312  1  0.508244  0  0.310755  0.247712  0  1.004822  0
H  H24  1  0.11962304  0.39334703  0.67503414  1  0.070889  0  0.096293  0.139393  0  0.997927  0
H  H25  1  0.88037633  0.60665587  0.17503356  1  0.067787  0  0.096314  0.139398  0  0.997922  0
H  H26  1  0.61962537  0.10665477  0.82496576  1  0.070893  0  0.09631  0.139384  0  0.99793  0
H  H27  1  0.38037888  0.89334542  0.32496589  1  0.067809  0  0.096262  0.139337  0  0.997888  0
H  H28  1  0.88037612  0.60665588  0.32496673  1  0.070854  0  0.096301  0.139384  0  0.997965  0
H  H29  1  0.11962460  0.39334705  0.82496551  1  0.067838  0  0.096278  0.139374  0  0.997908  0
H  H30  1  0.38037732  0.89334814  0.17503332  1  0.07067  0  0.096271  0.139368  0  0.997904  0
H  H31  1  0.61962646  0.10665544  0.67503678  1  0.06777  0  0.096287  0.139357  0  0.99788  0
H  H32  1  0.10017594  0.34386621  0.57761977  1  0.044176  0  0.09157  0.128575  0  1.020888  0
H  H33  1  0.89981928  0.65613323  0.07761858  1  0.044157  0  0.091563  0.128563  0  1.020921  0
H  H34  1  0.60017816  0.15613281  0.92238015  1  0.044176  0  0.091568  0.128568  0  1.020929  0
H  H35  1  0.39982582  0.84386671  0.42238025  1  0.044195  0  0.091579  0.128592  0  1.0209  0
H  H36  1  0.89982057  0.65613465  0.42238170  1  0.044187  0  0.091574  0.128585  0  1.020845  0
H  H37  1  0.10017811  0.34386694  0.92238109  1  0.044185  0  0.091575  0.128589  0  1.020901  0
H  H38  1  0.39982365  0.84386942  0.07761772  1  0.04423  0  0.091569  0.128583  0  1.020895  0
H  H39  1  0.60017865  0.15613346  0.57762182  1  0.044186  0  0.091573  0.128571  0  1.020922  0
H  H40  1  0.09010497  0.46414845  0.59183423  1  0.089103  0  0.091826  0.128326  0  1.029306  0
H  H41  1  0.90989551  0.53585237  0.09183360  1  0.089121  0  0.09185  0.128377  0  1.029274  0
H  H42  1  0.59010066  0.03585124  0.90816510  1  0.089064  0  0.091833  0.12835  0  1.029268  0
H  H43  1  0.40989718  0.96414828  0.40816641  1  0.089101  0  0.091822  0.128343  0  1.029309  0
H  H44  1  0.90989507  0.53585309  0.40816724  1  0.089134  0  0.091822  0.128335  0  1.029252  0
H  H45  1  0.09010453  0.46414986  0.90816607  1  0.089078  0  0.091845  0.128346  0  1.029302  0
H  H46  1  0.40989497  0.96415168  0.09183277  1  0.089155  0  0.091861  0.128352  0  1.029242  0
H  H47  1  0.59010287  0.03585189  0.59183686  1  0.089127  0  0.091822  0.128313  0  1.029272  0
H  H48  1  0.62379895  0.43107559  0.50436152  1  0.039028  0  0.092407  0.131573  0  1.019061  0
H  H49  1  0.37620001  0.56892453  0.00436399  1  0.038999  0  0.09241  0.131584  0  1.019108  0
H  H50  1  0.12379909  0.06892279  0.99563597  1  0.038881  0  0.092439  0.131621  0  1.019043  0
H  H51  1  0.87620115  0.93107606  0.49563307  1  0.03892  0  0.09241  0.13159  0  1.019035  0
H  H52  1  0.37619844  0.56892321  0.49563275  1  0.038982  0  0.092452  0.131657  0  1.01896  0
H  H53  1  0.62380180  0.43107564  0.99563328  1  0.039015  0  0.092455  0.131667  0  1.01895  0
H  H54  1  0.87619830  0.93107669  0.00436671  1  0.039017  0  0.092429  0.131598  0  1.019005  0
H  H55  1  0.12380066  0.06892411  0.50436541  1  0.039015  0  0.09244  0.131624  0  1.018992  0
H  H56  1  0.53898826  0.36300804  0.43699631  1  0.095413  0  0.089626  0.140634  0  1.03107  0
H  H57  1  0.46100508  0.63699286  0.93699950  1  0.095521  0  0.089645  0.140702  0  1.031074  0
H  H58  1  0.03899513  0.13699281  0.06300168  1  0.095501  0  0.089643  0.140703  0  1.031022  0
H  H59  1  0.96100897  0.86300664  0.56300006  1  0.095449  0  0.089598  0.140597  0  1.031085  0
H  H60  1  0.46100118  0.63699213  0.56299856  1  0.09568  0  0.089634  0.140696  0  1.031032  0
H  H61  1  0.53899320  0.36300662  0.06299958  1  0.095559  0  0.089621  0.14064  0  1.031057  0
H  H62  1  0.96100580  0.86300736  0.93699980  1  0.095541  0  0.089622  0.140651  0  1.031055  0
H  H63  1  0.03899372  0.13699354  0.43699901  1  0.095507  0  0.089618  0.140643  0  1.031022  0
H  H64  1  0.60470401  0.31192477  0.52253359  1  0.03982  0  0.092078  0.13237  0  1.010052  0
H  H65  1  0.39529490  0.68807260  0.02253785  1  0.03981  0  0.092096  0.13241  0  1.010073  0
H  H66  1  0.10470635  0.18807220  0.97746213  1  0.039815  0  0.092091  0.132391  0  1.010093  0
H  H67  1  0.89529394  0.81192391  0.47746158  1  0.03974  0  0.092062  0.132376  0  1.010035  0
H  H68  1  0.39528985  0.68807265  0.47746129  1  0.039885  0  0.092062  0.132375  0  1.010071  0
H  H69  1  0.60470603  0.31192414  0.97746062  1  0.039734  0  0.092044  0.132349  0  1.010068  0
H  H70  1  0.89529281  0.81192386  0.02253814  1  0.039841  0  0.092066  0.132364  0  1.010156  0
H  H71  1  0.10470699  0.18807489  0.52253750  1  0.039763  0  0.092068  0.13237  0  1.010068  0
H  H72  1  0.34717496  0.10044040  0.45160002  1  0.061968  0  0.095982  0.135656  0  1.01679  0
H  H73  1  0.65283070  0.89955982  0.95160061  1  0.061984  0  0.096009  0.135626  0  1.016878  0
H  H74  1  0.84716754  0.39955899  0.04840117  1  0.061967  0  0.096013  0.135651  0  1.016896  0
H  H75  1  0.15282689  0.60043840  0.54840114  1  0.061965  0  0.096006  0.135637  0  1.016813  0
H  H76  1  0.65283391  0.89956115  0.54840145  1  0.061911  0  0.096013  0.135616  0  1.016867  0
H  H77  1  0.34717376  0.10044172  0.04839906  1  0.062011  0  0.095979  0.135656  0  1.016769  0
H  H78  1  0.15283074  0.60043913  0.95159671  1  0.061925  0  0.09601  0.135653  0  1.016821  0
H  H79  1  0.84716962  0.39956177  0.45160093  1  0.061936  0  0.096014  0.135624  0  1.01688  0
H  H80  1  0.39715356  0.17783656  0.52725647  1  0.013364  0  0.096243  0.138046  0  0.994718  0
H  H81  1  0.60284888  0.82216493  0.02725690  1  0.013068  0  0.096201  0.137986  0  0.994626  0
H  H82  1  0.89714999  0.32216509  0.97274427  1  0.013107  0  0.096205  0.137985  0  0.99465  0
H  H83  1  0.10284943  0.67783308  0.47274471  1  0.013105  0  0.096203  0.137989  0  0.994626  0
H  H84  1  0.60285091  0.82216773  0.47274501  1  0.013116  0  0.096189  0.137987  0  0.994651  0
H  H85  1  0.39715205  0.17783730  0.97274278  1  0.013188  0  0.096221  0.138021  0  0.994671  0
H  H86  1  0.10284917  0.67783097  0.02725360  1  0.013138  0  0.096219  0.138007  0  0.994606  0
H  H87  1  0.89715061  0.32216847  0.52725736  1  0.013054  0  0.096235  0.138067  0  0.994691  0
H  H88  1  0.47243024  0.17070367  0.43347705  1  0.090541  0  0.096072  0.139883  0  1.030918  0
H  H89  1  0.52757194  0.82930065  0.93347779  1  0.090542  0  0.096117  0.139907  0  1.030907  0
H  H90  1  0.97242695  0.32930143  0.06652277  1  0.090549  0  0.096107  0.139899  0  1.030936  0
H  H91  1  0.02757008  0.67069938  0.56652233  1  0.090521  0  0.09611  0.139881  0  1.030908  0
H  H92  1  0.52757422  0.82930335  0.56652262  1  0.090582  0  0.096096  0.13987  0  1.030955  0
H  H93  1  0.47242987  0.17070295  0.06652068  1  0.090522  0  0.096096  0.139909  0  1.030921  0
H  H94  1  0.02757398  0.67069874  0.93347570  1  0.090561  0  0.096097  0.139883  0  1.030923  0
H  H95  1  0.97242732  0.32930285  0.43347914  1  0.090584  0  0.096092  0.139865  0  1.030933  0
H  H96  1  0.22487605  0.51237583  0.38072879  1  0.039163  0  0.090313  0.130568  0  0.990734  0
H  H97  1  0.77513335  0.48761957  0.88073094  1  0.03916  0  0.090294  0.130544  0  0.990761  0
H  H98  1  0.72486694  0.98761761  0.11927206  1  0.039245  0  0.09031  0.13053  0  0.990729  0
H  H99  1  0.27512641  0.01237705  0.61926816  1  0.039141  0  0.090328  0.130587  0  0.990694  0
H  H100  1  0.77513195  0.48761817  0.61926848  1  0.039229  0  0.090283  0.130531  0  0.990748  0
H  H101  1  0.22487376  0.51237786  0.11927173  1  0.039151  0  0.09031  0.130564  0  0.990711  0
H  H102  1  0.27512427  0.01237845  0.88073061  1  0.03907  0  0.090304  0.130567  0  0.990742  0
H  H103  1  0.72486922  0.98762312  0.38073272  1  0.039204  0  0.090299  0.130532  0  0.990723  0
H  H104  1  0.11881088  0.48531347  0.45506432  1  0.002796  0  0.089269  0.12425  0  1.032408  0
H  H105  1  0.88119742  0.51468881  0.95506634  1  0.002703  0  0.089264  0.124249  0  1.032457  0
H  H106  1  0.61880310  0.01468684  0.04493656  1  0.002771  0  0.089229  0.12415  0  1.032524  0
H  H107  1  0.38119045  0.98531191  0.54493153  1  0.002699  0  0.089291  0.124299  0  1.032312  0
H  H108  1  0.88119623  0.51468944  0.54493295  1  0.002714  0  0.089281  0.124299  0  1.032372  0
H  H109  1  0.11880969  0.48531411  0.04493633  1  0.002793  0  0.089246  0.124237  0  1.032438  0
H  H110  1  0.38118988  0.98531196  0.95506671  1  0.002768  0  0.089282  0.124269  0  1.032371  0
H  H111  1  0.61880429  0.01468963  0.45506815  1  0.002674  0  0.089269  0.12424  0  1.032394  0
H  H112  1  0.08571630  0.46656355  0.35151865  1  0.057678  0  0.09151  0.130207  0  1.034973  0
H  H113  1  0.91428964  0.53343938  0.85151943  1  0.057642  0  0.091537  0.13023  0  1.034953  0
H  H114  1  0.58571094  0.03343807  0.14848347  1  0.057586  0  0.091521  0.130188  0  1.034993  0
H  H115  1  0.41428586  0.96656277  0.64847839  1  0.057723  0  0.091512  0.130226  0  1.034949  0
H  H116  1  0.91428728  0.53343936  0.64847982  1  0.057687  0  0.091511  0.130209  0  1.034924  0
H  H117  1  0.08571482  0.46656422  0.14848144  1  0.057663  0  0.091502  0.13019  0  1.035032  0
H  H118  1  0.41428381  0.96656416  0.85152040  1  0.057699  0  0.091501  0.130217  0  1.034966  0
H  H119  1  0.58571154  0.03343946  0.35152128  1  0.057678  0  0.091526  0.130211  0  1.035007  0
C  C120  1  0.13754841  0.40203111  0.61079958  1  -0.111466  0  -0.234532  -0.416536  0  3.964604  0
C  C121  1  0.86245379  0.59797041  0.11079903  1  -0.111433  0  -0.234558  -0.416564  0  3.964546  0
C  C122  1  0.63754523  0.09796936  0.88920029  1  -0.11147  0  -0.234554  -0.416548  0  3.964547  0
C  C123  1  0.36245531  0.90202947  0.38920164  1  -0.11149  0  -0.234503  -0.416532  0  3.964495  0
C  C124  1  0.86245429  0.59797181  0.38920129  1  -0.111475  0  -0.234529  -0.416549  0  3.964387  0
C  C125  1  0.13754625  0.40203114  0.88920064  1  -0.111478  0  -0.23454  -0.416556  0  3.964588  0
C  C126  1  0.36245658  0.90203150  0.11079818  1  -0.111374  0  -0.23454  -0.416546  0  3.964408  0
C  C127  1  0.63754474  0.09797070  0.61080163  1  -0.111484  0  -0.234527  -0.41647  0  3.964408  0
C  C128  1  0.26700710  0.40862862  0.59569099  1  0.450104  0  0.090894  0.19776  0  4.000858  0
C  C129  1  0.73299073  0.59137014  0.09569240  1  0.450237  0  0.090887  0.197748  0  4.000839  0
C  C130  1  0.76700651  0.09136935  0.90430931  1  0.450171  0  0.090916  0.197779  0  4.000755  0
C  C131  1  0.23299399  0.90862811  0.40430784  1  0.450102  0  0.090944  0.197841  0  4.000848  0
C  C132  1  0.73298941  0.59137086  0.40430808  1  0.450254  0  0.090925  0.197807  0  4.000642  0
C  C133  1  0.26700667  0.40863071  0.90430847  1  0.450171  0  0.0909  0.197752  0  4.000803  0
C  C134  1  0.23299354  0.90862945  0.09569156  1  0.450201  0  0.090933  0.197817  0  4.000739  0
C  C135  1  0.76700782  0.09137069  0.59569243  1  0.450206  0  0.09092  0.19778  0  4.000781  0
C  C136  1  0.33237154  0.37460763  0.52911901  1  0.016793  0  -0.037495  -0.139261  0  4.064603  0
C  C137  1  0.66762294  0.62538974  0.02911991  1  0.016806  0  -0.037537  -0.139277  0  4.064532  0
C  C138  1  0.83237353  0.12538909  0.97088301  1  0.01683  0  -0.037508  -0.139267  0  4.064627  0
C  C139  1  0.16762943  0.87460496  0.47088041  1  0.016803  0  -0.037553  -0.139357  0  4.064691  0
C  C140  1  0.66762143  0.62539254  0.47087887  1  0.016854  0  -0.037509  -0.139241  0  4.064459  0
C  C141  1  0.33237446  0.37460905  0.97088036  1  0.016838  0  -0.037502  -0.139264  0  4.064569  0
C  C142  1  0.16762740  0.87460559  0.02911906  1  0.016874  0  -0.037522  -0.139343  0  4.064682  0
C  C143  1  0.83237326  0.12539247  0.52911926  1  0.016815  0  -0.037456  -0.139208  0  4.06453  0
C  C144  1  0.45083074  0.39421204  0.54635076  1  0.398914  0  0.097338  0.20286  0  3.98077  0
C  C145  1  0.54916546  0.60578740  0.04635182  1  0.398797  0  0.097385  0.202935  0  3.980845  0
C  C146  1  0.95083182  0.10578766  0.95364870  1  0.398803  0  0.097392  0.202973  0  3.980889  0
C  C147  1  0.04916853  0.89420982  0.45364626  1  0.39887  0  0.097433  0.20303  0  3.980713  0
C  C148  1  0.54916312  0.60578882  0.45364771  1  0.398763  0  0.097355  0.202892  0  3.980959  0
C  C149  1  0.45083459  0.39421140  0.95364606  1  0.398822  0  0.097362  0.202949  0  3.980941  0
C  C150  1  0.04916734  0.89420977  0.04635277  1  0.398838  0  0.097389  0.202976  0  3.980722  0
C  C151  1  0.95083416  0.10578967  0.54635221  1  0.39879  0  0.097372  0.202949  0  3.980839  0
C  C152  1  0.56037944  0.37421493  0.50048729  1  -0.047981  0  -0.238574  -0.422766  0  3.95452  0
C  C153  1  0.43961865  0.62578450  0.00048969  1  -0.048019  0  -0.238632  -0.422899  0  3.954741  0
C  C154  1  0.06038063  0.12578402  0.99951028  1  -0.047866  0  -0.238656  -0.422917  0  3.954687  0
C  C155  1  0.93962048  0.87421347  0.49950849  1  -0.047755  0  -0.238585  -0.422833  0  3.954671  0
C  C156  1  0.43961707  0.62578524  0.49950818  1  -0.048266  0  -0.238625  -0.422926  0  3.954657  0
C  C157  1  0.56038227  0.37421361  0.99950819  1  -0.047971  0  -0.2386  -0.422864  0  3.954606  0
C  C158  1  0.93961764  0.87421341  0.00049119  1  -0.048077  0  -0.238593  -0.422818  0  3.954629  0
C  C159  1  0.06038045  0.12578602  0.50049059  1  -0.047966  0  -0.238611  -0.422866  0  3.954663  0
C  C160  1  0.38519403  0.16850926  0.46245647  1  -0.044595  0  -0.232959  -0.424356  0  3.95174  0
C  C161  1  0.61480806  0.83149233  0.96245530  1  -0.044329  0  -0.232983  -0.424312  0  3.951657  0
C  C162  1  0.88518995  0.33149156  0.03754587  1  -0.044369  0  -0.23296  -0.424287  0  3.951809  0
C  C163  1  0.11480804  0.66850719  0.53754531  1  -0.044376  0  -0.232966  -0.424272  0  3.951698  0
C  C164  1  0.61481043  0.83149434  0.53754500  1  -0.044345  0  -0.23296  -0.424245  0  3.95165  0
C  C165  1  0.38519286  0.16851059  0.03754378  1  -0.044431  0  -0.232943  -0.42436  0  3.951709  0
C  C166  1  0.11481010  0.66850655  0.96245320  1  -0.044409  0  -0.232986  -0.424324  0  3.951747  0
C  C167  1  0.88519112  0.33149435  0.46245676  1  -0.044361  0  -0.233006  -0.424346  0  3.951871  0
C  C168  1  0.30701518  0.24141583  0.43023072  1  0.354923  0  0.102218  0.207494  0  3.988103  0
C  C169  1  0.69298436  0.75858233  0.93023183  1  0.354943  0  0.102267  0.207605  0  3.987925  0
C  C170  1  0.80701607  0.25858416  0.06976992  1  0.355008  0  0.102246  0.207578  0  3.988065  0
C  C171  1  0.19298360  0.74141117  0.56976867  1  0.355085  0  0.102261  0.20755  0  3.98795  0
C  C172  1  0.69298487  0.75858297  0.56976835  1  0.354907  0  0.10228  0.207554  0  3.98789  0
C  C173  1  0.30701745  0.24141716  0.06976904  1  0.354913  0  0.102233  0.207553  0  3.988021  0
C  C174  1  0.19298398  0.74141189  0.93023155  1  0.355088  0  0.102301  0.207629  0  3.987965  0
C  C175  1  0.80701556  0.25858695  0.43023280  1  0.355138  0  0.1023  0.207604  0  3.987986  0
C  C176  1  0.28449874  0.33038290  0.45763065  1  0.078532  0  -0.041427  -0.151291  0  4.08371  0
C  C177  1  0.71550072  0.66961664  0.95763052  1  0.078846  0  -0.041386  -0.151266  0  4.083718  0
C  C178  1  0.78449941  0.16961362  0.04237181  1  0.078877  0  -0.041422  -0.151364  0  4.083765  0
C  C179  1  0.21549856  0.83038170  0.54236876  1  0.078722  0  -0.041395  -0.151263  0  4.083735  0
C  C180  1  0.71549866  0.66961796  0.54237082  1  0.078837  0  -0.041402  -0.151296  0  4.083731  0
C  C181  1  0.28449932  0.33038491  0.04236915  1  0.078788  0  -0.041463  -0.151396  0  4.083699  0
C  C182  1  0.21549975  0.83038312  0.95762726  1  0.078749  0  -0.041419  -0.151356  0  4.083843  0
C  C183  1  0.78449972  0.16961778  0.45763151  1  0.078427  0  -0.041397  -0.151289  0  4.083701  0
C  C184  1  0.20369829  0.36827342  0.40149549  1  0.431386  0  0.088843  0.189955  0  4.013615  0
C  C185  1  0.79629957  0.63172404  0.90149764  1  0.431698  0  0.088817  0.189911  0  4.013546  0
C  C186  1  0.70370045  0.13172294  0.09850648  1  0.430992  0  0.088893  0.190057  0  4.01335  0
C  C187  1  0.29630002  0.86827377  0.59850213  1  0.431833  0  0.088816  0.189894  0  4.013622  0
C  C188  1  0.79629734  0.63172401  0.59850238  1  0.43118  0  0.088828  0.189906  0  4.013551  0
C  C189  1  0.20369960  0.36827476  0.09850383  1  0.431241  0  0.088887  0.190022  0  4.013514  0
C  C190  1  0.29629959  0.86827312  0.90149559  1  0.430815  0  0.088861  0.190078  0  4.013568  0
C  C191  1  0.70370003  0.13172778  0.40149814  1  0.432118  0  0.088819  0.189883  0  4.013693  0
C  C192  1  0.15532391  0.46307875  0.39727587  1  -0.008933  0  -0.237203  -0.421642  0  3.97756  0
C  C193  1  0.84468190  0.53692008  0.89727794  1  -0.009378  0  -0.237217  -0.421677  0  3.97762  0
C  C194  1  0.65531869  0.03691820  0.10272556  1  -0.008801  0  -0.237177  -0.421494  0  3.977602  0
C  C195  1  0.34467735  0.96307851  0.60272057  1  -0.009536  0  -0.237229  -0.421713  0  3.977435  0
C  C196  1  0.84467878  0.53692005  0.60272140  1  -0.008976  0  -0.23721  -0.421705  0  3.977492  0
C  C197  1  0.15532256  0.46308009  0.10272413  1  -0.008951  0  -0.237162  -0.421615  0  3.977633  0
C  C198  1  0.34467606  0.96307991  0.89727711  1  -0.008651  0  -0.237198  -0.421704  0  3.97747  0
C  C199  1  0.65531828  0.03692166  0.39727910  1  -0.009516  0  -0.237219  -0.421612  0  3.977519  0
C  C200  1  0.07121962  0.61937816  0.74999928  1  0.679272  0  -0.070101  -0.11858  0  3.90923  0
C  C201  1  0.92878043  0.38061995  0.25000099  1  0.679224  0  -0.070113  -0.118625  0  3.909336  0
C  C202  1  0.57122128  0.88061853  0.74999898  1  0.679254  0  -0.070119  -0.118652  0  3.909394  0
C  C203  1  0.42879025  0.11938164  0.25000009  1  0.679329  0  -0.070114  -0.118513  0  3.908605  0
I  I204  1  0.51088408  0.62292174  0.74999960  1  -0.557196  0  -0.241643  -0.479056  0  1.606215  0
I  I205  1  0.48911685  0.37707569  0.25000188  1  -0.557248  0  -0.241643  -0.479033  0  1.606145  0
I  I206  1  0.01088325  0.87707483  0.74999875  1  -0.557252  0  -0.24165  -0.479074  0  1.606128  0
I  I207  1  0.98911326  0.12291917  0.25000093  1  -0.55725  0  -0.241655  -0.479072  0  1.606131  0
N  N208  1  0.34032012  0.44785099  0.64899167  1  -0.726579  0  -0.28992  -0.211496  0  3.589297  0
N  N209  1  0.65967844  0.55214847  0.14899197  1  -0.726641  0  -0.2899  -0.211499  0  3.589438  0
N  N210  1  0.84032044  0.05214781  0.85100854  1  -0.726591  0  -0.289938  -0.211484  0  3.589311  0
N  N211  1  0.15968462  0.94784964  0.35100837  1  -0.726179  0  -0.289982  -0.211507  0  3.589306  0
N  N212  1  0.65967816  0.55214987  0.35100800  1  -0.72664  0  -0.289909  -0.211437  0  3.589406  0
N  N213  1  0.34031984  0.44785033  0.85100710  1  -0.726628  0  -0.289915  -0.211439  0  3.589233  0
N  N214  1  0.15968049  0.94784825  0.14899234  1  -0.726647  0  -0.289918  -0.211465  0  3.589347  0
N  N215  1  0.84031984  0.05214984  0.64899191  1  -0.726625  0  -0.289943  -0.211512  0  3.589409  0
N  N216  1  0.45042793  0.43728059  0.61852693  1  -0.825424  0  -0.295038  -0.149057  0  3.720291  0
N  N217  1  0.54957071  0.56271818  0.11852618  1  -0.825447  0  -0.295045  -0.149006  0  3.72036  0
N  N218  1  0.95042820  0.06271842  0.88147313  1  -0.825377  0  -0.295075  -0.149127  0  3.720296  0
N  N219  1  0.04957413  0.93728110  0.38147070  1  -0.825831  0  -0.295037  -0.149052  0  3.720136  0
N  N220  1  0.54957123  0.56272027  0.38147154  1  -0.825424  0  -0.295074  -0.149108  0  3.720413  0
N  N221  1  0.45042845  0.43727993  0.88147050  1  -0.825392  0  -0.295044  -0.149059  0  3.720515  0
N  N222  1  0.04957096  0.93727832  0.11852954  1  -0.825369  0  -0.29503  -0.149017  0  3.720419  0
N  N223  1  0.95042856  0.06271976  0.61852837  1  -0.82536  0  -0.295067  -0.149109  0  3.720327  0
N  N224  1  0.17728911  0.30570822  0.34488177  1  -0.727618  0  -0.284442  -0.1938  0  3.554532  0
N  N225  1  0.82271067  0.69428992  0.84488150  1  -0.727561  0  -0.284401  -0.193676  0  3.554256  0
N  N226  1  0.67729043  0.19428810  0.15512083  1  -0.727705  0  -0.28444  -0.193734  0  3.554253  0
N  N227  1  0.32271076  0.80570931  0.65511824  1  -0.727586  0  -0.284397  -0.193655  0  3.554354  0
N  N228  1  0.82271005  0.69428921  0.65511790  1  -0.727444  0  -0.284383  -0.193612  0  3.554206  0
N  N229  1  0.17728937  0.30571025  0.15511877  1  -0.727746  0  -0.284432  -0.193747  0  3.554265  0
N  N230  1  0.32271226  0.80570865  0.84488004  1  -0.727665  0  -0.284451  -0.193797  0  3.55445  0
N  N231  1  0.67728752  0.19429155  0.34488444  1  -0.727566  0  -0.284404  -0.193673  0  3.554494  0
N  N232  1  0.24090889  0.23025210  0.36355449  1  -0.826594  0  -0.288432  -0.128084  0  3.715332  0
N  N233  1  0.75909260  0.76974604  0.86355312  1  -0.826605  0  -0.288447  -0.128143  0  3.71519  0
N  N234  1  0.74090786  0.26974502  0.13644924  1  -0.826742  0  -0.288456  -0.128195  0  3.715186  0
N  N235  1  0.25909162  0.73025375  0.63644790  1  -0.826676  0  -0.288464  -0.128205  0  3.715269  0
N  N236  1  0.75909380  0.76974533  0.63644639  1  -0.826717  0  -0.288444  -0.12807  0  3.71516  0
N  N237  1  0.24090921  0.23025413  0.13644536  1  -0.826555  0  -0.288438  -0.128058  0  3.7153  0
N  N238  1  0.25909306  0.73025309  0.86355283  1  -0.826675  0  -0.2885  -0.128259  0  3.715315  0
N  N239  1  0.74090754  0.26974848  0.36355477  1  -0.82663  0  -0.288496  -0.128226  0  3.715313  0
N  N240  1  0.16446466  0.58250869  0.74999922  1  -1.46032  0  -0.468425  -0.375467  0  3.729971  0
N  N241  1  0.83553097  0.41749285  0.25000046  1  -1.460289  0  -0.468458  -0.375495  0  3.730145  0
N  N242  1  0.66446556  0.91748818  0.74999953  1  -1.460288  0  -0.468403  -0.375361  0  3.730059  0
N  N243  1  0.33552653  0.08251062  0.24999835  1  -1.460384  0  -0.468437  -0.375602  0  3.729361  0
