# generated using pymatgen
data_CdH16C12S(NO)4
_symmetry_space_group_name_H-M   'P 1'
_cell_length_a   5.82181699
_cell_length_b   11.02820584
_cell_length_c   13.07469708
_cell_angle_alpha   114.67651878
_cell_angle_beta   102.94807931
_cell_angle_gamma   89.97025580
_symmetry_Int_Tables_number   1
_chemical_formula_structural   CdH16C12S(NO)4
_chemical_formula_sum   'Cd2 H32 C24 S2 N8 O8'
_cell_volume   739.28304210
_cell_formula_units_Z   2
loop_
 _symmetry_equiv_pos_site_id
 _symmetry_equiv_pos_as_xyz
  1  'x, y, z'
loop_
 _atom_site_type_symbol
 _atom_site_label
 _atom_site_symmetry_multiplicity
 _atom_site_fract_x
 _atom_site_fract_y
 _atom_site_fract_z
 _atom_site_occupancy
 _atom_site_hle17_bader_spin_density
 _atom_site_hle17_ddec_charge
 _atom_site_hle17_ddec_spin_density
 _atom_site_hle17_ddec_sum_bond_order
 _atom_site_hle17_magmom
 _atom_site_hse06_10hf_bader_spin_density
 _atom_site_hse06_10hf_ddec_charge
 _atom_site_hse06_10hf_ddec_spin_density
 _atom_site_hse06_10hf_ddec_sum_bond_order
 _atom_site_hse06_10hf_magmom
 _atom_site_hse06_bader_spin_density
 _atom_site_hse06_ddec_charge
 _atom_site_hse06_ddec_spin_density
 _atom_site_hse06_ddec_sum_bond_order
 _atom_site_hse06_magmom
 _atom_site_pbe_bader_spin_density
 _atom_site_pbe_cm5_charge
 _atom_site_pbe_ddec_charge
 _atom_site_pbe_ddec_spin_density
 _atom_site_pbe_ddec_sum_bond_order
 _atom_site_pbe_magmom
Cd  Cd0  1  0.49999848  0.99999407  0.49999534  1  0  1.120458  0  1.576419  0  0  0.935281  0  2.00084  0  0  0.985062  0  1.956672  0  0  0.779556  0.900357  0  2.030857  0
Cd  Cd1  1  0.49999815  0.50000299  0.50000619  1  0  1.121589  0  1.57464  0  0  0.936612  0  1.998752  0  0  0.986356  0  1.954569  0  0  0.779674  0.901411  0  2.028931  0
H  H2  1  0.69463612  0.00449071  0.98367832  1  0  0.078552  0  0.980366  0  0  0.089743  0  1.046386  0  0  0.092015  0  1.045556  0  0  0.094775  0.088166  0  1.046979  0
H  H3  1  0.21123619  0.49557665  0.01630002  1  0  0.079445  0  0.979484  0  0  0.09032  0  1.045867  0  0  0.092551  0  1.045067  0  0  0.095078  0.088777  0  1.046441  0
H  H4  1  0.30543981  0.99555566  0.01631521  1  0  0.078767  0  0.98015  0  0  0.089701  0  1.046443  0  0  0.092001  0  1.045581  0  0  0.094709  0.088126  0  1.047032  0
H  H5  1  0.78871547  0.50441614  0.98370110  1  0  0.079357  0  0.979851  0  0  0.090219  0  1.046231  0  0  0.092448  0  1.045433  0  0  0.095049  0.088685  0  1.046796  0
H  H6  1  0.04041136  0.15305310  0.00125199  1  0  0.08506  0  0.976779  0  0  0.093387  0  1.043683  0  0  0.095268  0  1.044728  0  0  0.094132  0.092023  0  1.043122  0
H  H7  1  0.53869759  0.34659486  0.99902098  1  0  0.084525  0  0.977649  0  0  0.093017  0  1.044127  0  0  0.094928  0  1.045065  0  0  0.094084  0.0916  0  1.043706  0
H  H8  1  0.95963104  0.84698304  0.99872934  1  0  0.085153  0  0.976638  0  0  0.093494  0  1.043521  0  0  0.095374  0  1.044566  0  0  0.094229  0.092129  0  1.042963  0
H  H9  1  0.46126448  0.65339776  0.00101708  1  0  0.084626  0  0.977401  0  0  0.093166  0  1.043849  0  0  0.095072  0  1.044793  0  0  0.094172  0.091703  0  1.043461  0
H  H10  1  0.01993387  0.24671095  0.85713691  1  0  0.09746  0  0.956858  0  0  0.109766  0  1.016546  0  0  0.112389  0  1.015633  0  0  0.0999  0.107855  0  1.017319  0
H  H11  1  0.66199415  0.25259030  0.14282983  1  0  0.097246  0  0.956497  0  0  0.109874  0  1.015933  0  0  0.112438  0  1.01513  0  0  0.10017  0.10801  0  1.016622  0
H  H12  1  0.98009457  0.75331605  0.14283610  1  0  0.097287  0  0.956821  0  0  0.109657  0  1.01651  0  0  0.11228  0  1.015593  0  0  0.099876  0.107744  0  1.017287  0
H  H13  1  0.33798471  0.74741659  0.85717880  1  0  0.097269  0  0.956398  0  0  0.109897  0  1.015853  0  0  0.112442  0  1.015073  0  0  0.100136  0.108033  0  1.016545  0
H  H14  1  0.32805404  0.95821331  0.82615592  1  0  0.095647  0  0.953659  0  0  0.1085  0  1.013191  0  0  0.111724  0  1.011224  0  0  0.100749  0.106216  0  1.014671  0
H  H15  1  0.00180667  0.54191666  0.17361524  1  0  0.095753  0  0.952764  0  0  0.108197  0  1.012821  0  0  0.111312  0  1.010969  0  0  0.100654  0.105963  0  1.014224  0
H  H16  1  0.67202076  0.04180739  0.17384715  1  0  0.095968  0  0.953293  0  0  0.108759  0  1.012935  0  0  0.111946  0  1.011015  0  0  0.100821  0.106472  0  1.014425  0
H  H17  1  0.99813952  0.45807537  0.82639655  1  0  0.095789  0  0.952928  0  0  0.108147  0  1.013047  0  0  0.111259  0  1.011203  0  0  0.100629  0.105913  0  1.014453  0
H  H18  1  0.81304335  0.23012361  0.66656112  1  0  0.325545  0  0.919498  0  0  0.311799  0  0.977486  0  0  0.318699  0  0.972218  0  0  0.295564  0.306943  0  0.98114  0
H  H19  1  0.64585518  0.26948229  0.33359222  1  0  0.326696  0  0.917802  0  0  0.313304  0  0.975291  0  0  0.320162  0  0.97002  0  0  0.295899  0.308441  0  0.979027  0
H  H20  1  0.18695486  0.76987247  0.33340908  1  0  0.325639  0  0.919297  0  0  0.311959  0  0.977183  0  0  0.31886  0  0.971909  0  0  0.295644  0.307103  0  0.980844  0
H  H21  1  0.35414056  0.73051080  0.66642262  1  0  0.326596  0  0.917965  0  0  0.31321  0  0.975454  0  0  0.320066  0  0.970178  0  0  0.295885  0.30835  0  0.979191  0
H  H22  1  0.53556998  0.26477150  0.66640943  1  0  0.314663  0  0.90103  0  0  0.303275  0  0.955949  0  0  0.309487  0  0.951862  0  0  0.296579  0.298802  0  0.958941  0
H  H23  1  0.36825886  0.23505919  0.33349139  1  0  0.314355  0  0.900024  0  0  0.302364  0  0.955815  0  0  0.30848  0  0.951929  0  0  0.296623  0.297878  0  0.95885  0
H  H24  1  0.46442999  0.73522469  0.33356557  1  0  0.314641  0  0.901247  0  0  0.303245  0  0.956194  0  0  0.309457  0  0.952107  0  0  0.296528  0.298776  0  0.959183  0
H  H25  1  0.63170321  0.76493307  0.66653049  1  0  0.314565  0  0.900014  0  0  0.302596  0  0.955731  0  0  0.308711  0  0.951846  0  0  0.296707  0.29811  0  0.958766  0
H  H26  1  0.19442636  0.10986875  0.63840818  1  0  0.311828  0  0.952184  0  0  0.297848  0  1.010485  0  0  0.304833  0  1.00546  0  0  0.285805  0.292922  0  1.013934  0
H  H27  1  0.05571842  0.39038929  0.36132646  1  0  0.31206  0  0.951632  0  0  0.298096  0  1.009845  0  0  0.305073  0  1.004799  0  0  0.286071  0.293208  0  1.01324  0
H  H28  1  0.80558489  0.89012217  0.36159830  1  0  0.31174  0  0.952342  0  0  0.297793  0  1.010579  0  0  0.304777  0  1.00556  0  0  0.285759  0.292869  0  1.014023  0
H  H29  1  0.94429549  0.60960668  0.63868353  1  0  0.31225  0  0.951406  0  0  0.298201  0  1.009761  0  0  0.305183  0  1.004711  0  0  0.286035  0.293311  0  1.013158  0
H  H30  1  0.15702477  0.96360418  0.64604962  1  0  0.311447  0  0.908502  0  0  0.297017  0  0.971979  0  0  0.30345  0  0.96717  0  0  0.294078  0.292376  0  0.975513  0
H  H31  1  0.01159320  0.53679004  0.35374076  1  0  0.312261  0  0.908571  0  0  0.297721  0  0.972209  0  0  0.304166  0  0.967365  0  0  0.294529  0.293068  0  0.975773  0
H  H32  1  0.84301150  0.03637866  0.35395204  1  0  0.311384  0  0.908541  0  0  0.296922  0  0.97206  0  0  0.303356  0  0.967246  0  0  0.294073  0.292249  0  0.975635  0
H  H33  1  0.98841061  0.46318896  0.64626705  1  0  0.312247  0  0.908549  0  0  0.297753  0  0.972131  0  0  0.304199  0  0.967285  0  0  0.294483  0.293101  0  0.975695  0
C  C34  1  0.68629945  0.04851167  0.92240923  1  0  -0.076351  0  3.817228  0  0  -0.093397  0  4.071552  0  0  -0.094405  0  4.093037  0  0  -0.102988  -0.092783  0  4.057321  0
C  C35  1  0.26380952  0.45151133  0.07758527  1  0  -0.077694  0  3.818035  0  0  -0.09453  0  4.072223  0  0  -0.095472  0  4.093634  0  0  -0.103625  -0.093953  0  4.057779  0
C  C36  1  0.31374439  0.95153274  0.07758576  1  0  -0.076576  0  3.816906  0  0  -0.093411  0  4.07125  0  0  -0.094434  0  4.092711  0  0  -0.102958  -0.092798  0  4.057021  0
C  C37  1  0.73616928  0.54847571  0.92242580  1  0  -0.077804  0  3.818269  0  0  -0.094683  0  4.072506  0  0  -0.095621  0  4.093915  0  0  -0.103681  -0.094107  0  4.058049  0
C  C38  1  0.66358268  0.15816251  0.76282141  1  0  0.173622  0  3.782068  0  0  0.171543  0  4.022919  0  0  0.174953  0  4.046789  0  0  0.068707  0.169147  0  4.007085  0
C  C39  1  0.40009761  0.34141183  0.23701483  1  0  0.174469  0  3.781805  0  0  0.171681  0  4.023801  0  0  0.175103  0  4.047653  0  0  0.069324  0.169274  0  4.008013  0
C  C40  1  0.33644431  0.84184659  0.23715227  1  0  0.173595  0  3.782387  0  0  0.171547  0  4.023226  0  0  0.17495  0  4.047104  0  0  0.068671  0.169163  0  4.007384  0
C  C41  1  0.59985277  0.65856389  0.76297961  1  0  0.174475  0  3.781863  0  0  0.171725  0  4.023717  0  0  0.175147  0  4.047562  0  0  0.069274  0.169319  0  4.007929  0
C  C42  1  0.88021764  0.13037842  0.93176117  1  0  -0.084441  0  3.804885  0  0  -0.098693  0  4.057168  0  0  -0.10108  0  4.079463  0  0  -0.105457  -0.09717  0  4.042173  0
C  C43  1  0.44816453  0.36944213  0.06842962  1  0  -0.083859  0  3.805611  0  0  -0.098002  0  4.057704  0  0  -0.100367  0  4.080027  0  0  -0.105344  -0.096416  0  4.042726  0
C  C44  1  0.11981105  0.86966985  0.06822825  1  0  -0.084658  0  3.804909  0  0  -0.098928  0  4.057192  0  0  -0.101321  0  4.079495  0  0  -0.105517  -0.097406  0  4.042204  0
C  C45  1  0.55181074  0.63054515  0.93159266  1  0  -0.083826  0  3.804661  0  0  -0.097995  0  4.056754  0  0  -0.100358  0  4.079074  0  0  -0.10528  -0.09636  0  4.041792  0
C  C46  1  0.86769179  0.18490448  0.85177752  1  0  -0.153179  0  3.763537  0  0  -0.172701  0  4.015434  0  0  -0.175203  0  4.036201  0  0  -0.100564  -0.171029  0  4.001576  0
C  C47  1  0.51531061  0.31460487  0.14823432  1  0  -0.152907  0  3.762325  0  0  -0.172405  0  4.014629  0  0  -0.174892  0  4.035374  0  0  -0.100659  -0.170752  0  4.00083  0
C  C48  1  0.13233244  0.81512858  0.14819942  1  0  -0.152623  0  3.763418  0  0  -0.172221  0  4.015306  0  0  -0.174719  0  4.036073  0  0  -0.100481  -0.170549  0  4.001442  0
C  C49  1  0.48464948  0.68537604  0.85176974  1  0  -0.153049  0  3.761645  0  0  -0.172591  0  4.013963  0  0  -0.175062  0  4.034718  0  0  -0.100685  -0.170936  0  4.000146  0
C  C50  1  0.46788912  0.07477659  0.75296502  1  0  0.195079  0  3.806889  0  0  0.191743  0  4.048242  0  0  0.196951  0  4.071464  0  0  0.075769  0.188203  0  4.032384  0
C  C51  1  0.21443219  0.42497911  0.24666978  1  0  0.192952  0  3.808189  0  0  0.189573  0  4.050156  0  0  0.194783  0  4.07334  0  0  0.07434  0.186028  0  4.0342  0
C  C52  1  0.53215479  0.92522871  0.24701672  1  0  0.194952  0  3.807827  0  0  0.191602  0  4.04914  0  0  0.196819  0  4.072343  0  0  0.075776  0.188059  0  4.033273  0
C  C53  1  0.78551024  0.57499195  0.75333912  1  0  0.193154  0  3.807532  0  0  0.189872  0  4.049265  0  0  0.195082  0  4.072448  0  0  0.074382  0.186332  0  4.033308  0
C  C54  1  0.48068788  0.02199989  0.83422695  1  0  -0.170295  0  3.766679  0  0  -0.190228  0  4.022556  0  0  -0.194184  0  4.043407  0  0  -0.105081  -0.187407  0  4.008573  0
C  C55  1  0.14613336  0.47793738  0.16548732  1  0  -0.168735  0  3.767021  0  0  -0.188263  0  4.022897  0  0  -0.192121  0  4.043681  0  0  -0.103997  -0.185309  0  4.008569  0
C  C56  1  0.51936929  0.97802057  0.16576508  1  0  -0.170569  0  3.766924  0  0  -0.190462  0  4.022776  0  0  -0.194392  0  4.043643  0  0  -0.105141  -0.18764  0  4.008796  0
C  C57  1  0.85381738  0.52204071  0.83452402  1  0  -0.168673  0  3.767228  0  0  -0.188135  0  4.023019  0  0  -0.191983  0  4.043786  0  0  -0.103992  -0.185186  0  4.008699  0
S  S58  1  0.85657008  0.74978945  0.49976634  1  0  1.536217  0  5.917393  0  0  1.414835  0  6.458142  0  0  1.470006  0  6.422478  0  0  0.544893  1.376699  0  6.481567  0
S  S59  1  0.14341842  0.25020241  0.50023818  1  0  1.536185  0  5.916494  0  0  1.414762  0  6.457309  0  0  1.469921  0  6.421652  0  0  0.544953  1.376627  0  6.480728  0
N  N60  1  0.65275992  0.19617115  0.67044113  1  0  -0.668211  0  3.156844  0  0  -0.608285  0  3.386072  0  0  -0.62979  0  3.38643  0  0  -0.610881  -0.593328  0  3.385715  0
N  N61  1  0.48165696  0.30350600  0.32950977  1  0  -0.669467  0  3.155749  0  0  -0.609199  0  3.385513  0  0  -0.630588  0  3.385892  0  0  -0.611018  -0.594314  0  3.385305  0
N  N62  1  0.34724289  0.80383098  0.32953235  1  0  -0.668391  0  3.157139  0  0  -0.608551  0  3.386341  0  0  -0.630052  0  3.386687  0  0  -0.610876  -0.593617  0  3.386013  0
N  N63  1  0.51832187  0.69649119  0.67051010  1  0  -0.66951  0  3.156201  0  0  -0.609267  0  3.38589  0  0  -0.630644  0  3.386256  0  0  -0.611061  -0.59439  0  3.385685  0
N  N64  1  0.28012621  0.03396553  0.65243900  1  0  -0.671524  0  3.139175  0  0  -0.620215  0  3.371649  0  0  -0.6412  0  3.371623  0  0  -0.607597  -0.60537  0  3.371266  0
N  N65  1  0.12760467  0.46602700  0.34717929  1  0  -0.671109  0  3.140681  0  0  -0.619712  0  3.373411  0  0  -0.640685  0  3.373313  0  0  -0.607398  -0.604762  0  3.373039  0
N  N66  1  0.71990124  0.96601696  0.34754635  1  0  -0.671311  0  3.139289  0  0  -0.620013  0  3.371738  0  0  -0.640997  0  3.371708  0  0  -0.607589  -0.605131  0  3.371405  0
N  N67  1  0.87238240  0.53395696  0.65282776  1  0  -0.671472  0  3.139928  0  0  -0.620111  0  3.372698  0  0  -0.641088  0  3.372593  0  0  -0.60733  -0.60516  0  3.372333  0
O  O68  1  0.95964735  0.78098505  0.41830644  1  0  -0.7353  0  1.970139  0  0  -0.67699  0  2.211769  0  0  -0.698325  0  2.19518  0  0  -0.362505  -0.661954  0  2.22275  0
O  O69  1  0.04135228  0.71771652  0.58072873  1  0  -0.736203  0  1.971406  0  0  -0.677762  0  2.213074  0  0  -0.699111  0  2.196468  0  0  -0.362457  -0.6627  0  2.224058  0
O  O70  1  0.04034627  0.21900603  0.58170750  1  0  -0.735136  0  1.969838  0  0  -0.676853  0  2.211508  0  0  -0.698183  0  2.194921  0  0  -0.362511  -0.661812  0  2.222474  0
O  O71  1  0.95862129  0.28229057  0.41928862  1  0  -0.736168  0  1.9713  0  0  -0.677699  0  2.212934  0  0  -0.699018  0  2.196319  0  0  -0.362314  -0.662633  0  2.223909  0
O  O72  1  0.74661600  0.86824201  0.57237817  1  0  -0.758111  0  1.977375  0  0  -0.689434  0  2.239927  0  0  -0.713356  0  2.222228  0  0  -0.37392  -0.672473  0  2.251526  0
O  O73  1  0.67176457  0.63225749  0.42760629  1  0  -0.758535  0  1.97771  0  0  -0.689721  0  2.240132  0  0  -0.713704  0  2.222497  0  0  -0.373885  -0.672756  0  2.25176  0
O  O74  1  0.25334143  0.13173360  0.42761159  1  0  -0.758239  0  1.977201  0  0  -0.689457  0  2.239652  0  0  -0.713392  0  2.221983  0  0  -0.373937  -0.6725  0  2.251245  0
O  O75  1  0.32825795  0.36772737  0.57239621  1  0  -0.758643  0  1.977619  0  0  -0.689809  0  2.239986  0  0  -0.713793  0  2.222358  0  0  -0.374015  -0.672846  0  2.251611  0
