# generated using pymatgen
data_CdH12C18(NO2)2
_symmetry_space_group_name_H-M   'P 1'
_cell_length_a   11.80782096
_cell_length_b   13.13360687
_cell_length_c   21.53084686
_cell_angle_alpha   90.00010425
_cell_angle_beta   90.00006120
_cell_angle_gamma   90.00007785
_symmetry_Int_Tables_number   1
_chemical_formula_structural   CdH12C18(NO2)2
_chemical_formula_sum   'Cd4 H48 C72 N8 O16'
_cell_volume   3338.98819612
_cell_formula_units_Z   4
loop_
 _symmetry_equiv_pos_site_id
 _symmetry_equiv_pos_as_xyz
  1  'x, y, z'
loop_
 _atom_site_type_symbol
 _atom_site_label
 _atom_site_symmetry_multiplicity
 _atom_site_fract_x
 _atom_site_fract_y
 _atom_site_fract_z
 _atom_site_occupancy
 _atom_site_pbe_bader_charge
 _atom_site_pbe_bader_spin_density
 _atom_site_pbe_cm5_charge
 _atom_site_pbe_ddec_charge
 _atom_site_pbe_ddec_spin_density
 _atom_site_pbe_ddec_sum_bond_order
 _atom_site_pbe_magmom
Cd  Cd0  1  0.00000222  0.61341726  0.06050702  1  1.27754  0  0.765767  0.872648  0  2.204317  0
Cd  Cd1  1  0.00000460  0.38658371  0.93949601  1  1.277572  0  0.765774  0.872597  0  2.20438  0
Cd  Cd2  1  0.99999450  0.11340804  0.43949631  1  1.27754  0  0.765727  0.872513  0  2.204506  0
Cd  Cd3  1  0.99999182  0.88658349  0.56050266  1  1.277547  0  0.765748  0.87256  0  2.204486  0
H  H4  1  0.00000237  0.86723454  0.89332670  1  0.080049  0  0.102762  0.111774  0  0.99705  0
H  H5  1  0.00000105  0.13276643  0.10667354  1  0.080071  0  0.102679  0.111651  0  0.997095  0
H  H6  1  0.00000002  0.36723285  0.60667304  1  0.080059  0  0.102711  0.111712  0  0.997118  0
H  H7  1  0.00000086  0.63276812  0.39332673  1  0.080079  0  0.102729  0.111729  0  0.9971  0
H  H8  1  0.00000061  0.92540880  0.78203524  1  0.110668  0  0.102277  0.110094  0  1.011936  0
H  H9  1  0.00000027  0.07459370  0.21796546  1  0.110706  0  0.102246  0.110035  0  1.012074  0
H  H10  1  0.00000017  0.42540744  0.71796456  1  0.110702  0  0.10229  0.110118  0  1.011934  0
H  H11  1  0.99999978  0.57459262  0.28203550  1  0.110717  0  0.102283  0.110102  0  1.011937  0
H  H12  1  0.00000032  0.61466162  0.72095758  1  0.064337  0  0.101038  0.107616  0  1.009263  0
H  H13  1  0.00000056  0.38534087  0.27904312  1  0.064431  0  0.101037  0.107629  0  1.009231  0
H  H14  1  0.99999992  0.11466106  0.77904356  1  0.064422  0  0.101044  0.107626  0  1.009253  0
H  H15  1  0.00000004  0.88533900  0.22095743  1  0.064436  0  0.101043  0.107626  0  1.009269  0
H  H16  1  0.00000123  0.55545338  0.83090771  1  0.128633  0  0.097664  0.117681  0  1.092161  0
H  H17  1  0.00000050  0.44454759  0.16909160  1  0.128587  0  0.097669  0.117658  0  1.092239  0
H  H18  1  0.99999977  0.05545325  0.66909291  1  0.128612  0  0.097641  0.117616  0  1.09222  0
H  H19  1  0.00000019  0.94454757  0.33090762  1  0.128595  0  0.09764  0.117593  0  1.092209  0
H  H20  1  0.79463226  0.46948326  0.10888381  1  0.112862  0  0.125196  0.099962  0  0.980936  0
H  H21  1  0.79463137  0.53051640  0.89111643  1  0.112851  0  0.125178  0.09995  0  0.981016  0
H  H22  1  0.20537093  0.96948153  0.39111666  1  0.11286  0  0.125184  0.099921  0  0.980992  0
H  H23  1  0.20537043  0.03051664  0.60888370  1  0.112885  0  0.125176  0.099951  0  0.98088  0
H  H24  1  0.20537024  0.53051680  0.89111718  1  0.112899  0  0.12516  0.099882  0  0.980924  0
H  H25  1  0.20537112  0.46948290  0.10888271  1  0.112898  0  0.125154  0.099892  0  0.980895  0
H  H26  1  0.79463411  0.03051929  0.60888294  1  0.112824  0  0.125234  0.100012  0  0.980794  0
H  H27  1  0.79463291  0.96948189  0.39111683  1  0.112836  0  0.12523  0.099997  0  0.980882  0
H  H28  1  0.58500256  0.46383579  0.11344232  1  0.072495  0  0.111267  0.115178  0  1.002202  0
H  H29  1  0.58500336  0.53616437  0.88655826  1  0.072349  0  0.111265  0.11518  0  1.002207  0
H  H30  1  0.41500062  0.96383355  0.38655721  1  0.063347  0  0.111249  0.115167  0  1.002144  0
H  H31  1  0.41500014  0.03616488  0.61344234  1  0.063375  0  0.111261  0.115169  0  1.002164  0
H  H32  1  0.41499994  0.53616427  0.88655821  1  0.06339  0  0.111271  0.11521  0  1.002135  0
H  H33  1  0.41499998  0.46383492  0.11344181  1  0.063387  0  0.11127  0.115174  0  1.002146  0
H  H34  1  0.58500441  0.03616499  0.61344192  1  0.07236  0  0.111259  0.115175  0  1.002176  0
H  H35  1  0.58500320  0.96383441  0.38655773  1  0.07247  0  0.111297  0.115214  0  1.002171  0
H  H36  1  0.58339696  0.74806982  0.01095371  1  0.087205  0  0.111556  0.115289  0  1.005507  0
H  H37  1  0.58339669  0.25193034  0.98904687  1  0.087195  0  0.111546  0.115262  0  1.005527  0
H  H38  1  0.41660674  0.24807069  0.48904605  1  0.077123  0  0.111527  0.115235  0  1.005544  0
H  H39  1  0.41660630  0.75193003  0.51095350  1  0.077236  0  0.111531  0.115238  0  1.005552  0
H  H40  1  0.41660639  0.25192948  0.98904636  1  0.077106  0  0.111557  0.115286  0  1.005513  0
H  H41  1  0.41660666  0.74807124  0.01095319  1  0.07722  0  0.111541  0.115251  0  1.005505  0
H  H42  1  0.58339745  0.75192937  0.51095355  1  0.087279  0  0.111553  0.115278  0  1.005501  0
H  H43  1  0.58339789  0.24807003  0.48904656  1  0.087199  0  0.111541  0.115253  0  1.005524  0
H  H44  1  0.79313844  0.74035006  0.01118692  1  0.128487  0  0.127085  0.105366  0  0.975651  0
H  H45  1  0.79313903  0.25965036  0.98881332  1  0.128482  0  0.127129  0.105439  0  0.975659  0
H  H46  1  0.20686440  0.24034991  0.48881376  1  0.128615  0  0.127091  0.105378  0  0.975562  0
H  H47  1  0.20686396  0.75964979  0.51118567  1  0.128607  0  0.127086  0.105392  0  0.97558  0
H  H48  1  0.20686321  0.25965000  0.98881361  1  0.128588  0  0.12708  0.105362  0  0.975596  0
H  H49  1  0.20686262  0.74034894  0.01118628  1  0.128604  0  0.127088  0.105363  0  0.975599  0
H  H50  1  0.79314149  0.75965091  0.51118631  1  0.128354  0  0.127108  0.105437  0  0.975615  0
H  H51  1  0.79314022  0.24034951  0.48881439  1  0.128451  0  0.127104  0.105416  0  0.97562  0
C  C52  1  0.00000819  0.67225085  0.93522230  1  1.505633  0  0.188093  0.549271  0  4.234837  0
C  C53  1  0.00000116  0.32774708  0.06477840  1  1.505309  0  0.188224  0.549594  0  4.234654  0
C  C54  1  0.99999213  0.17224812  0.56477845  1  1.505566  0  0.188179  0.549329  0  4.234829  0
C  C55  1  0.99999419  0.82774950  0.43522237  1  1.505344  0  0.188117  0.549417  0  4.234605  0
C  C56  1  0.00000308  0.70779315  0.86920540  1  -0.091411  0  -0.029131  -0.043771  0  4.012309  0
C  C57  1  0.99999942  0.29220690  0.13079512  1  -0.091348  0  -0.029315  -0.044224  0  4.01226  0
C  C58  1  0.99999392  0.20779063  0.63079585  1  -0.091424  0  -0.029245  -0.043939  0  4.012214  0
C  C59  1  0.99999580  0.79221004  0.36920497  1  -0.091444  0  -0.029217  -0.043945  0  4.012238  0
C  C60  1  0.00000399  0.81238207  0.85530773  1  -0.031028  0  -0.092481  -0.108071  0  3.996783  0
C  C61  1  0.99999935  0.18761951  0.14469280  1  -0.031043  0  -0.092396  -0.10781  0  3.996743  0
C  C62  1  0.99999570  0.31237959  0.64469178  1  -0.031085  0  -0.09235  -0.107893  0  3.996663  0
C  C63  1  0.99999655  0.68762032  0.35530765  1  -0.031055  0  -0.092362  -0.107892  0  3.996559  0
C  C64  1  0.00000311  0.84463512  0.79369428  1  -0.056619  0  -0.090216  -0.103305  0  3.98345  0
C  C65  1  0.99999770  0.15536570  0.20630532  1  -0.05662  0  -0.090108  -0.103225  0  3.983497  0
C  C66  1  0.99999579  0.34463357  0.70630573  1  -0.056609  0  -0.090242  -0.103368  0  3.983361  0
C  C67  1  0.99999647  0.65536786  0.29369417  1  -0.056618  0  -0.090163  -0.103279  0  3.983338  0
C  C68  1  0.00000046  0.77319085  0.74513508  1  0.016863  0  -0.017419  -0.017802  0  3.967006  0
C  C69  1  0.99999695  0.22681226  0.25486406  1  0.017503  0  -0.017462  -0.017753  0  3.967003  0
C  C70  1  0.99999409  0.27319021  0.75486392  1  0.016832  0  -0.01745  -0.017802  0  3.967089  0
C  C71  1  0.99999478  0.72680817  0.24513550  1  0.016838  0  -0.017524  -0.017857  0  3.967092  0
C  C72  1  0.00000209  0.66912349  0.75916837  1  -0.012986  0  -0.088259  -0.094889  0  3.97679  0
C  C73  1  0.99999871  0.33087809  0.24083262  1  -0.013159  0  -0.088286  -0.094932  0  3.976719  0
C  C74  1  0.99999484  0.16912281  0.74083469  1  -0.013155  0  -0.088297  -0.094878  0  3.976735  0
C  C75  1  0.99999572  0.83087786  0.25916566  1  -0.01313  0  -0.088268  -0.094882  0  3.976695  0
C  C76  1  0.00000128  0.63655142  0.82066756  1  -0.074319  0  -0.100574  -0.124628  0  3.989271  0
C  C77  1  0.99999952  0.36345168  0.17933250  1  -0.074323  0  -0.100473  -0.124395  0  3.988915  0
C  C78  1  0.99999476  0.13654980  0.67933268  1  -0.074159  0  -0.100475  -0.124471  0  3.989057  0
C  C79  1  0.99999580  0.86345011  0.32066768  1  -0.074151  0  -0.100515  -0.124481  0  3.989132  0
C  C80  1  0.99999696  0.80720867  0.67857693  1  1.528234  0  0.18064  0.548594  0  4.252185  0
C  C81  1  0.99999445  0.19279581  0.32142250  1  1.527871  0  0.180565  0.548267  0  4.252427  0
C  C82  1  0.99999248  0.30720686  0.82142287  1  1.528357  0  0.180573  0.548398  0  4.252576  0
C  C83  1  0.99999469  0.69279305  0.17857656  1  1.528195  0  0.180612  0.54842  0  4.252435  0
C  C84  1  0.74358137  0.52937991  0.08760366  1  0.435799  0  0.05865  0.108247  0  3.937492  0
C  C85  1  0.74358213  0.47062044  0.91239608  1  0.435792  0  0.05866  0.108239  0  3.937557  0
C  C86  1  0.25642200  0.02937732  0.41239725  1  0.435788  0  0.058784  0.108506  0  3.937114  0
C  C87  1  0.25642203  0.97062092  0.58760267  1  0.435802  0  0.058725  0.108357  0  3.937243  0
C  C88  1  0.25642197  0.47062014  0.91239733  1  0.435794  0  0.058784  0.108527  0  3.937312  0
C  C89  1  0.25642206  0.52937733  0.08760120  1  0.435711  0  0.058756  0.108437  0  3.937168  0
C  C90  1  0.74358219  0.97062350  0.58760189  1  0.435792  0  0.058744  0.108387  0  3.937077  0
C  C91  1  0.74358131  0.02937685  0.41239739  1  0.43577  0  0.05875  0.108415  0  3.937197  0
C  C92  1  0.62591191  0.52723801  0.08986225  1  0.072016  0  -0.079346  -0.172454  0  3.940648  0
C  C93  1  0.62591012  0.47276220  0.91013789  1  0.072189  0  -0.079361  -0.172463  0  3.940644  0
C  C94  1  0.37409231  0.02723631  0.41013866  1  0.071843  0  -0.079378  -0.17253  0  3.940615  0
C  C95  1  0.37409150  0.97276283  0.58986133  1  0.071837  0  -0.079372  -0.172512  0  3.940688  0
C  C96  1  0.37409144  0.47276205  0.91013828  1  0.071844  0  -0.079405  -0.172615  0  3.940646  0
C  C97  1  0.37409152  0.52723710  0.08986031  1  0.071841  0  -0.079396  -0.172521  0  3.940608  0
C  C98  1  0.62591273  0.97276298  0.58986140  1  0.072171  0  -0.07938  -0.172506  0  3.940545  0
C  C99  1  0.62591099  0.02723647  0.41013827  1  0.071841  0  -0.079387  -0.172538  0  3.94064  0
C  C100  1  0.56279276  0.60564290  0.06197298  1  0.091344  0  0.011809  0.101389  0  3.975057  0
C  C101  1  0.56279260  0.39435724  0.93802805  1  0.091078  0  0.011828  0.10139  0  3.975151  0
C  C102  1  0.43721073  0.10564212  0.43802755  1  -0.06087  0  0.011735  0.101285  0  3.975316  0
C  C103  1  0.43721144  0.89435786  0.56197202  1  -0.061379  0  0.011783  0.101362  0  3.975249  0
C  C104  1  0.43721059  0.39435640  0.93802801  1  -0.061203  0  0.011748  0.101322  0  3.975254  0
C  C105  1  0.43721074  0.60564282  0.06197155  1  -0.061403  0  0.01176  0.101322  0  3.975293  0
C  C106  1  0.56279346  0.89435717  0.56197159  1  0.091298  0  0.011819  0.101362  0  3.975036  0
C  C107  1  0.56279275  0.10564220  0.43802805  1  0.091238  0  0.011804  0.10136  0  3.975118  0
C  C108  1  0.62496683  0.68393974  0.03339126  1  -0.160171  0  -0.081475  -0.176906  0  3.951543  0
C  C109  1  0.62496577  0.31606123  0.96660981  1  -0.160097  0  -0.081457  -0.176815  0  3.951526  0
C  C110  1  0.37503846  0.18393897  0.46660935  1  -0.160377  0  -0.081451  -0.176839  0  3.951673  0
C  C111  1  0.37503562  0.81606169  0.53339017  1  -0.160123  0  -0.081465  -0.176831  0  3.951749  0
C  C112  1  0.37503651  0.31606032  0.96660973  1  -0.160027  0  -0.081489  -0.176914  0  3.951742  0
C  C113  1  0.37503588  0.68393806  0.03338979  1  -0.16012  0  -0.081483  -0.176894  0  3.951773  0
C  C114  1  0.62496912  0.81606185  0.53338932  1  -0.160183  0  -0.081512  -0.1769  0  3.95165  0
C  C115  1  0.62496688  0.18393836  0.46661082  1  -0.160012  0  -0.081481  -0.176826  0  3.951536  0
C  C116  1  0.74255754  0.68066425  0.03308615  1  0.576542  0  0.056983  0.101502  0  3.943993  0
C  C117  1  0.74255817  0.31933611  0.96691499  1  0.576545  0  0.056959  0.101413  0  3.94395  0
C  C118  1  0.25744521  0.18066257  0.46691539  1  0.576496  0  0.057008  0.101556  0  3.94391  0
C  C119  1  0.25744576  0.81933795  0.53308314  1  0.576431  0  0.056996  0.101488  0  3.943941  0
C  C120  1  0.25744496  0.31933581  0.96691531  1  0.57644  0  0.057002  0.101566  0  3.943926  0
C  C121  1  0.25744517  0.68066319  0.03308368  1  0.576426  0  0.057035  0.101595  0  3.943923  0
C  C122  1  0.74255898  0.81933825  0.53308421  1  0.576676  0  0.056977  0.101457  0  3.943974  0
C  C123  1  0.74255843  0.18066287  0.46691646  1  0.576554  0  0.05698  0.101443  0  3.943873  0
N  N124  1  0.80112970  0.60435703  0.05935634  1  -1.219008  0  -0.316173  -0.216503  0  3.486349  0
N  N125  1  0.80112956  0.39564340  0.94064436  1  -1.21914  0  -0.316188  -0.216504  0  3.486319  0
N  N126  1  0.19887378  0.10435444  0.44064604  1  -1.219058  0  -0.316265  -0.2167  0  3.486089  0
N  N127  1  0.19887111  0.89564525  0.55935384  1  -1.218904  0  -0.31623  -0.216612  0  3.486136  0
N  N128  1  0.19887364  0.39564379  0.94064465  1  -1.218923  0  -0.316256  -0.216652  0  3.486247  0
N  N129  1  0.19887379  0.60435361  0.05935338  1  -1.218998  0  -0.316266  -0.216661  0  3.486193  0
N  N130  1  0.80113041  0.89564638  0.55935309  1  -1.219212  0  -0.316283  -0.21665  0  3.486182  0
N  N131  1  0.80112885  0.10435405  0.44064668  1  -1.218964  0  -0.316301  -0.216648  0  3.486193  0
O  O132  1  0.00000998  0.73799827  0.97875476  1  -1.149496  0  -0.334375  -0.55345  0  2.163163  0
O  O133  1  0.00000191  0.26199965  0.02124641  1  -1.149285  0  -0.334445  -0.553568  0  2.163164  0
O  O134  1  0.99999129  0.23799770  0.52124653  1  -1.149377  0  -0.334438  -0.553462  0  2.163037  0
O  O135  1  0.99999419  0.76200144  0.47875522  1  -1.149266  0  -0.334361  -0.553501  0  2.163028  0
O  O136  1  0.00001067  0.57620718  0.94717207  1  -1.188801  0  -0.343625  -0.597133  0  2.318201  0
O  O137  1  0.00000207  0.42379151  0.05282863  1  -1.188261  0  -0.343612  -0.59723  0  2.31813  0
O  O138  1  0.99999035  0.07620518  0.55282578  1  -1.188907  0  -0.343631  -0.597148  0  2.318277  0
O  O139  1  0.99999174  0.92379321  0.44717411  1  -1.188399  0  -0.343612  -0.597155  0  2.318199  0
O  O140  1  0.99999702  0.90363456  0.66821557  1  -1.171426  0  -0.343989  -0.573081  0  2.250894  0
O  O141  1  0.99999354  0.09637067  0.33178897  1  -1.171567  0  -0.343929  -0.572903  0  2.251155  0
O  O142  1  0.99999172  0.40363355  0.83178387  1  -1.17159  0  -0.343888  -0.572976  0  2.251047  0
O  O143  1  0.99999291  0.59636560  0.16821509  1  -1.171421  0  -0.343924  -0.573032  0  2.251012  0
O  O144  1  0.99999602  0.74176961  0.63529062  1  -1.159213  0  -0.349203  -0.563555  0  2.103492  0
O  O145  1  0.99999454  0.25824095  0.36470602  1  -1.159316  0  -0.349153  -0.563426  0  2.103299  0
O  O146  1  0.99999332  0.24176793  0.86470678  1  -1.15921  0  -0.349197  -0.563485  0  2.103659  0
O  O147  1  0.99999724  0.75823045  0.13529126  1  -1.159201  0  -0.349212  -0.563485  0  2.10359  0
