# generated using pymatgen
data_ZnH12C11NO4
_symmetry_space_group_name_H-M   'P 1'
_cell_length_a   6.74549771
_cell_length_b   21.65479849
_cell_length_c   21.65588382
_cell_angle_alpha   120.00200027
_cell_angle_beta   90.00001900
_cell_angle_gamma   90.00629398
_symmetry_Int_Tables_number   1
_chemical_formula_structural   ZnH12C11NO4
_chemical_formula_sum   'Zn6 H72 C66 N6 O24'
_cell_volume   2739.46611711
_cell_formula_units_Z   6
loop_
 _symmetry_equiv_pos_site_id
 _symmetry_equiv_pos_as_xyz
  1  'x, y, z'
loop_
 _atom_site_type_symbol
 _atom_site_label
 _atom_site_symmetry_multiplicity
 _atom_site_fract_x
 _atom_site_fract_y
 _atom_site_fract_z
 _atom_site_occupancy
 _atom_site_pbe_bader_charge
 _atom_site_pbe_bader_spin_density
 _atom_site_pbe_cm5_charge
 _atom_site_pbe_ddec_charge
 _atom_site_pbe_ddec_spin_density
 _atom_site_pbe_ddec_sum_bond_order
 _atom_site_pbe_magmom
Zn  Zn0  1  0.65214133  0.33213613  0.60820648  1  1.394701  0  0.688981  0.989353  0  2.28118  0
Zn  Zn1  1  0.98515955  0.27623147  0.66790901  1  1.393926  0  0.688837  0.989055  0  2.282332  0
Zn  Zn2  1  0.31871024  0.39168341  0.72380428  1  1.39298  0  0.68883  0.989212  0  2.281881  0
Zn  Zn3  1  0.34786262  0.66786191  0.27607156  1  1.39513  0  0.688957  0.989322  0  2.281144  0
Zn  Zn4  1  0.01483708  0.72376693  0.39167806  1  1.39326  0  0.688862  0.989072  0  2.282311  0
Zn  Zn5  1  0.68129084  0.60831429  0.33212165  1  1.392718  0  0.688865  0.9893  0  2.281809  0
H  H6  1  0.27929836  0.08772923  0.53135828  1  0.071711  0  0.097081  0.097814  0  1.045087  0
H  H7  1  0.61262370  0.44364660  0.91223201  1  0.057209  0  0.096791  0.096824  0  1.046118  0
H  H8  1  0.94709545  0.46861169  0.55627906  1  0.069661  0  0.096995  0.09732  0  1.045472  0
H  H9  1  0.72069822  0.91226998  0.44363160  1  0.081472  0  0.097065  0.097792  0  1.045096  0
H  H10  1  0.38737162  0.55635484  0.46858740  1  0.062942  0  0.096774  0.09683  0  1.046071  0
H  H11  1  0.05290836  0.53138862  0.08766633  1  0.06621  0  0.097018  0.097335  0  1.045403  0
H  H12  1  0.83030587  0.00400875  0.42034394  1  0.038472  0  0.095662  0.094472  0  1.022743  0
H  H13  1  0.16287440  0.41581267  0.99596354  1  0.045372  0  0.0954  0.094076  0  1.022281  0
H  H14  1  0.49773243  0.57999970  0.58404141  1  0.043962  0  0.095649  0.094383  0  1.02211  0
H  H15  1  0.16969212  0.99598461  0.41632932  1  0.052357  0  0.095661  0.094497  0  1.02276  0
H  H16  1  0.83712399  0.58418979  0.58015428  1  0.047506  0  0.0954  0.09407  0  1.022288  0
H  H17  1  0.50226839  0.42000233  0.00404095  1  0.047115  0  0.095609  0.0943  0  1.022136  0
H  H18  1  0.97647818  0.12553671  0.48733442  1  0.046799  0  0.100924  0.116492  0  1.018658  0
H  H19  1  0.30942621  0.36154385  0.87455500  1  0.067974  0  0.100678  0.116612  0  1.018661  0
H  H20  1  0.64399001  0.51280755  0.63834658  1  0.052626  0  0.100776  0.116541  0  1.018832  0
H  H21  1  0.02352130  0.87445674  0.36179455  1  0.060149  0  0.100908  0.116465  0  1.018684  0
H  H22  1  0.69057356  0.63845796  0.51301513  1  0.067926  0  0.100659  0.116603  0  1.018742  0
H  H23  1  0.35601535  0.48719275  0.12553913  1  0.051212  0  0.100806  0.116576  0  1.018834  0
H  H24  1  0.65163159  0.37582978  0.48517299  1  0.089489  0  0.103744  0.167372  0  1.003836  0
H  H25  1  0.98532283  0.10967846  0.62428889  1  0.091899  0  0.103621  0.167346  0  1.004566  0
H  H26  1  0.31863126  0.51483360  0.89052265  1  0.092059  0  0.103862  0.167992  0  1.004172  0
H  H27  1  0.34836478  0.62417065  0.10934620  1  0.096703  0  0.103723  0.167279  0  1.003878  0
H  H28  1  0.01467977  0.89032215  0.51461063  1  0.094515  0  0.103623  0.16735  0  1.004594  0
H  H29  1  0.68137289  0.48516610  0.37568887  1  0.093801  0  0.103891  0.167992  0  1.004159  0
H  H30  1  0.41731858  0.40283573  0.46801868  1  0.05348  0  0.09806  0.14899  0  1.026729  0
H  H31  1  0.75121663  0.06538439  0.59717983  1  0.076665  0  0.097803  0.148944  0  1.026431  0
H  H32  1  0.08443514  0.53198434  0.93472753  1  0.090888  0  0.097984  0.149084  0  1.026304  0
H  H33  1  0.58267776  0.59716421  0.06518432  1  0.085565  0  0.098064  0.148958  0  1.026695  0
H  H34  1  0.24878448  0.93461655  0.53179498  1  0.076788  0  0.097789  0.148922  0  1.026423  0
H  H35  1  0.91556757  0.46801555  0.40274517  1  0.091733  0  0.097999  0.14906  0  1.026249  0
H  H36  1  0.54963427  0.33186157  0.39696807  1  0.026742  0  0.093466  0.134737  0  0.998531  0
H  H37  1  0.88348414  0.06530193  0.66814306  1  0.026209  0  0.09349  0.134864  0  0.998894  0
H  H38  1  0.21675965  0.60304906  0.93482224  1  0.067842  0  0.093633  0.135176  0  0.998646  0
H  H39  1  0.45036055  0.66813835  0.06510934  1  0.025243  0  0.093417  0.134664  0  0.998525  0
H  H40  1  0.11651557  0.93470030  0.60284156  1  -0.014603  0  0.093501  0.134889  0  0.998843  0
H  H41  1  0.78324451  0.39695078  0.33177333  1  0.027222  0  0.09362  0.135159  0  0.998694  0
H  H42  1  0.25498748  0.19792477  0.46969211  1  0.10366  0  0.10865  0.130609  0  1.014502  0
H  H43  1  0.58818591  0.27183341  0.80210045  1  0.117127  0  0.108729  0.131022  0  1.014679  0
H  H44  1  0.92206604  0.53034393  0.72818316  1  0.088435  0  0.108916  0.131382  0  1.014358  0
H  H45  1  0.74501342  0.80207647  0.27176908  1  0.105166  0  0.10863  0.130593  0  1.014485  0
H  H46  1  0.41181383  0.72816770  0.53026754  1  0.100849  0  0.108675  0.130966  0  1.014603  0
H  H47  1  0.07794534  0.46965675  0.19784093  1  0.093346  0  0.108898  0.1313  0  1.014367  0
H  H48  1  0.06825604  0.18426081  0.40517700  1  0.035276  0  0.099811  0.105202  0  0.991595  0
H  H49  1  0.40158284  0.22091456  0.81573552  1  0.0425  0  0.099847  0.105545  0  0.991415  0
H  H50  1  0.73544928  0.59493320  0.77902002  1  0.028319  0  0.099764  0.105773  0  0.992165  0
H  H51  1  0.93174480  0.81573876  0.22091708  1  0.030273  0  0.099784  0.10514  0  0.991603  0
H  H52  1  0.59841398  0.77908764  0.59482300  1  0.048522  0  0.099827  0.105506  0  0.991446  0
H  H53  1  0.26456212  0.40506866  0.18408954  1  0.018966  0  0.099787  0.10584  0  0.992131  0
H  H54  1  0.03230431  0.24920101  0.49692917  1  0.132872  0  0.105833  0.136794  0  1.01621  0
H  H55  1  0.36561687  0.24767143  0.75075750  1  0.123374  0  0.10587  0.137283  0  1.015762  0
H  H56  1  0.69930527  0.50318745  0.75226775  1  0.112774  0  0.105896  0.13769  0  1.014777  0
H  H57  1  0.96769363  0.75079915  0.24772855  1  0.081674  0  0.105829  0.136785  0  1.016211  0
H  H58  1  0.63438431  0.75233064  0.50308821  1  0.129526  0  0.105871  0.137301  0  1.015689  0
H  H59  1  0.30070319  0.49681329  0.24908309  1  0.118185  0  0.105869  0.137668  0  1.01476  0
H  H60  1  0.07259617  0.35743449  0.43707747  1  0.066128  0  0.103191  0.117303  0  1.005938  0
H  H61  1  0.40638471  0.07959928  0.64259961  1  0.079344  0  0.103055  0.116952  0  1.006211  0
H  H62  1  0.73928182  0.56288629  0.92019318  1  0.064828  0  0.10301  0.117204  0  1.006024  0
H  H63  1  0.92739719  0.64256522  0.07964239  1  0.065892  0  0.103224  0.117362  0  1.005928  0
H  H64  1  0.59361051  0.92040350  0.56300419  1  0.073732  0  0.10303  0.11695  0  1.006159  0
H  H65  1  0.26072679  0.43711499  0.35730890  1  0.073503  0  0.10304  0.117244  0  1.005963  0
H  H66  1  0.00395974  0.26787839  0.37494352  1  0.069862  0  0.110028  0.121798  0  0.982159  0
H  H67  1  0.33780162  0.10697060  0.73213055  1  0.051096  0  0.110096  0.121341  0  0.982463  0
H  H68  1  0.67087086  0.62510917  0.89285635  1  0.064646  0  0.110225  0.121986  0  0.982222  0
H  H69  1  0.99603213  0.73212117  0.10706520  1  0.066479  0  0.110047  0.121826  0  0.98218  0
H  H70  1  0.66219516  0.89303168  0.62516265  1  0.059953  0  0.110106  0.121315  0  0.982506  0
H  H71  1  0.32913620  0.37489189  0.26774871  1  0.081233  0  0.110188  0.121981  0  0.982258  0
H  H72  1  0.22289594  0.30453585  0.36019809  1  0.050837  0  0.098865  0.101281  0  1.023393  0
H  H73  1  0.55687052  0.05567151  0.69550071  1  0.030366  0  0.098919  0.10134  0  1.023735  0
H  H74  1  0.88959863  0.63982110  0.94435099  1  0.037908  0  0.099164  0.101284  0  1.0236  0
H  H75  1  0.77709589  0.69546390  0.05566271  1  0.050342  0  0.098883  0.101357  0  1.023372  0
H  H76  1  0.44312329  0.94432951  0.63983286  1  0.040067  0  0.098895  0.101295  0  1.02372  0
H  H77  1  0.11040848  0.36017975  0.30453098  1  0.040489  0  0.099172  0.101326  0  1.023589  0
C  C78  1  0.71288165  0.17589738  0.54669847  1  0.690182  0  0.085952  0.343158  0  4.052395  0
C  C79  1  0.04614108  0.37072966  0.82413512  1  0.615574  0  0.086931  0.343738  0  4.050619  0
C  C80  1  0.38032365  0.45338793  0.62926046  1  0.622613  0  0.086013  0.342965  0  4.051934  0
C  C81  1  0.28711787  0.82409834  0.37080168  1  0.681887  0  0.085944  0.343162  0  4.052395  0
C  C82  1  0.95385714  0.62927298  0.45340992  1  0.619623  0  0.086959  0.343862  0  4.050385  0
C  C83  1  0.61968025  0.54661075  0.17587223  1  0.614723  0  0.086091  0.343063  0  4.051699  0
C  C84  1  0.51143705  0.16405111  0.55864748  1  -0.040788  0  -0.042107  -0.184426  0  3.962978  0
C  C85  1  0.84475650  0.39457105  0.83596850  1  -0.029649  0  -0.043375  -0.184155  0  3.960992  0
C  C86  1  0.17897685  0.44138834  0.60541577  1  -0.002691  0  -0.04263  -0.18364  0  3.961408  0
C  C87  1  0.48856397  0.83594442  0.39459576  1  -0.036958  0  -0.041999  -0.184391  0  3.963018  0
C  C88  1  0.15524321  0.60543039  0.44140044  1  -0.042507  0  -0.043432  -0.184247  0  3.96109  0
C  C89  1  0.82102703  0.55861158  0.16402819  1  -0.060862  0  -0.042621  -0.183651  0  3.961331  0
C  C90  1  0.43263299  0.09480157  0.52009071  1  -0.082418  0  -0.098242  -0.150257  0  4.014392  0
C  C91  1  0.76585153  0.42521315  0.90519945  1  -0.082951  0  -0.097732  -0.149952  0  4.014442  0
C  C92  1  0.10026300  0.48000024  0.57478445  1  -0.099435  0  -0.097929  -0.1505  0  4.015194  0
C  C93  1  0.56736210  0.90519640  0.42529074  1  -0.09426  0  -0.098318  -0.150364  0  4.014358  0
C  C94  1  0.23414823  0.57478939  0.47998907  1  -0.077293  0  -0.09771  -0.149967  0  4.014419  0
C  C95  1  0.89973935  0.52000063  0.09478405  1  -0.023003  0  -0.097878  -0.15039  0  4.015149  0
C  C96  1  0.54301475  0.03612719  0.47092939  1  -0.041513  0  -0.033495  0.029234  0  4.078343  0
C  C97  1  0.87581248  0.43451381  0.96387797  1  0.037758  0  -0.033703  0.030253  0  4.075414  0
C  C98  1  0.21044000  0.52935085  0.56549101  1  0.004101  0  -0.033431  0.02941  0  4.075585  0
C  C99  1  0.45698179  0.96386976  0.43479993  1  0.025084  0  -0.03337  0.029506  0  4.078332  0
C  C100  1  0.12419031  0.56548787  0.52936758  1  0.032679  0  -0.033619  0.030296  0  4.075311  0
C  C101  1  0.78955489  0.47064982  0.03613921  1  -0.044844  0  -0.03342  0.029273  0  4.075844  0
C  C102  1  0.74110166  0.04857176  0.45931850  1  -0.064674  0  -0.096727  -0.114477  0  4.031214  0
C  C103  1  0.07382290  0.41034601  0.95140576  1  -0.067768  0  -0.096583  -0.114444  0  4.03075  0
C  C104  1  0.40851493  0.54100865  0.58962099  1  -0.059996  0  -0.096605  -0.114035  0  4.029596  0
C  C105  1  0.25889190  0.95142378  0.41074505  1  -0.151712  0  -0.096726  -0.114571  0  4.03137  0
C  C106  1  0.92617841  0.58965787  0.54106458  1  -0.053018  0  -0.096547  -0.114338  0  4.030708  0
C  C107  1  0.59148740  0.45899158  0.04861052  1  -0.048797  0  -0.096617  -0.1139  0  4.029801  0
C  C108  1  0.82273399  0.11622001  0.49590608  1  -0.085496  0  -0.113754  -0.212076  0  3.984541  0
C  C109  1  0.15572538  0.37944603  0.88380977  1  -0.029657  0  -0.113509  -0.212243  0  3.984652  0
C  C110  1  0.49019406  0.50430067  0.62055227  1  -0.075512  0  -0.113404  -0.212178  0  3.984002  0
C  C111  1  0.17726254  0.88377551  0.37968304  1  -0.030109  0  -0.113785  -0.2121  0  3.984521  0
C  C112  1  0.84426995  0.62055504  0.50436694  1  -0.042153  0  -0.11355  -0.212381  0  3.984639  0
C  C113  1  0.50980832  0.49569752  0.11624994  1  -0.045541  0  -0.113436  -0.21226  0  3.984035  0
C  C114  1  0.37903735  0.22111226  0.61149539  1  1.558588  0  0.216632  0.618913  0  4.126106  0
C  C115  1  0.71241857  0.39041337  0.77890058  1  1.520127  0  0.216573  0.617985  0  4.125223  0
C  C116  1  0.04641984  0.38849615  0.60954067  1  1.535684  0  0.216811  0.618838  0  4.124151  0
C  C117  1  0.62096369  0.77888596  0.39038346  1  1.550716  0  0.216603  0.618916  0  4.126398  0
C  C118  1  0.28757663  0.60958661  0.38848895  1  1.520525  0  0.21649  0.617883  0  4.125369  0
C  C119  1  0.95358111  0.61150768  0.22104428  1  1.55455  0  0.216772  0.618802  0  4.124237  0
C  C120  1  0.41852262  0.30366323  0.47034150  1  1.369191  0  0.244135  0.518872  0  4.039638  0
C  C121  1  0.75189281  0.16682245  0.69637931  1  1.392415  0  0.244005  0.518651  0  4.038572  0
C  C122  1  0.08549465  0.52970640  0.83326481  1  1.387396  0  0.244546  0.519717  0  4.037947  0
C  C123  1  0.58147526  0.69633720  0.16668091  1  1.378434  0  0.244112  0.518818  0  4.03957  0
C  C124  1  0.24810687  0.83317691  0.52955691  1  1.354867  0  0.244031  0.51871  0  4.038503  0
C  C125  1  0.91450795  0.47029403  0.30355877  1  1.379837  0  0.244571  0.51979  0  4.038069  0
C  C126  1  0.51448641  0.35701361  0.45421477  1  -0.064125  0  -0.240069  -0.508839  0  3.911453  0
C  C127  1  0.84825148  0.09742793  0.64304076  1  -0.090293  0  -0.23985  -0.509076  0  3.91137  0
C  C128  1  0.18155568  0.54581692  0.90272068  1  -0.151207  0  -0.240306  -0.510198  0  3.911657  0
C  C129  1  0.48551143  0.64298665  0.09720383  1  -0.111882  0  -0.240017  -0.508631  0  3.911363  0
C  C130  1  0.15174670  0.90257279  0.54561258  1  -0.036456  0  -0.239845  -0.509085  0  3.911242  0
C  C131  1  0.81844995  0.45418203  0.35690397  1  -0.108466  0  -0.24035  -0.510159  0  3.911618  0
C  C132  1  0.14286248  0.22403393  0.45412118  1  0.207991  0  -0.13898  -0.266849  0  3.881144  0
C  C133  1  0.47621051  0.23008434  0.77596676  1  0.189798  0  -0.138837  -0.268372  0  3.88345  0
C  C134  1  0.80996145  0.54598682  0.76989084  1  0.243919  0  -0.139363  -0.269667  0  3.883358  0
C  C135  1  0.85713691  0.77596623  0.23008891  1  0.268178  0  -0.138918  -0.266782  0  3.881033  0
C  C136  1  0.52378923  0.76991824  0.54588525  1  0.19696  0  -0.138776  -0.268249  0  3.883283  0
C  C137  1  0.19004552  0.45401404  0.22390623  1  0.248954  0  -0.139338  -0.269609  0  3.883252  0
C  C138  1  0.13004123  0.30338648  0.40124484  1  0.241373  0  -0.130576  -0.261781  0  3.933687  0
C  C139  1  0.46387668  0.09783408  0.69664680  1  0.278878  0  -0.130441  -0.261161  0  3.935122  0
C  C140  1  0.79685247  0.59879269  0.90208531  1  0.27155  0  -0.13063  -0.261342  0  3.933583  0
C  C141  1  0.86995213  0.69661420  0.09785842  1  0.239405  0  -0.130621  -0.261975  0  3.933788  0
C  C142  1  0.53612008  0.90216685  0.59881481  1  0.261621  0  -0.130418  -0.261037  0  3.935135  0
C  C143  1  0.20315313  0.40120879  0.30329538  1  0.24582  0  -0.13065  -0.261436  0  3.933648  0
N  N144  1  0.24071916  0.27615464  0.44029353  1  -1.176893  0  -0.282164  -0.034017  0  3.637687  0
N  N145  1  0.57426573  0.16417558  0.72390371  1  -1.196563  0  -0.282457  -0.03327  0  3.639239  0
N  N146  1  0.90777732  0.55981995  0.83583980  1  -1.187585  0  -0.282394  -0.034089  0  3.637653  0
N  N147  1  0.75927722  0.72384663  0.16414087  1  -1.1731  0  -0.282233  -0.033939  0  3.637593  0
N  N148  1  0.42573546  0.83582600  0.55972945  1  -1.175703  0  -0.282436  -0.033413  0  3.639425  0
N  N149  1  0.09222971  0.44018123  0.27602155  1  -1.193786  0  -0.282419  -0.034163  0  3.6377  0
O  O150  1  0.80328644  0.23905318  0.57987285  1  -1.178937  0  -0.349361  -0.591817  0  2.52074  0
O  O151  1  0.13660946  0.34086571  0.76102165  1  -1.188237  0  -0.349501  -0.59248  0  2.521543  0
O  O152  1  0.47061654  0.42012501  0.65914113  1  -1.175959  0  -0.349598  -0.592562  0  2.522112  0
O  O153  1  0.19671752  0.76094274  0.34081978  1  -1.181315  0  -0.349333  -0.591707  0  2.520702  0
O  O154  1  0.86338724  0.65913432  0.42015816  1  -1.188483  0  -0.34957  -0.592618  0  2.521502  0
O  O155  1  0.52938741  0.57987109  0.23901691  1  -1.19268  0  -0.349624  -0.59262  0  2.522039  0
O  O156  1  0.44312252  0.28512700  0.64667483  1  -1.184818  0  -0.307211  -0.570574  0  2.488249  0
O  O157  1  0.77649917  0.36165075  0.71489187  1  -1.176636  0  -0.307599  -0.57045  0  2.486592  0
O  O158  1  0.11009169  0.35337430  0.63848363  1  -1.182298  0  -0.307437  -0.570572  0  2.488572  0
O  O159  1  0.55687852  0.71487175  0.36154913  1  -1.180823  0  -0.30722  -0.57058  0  2.488331  0
O  O160  1  0.22349598  0.63834606  0.35324139  1  -1.179436  0  -0.307475  -0.570292  0  2.486496  0
O  O161  1  0.88990487  0.64662551  0.28510873  1  -1.183288  0  -0.307441  -0.570603  0  2.48865  0
O  O162  1  0.20528565  0.20285293  0.62023631  1  -1.18043  0  -0.318669  -0.562053  0  2.311379  0
O  O163  1  0.53865411  0.41739910  0.79716791  1  -1.181691  0  -0.318369  -0.561503  0  2.312773  0
O  O164  1  0.87278576  0.37966931  0.58241748  1  -1.175105  0  -0.318755  -0.562459  0  2.310138  0
O  O165  1  0.79471393  0.79714432  0.41738271  1  -1.181089  0  -0.31865  -0.562042  0  2.311457  0
O  O166  1  0.46134406  0.58260057  0.37977045  1  -1.180333  0  -0.318368  -0.561476  0  2.312748  0
O  O167  1  0.12721813  0.62033143  0.20274988  1  -1.177493  0  -0.318746  -0.562451  0  2.310249  0
O  O168  1  0.50336818  0.28300063  0.50847280  1  -1.172417  0  -0.299374  -0.514878  0  2.324282  0
O  O169  1  0.83625875  0.22571066  0.71702326  1  -1.177776  0  -0.299091  -0.514681  0  2.325018  0
O  O170  1  0.17007169  0.49147777  0.77443939  1  -1.17771  0  -0.299562  -0.515186  0  2.323091  0
O  O171  1  0.49663271  0.71699861  0.22547461  1  -1.174065  0  -0.299312  -0.514885  0  2.324249  0
O  O172  1  0.16373796  0.77429038  0.49131413  1  -1.176767  0  -0.299127  -0.514695  0  2.325018  0
O  O173  1  0.82993383  0.50852108  0.28296306  1  -1.176738  0  -0.299536  -0.515189  0  2.323306  0
