# generated using pymatgen
data_UH4C4O7
_symmetry_space_group_name_H-M   'P 1'
_cell_length_a   6.61164180
_cell_length_b   9.61113346
_cell_length_c   13.50448429
_cell_angle_alpha   78.78485055
_cell_angle_beta   87.30006239
_cell_angle_gamma   85.71574166
_symmetry_Int_Tables_number   1
_chemical_formula_structural   UH4C4O7
_chemical_formula_sum   'U4 H16 C16 O28'
_cell_volume   838.94233569
_cell_formula_units_Z   4
loop_
 _symmetry_equiv_pos_site_id
 _symmetry_equiv_pos_as_xyz
  1  'x, y, z'
loop_
 _atom_site_type_symbol
 _atom_site_label
 _atom_site_symmetry_multiplicity
 _atom_site_fract_x
 _atom_site_fract_y
 _atom_site_fract_z
 _atom_site_occupancy
 _atom_site_hle17_bader_spin_density
 _atom_site_hle17_ddec_charge
 _atom_site_hle17_ddec_spin_density
 _atom_site_hle17_ddec_sum_bond_order
 _atom_site_hle17_magmom
 _atom_site_hse06_10hf_bader_spin_density
 _atom_site_hse06_10hf_ddec_charge
 _atom_site_hse06_10hf_ddec_spin_density
 _atom_site_hse06_10hf_ddec_sum_bond_order
 _atom_site_hse06_10hf_magmom
 _atom_site_hse06_bader_spin_density
 _atom_site_hse06_ddec_charge
 _atom_site_hse06_ddec_spin_density
 _atom_site_hse06_ddec_sum_bond_order
 _atom_site_hse06_magmom
 _atom_site_pbe_bader_spin_density
 _atom_site_pbe_cm5_charge
 _atom_site_pbe_ddec_charge
 _atom_site_pbe_ddec_spin_density
 _atom_site_pbe_ddec_sum_bond_order
 _atom_site_pbe_magmom
U  U0  1  0.38852724  0.60671045  0.80861446  1  0  2.527236  0  4.073414  0  0  2.588448  0  4.724851  0  0  2.695066  0  4.691116  0  0  2.209008  2.511147  0  4.751416  0
U  U1  1  0.61146784  0.39329181  0.19138177  1  0  2.5273  0  4.073058  0  0  2.588449  0  4.724502  0  0  2.695068  0  4.690765  0  0  2.208864  2.511151  0  4.751045  0
U  U2  1  0.03617001  0.15920350  0.74286212  1  0  2.520935  0  4.132972  0  0  2.580954  0  4.795622  0  0  2.689816  0  4.75512  0  0  2.207924  2.501273  0  4.827898  0
U  U3  1  0.96383151  0.84079670  0.25714162  1  0  2.521318  0  4.132666  0  0  2.581114  0  4.79545  0  0  2.690028  0  4.754862  0  0  2.20791  2.501402  0  4.827772  0
H  H4  1  0.03785457  0.82362891  0.82081816  1  0  0.424562  0  0.888252  0  0  0.39165  0  0.956134  0  0  0.404624  0  0.937591  0  0  0.308075  0.382568  0  0.96904  0
H  H5  1  0.96214545  0.17637021  0.17917985  1  0  0.424612  0  0.888186  0  0  0.391678  0  0.956102  0  0  0.404651  0  0.93756  0  0  0.308083  0.382595  0  0.96901  0
H  H6  1  0.00313068  0.77149773  0.71806258  1  0  0.458756  0  0.775659  0  0  0.447458  0  0.818071  0  0  0.456674  0  0.808059  0  0  0.356019  0.440811  0  0.825449  0
H  H7  1  0.99686921  0.22850246  0.28193529  1  0  0.458746  0  0.7757  0  0  0.447441  0  0.818127  0  0  0.45666  0  0.80811  0  0  0.355986  0.440792  0  0.82551  0
H  H8  1  0.72682180  0.56931019  0.95682342  1  0  0.465249  0  0.817973  0  0  0.446905  0  0.859546  0  0  0.459208  0  0.841533  0  0  0.321253  0.438103  0  0.872472  0
H  H9  1  0.27318345  0.43069538  0.04317059  1  0  0.465287  0  0.81792  0  0  0.446935  0  0.859503  0  0  0.459241  0  0.841486  0  0  0.321255  0.438132  0  0.872429  0
H  H10  1  0.83171882  0.64519150  0.84916452  1  0  0.457459  0  0.827452  0  0  0.437359  0  0.870805  0  0  0.449639  0  0.853158  0  0  0.317655  0.428496  0  0.88352  0
H  H11  1  0.16828418  0.35480766  0.15083118  1  0  0.457477  0  0.827435  0  0  0.437379  0  0.870783  0  0  0.449659  0  0.853135  0  0  0.317641  0.428517  0  0.883495  0
H  H12  1  0.67584910  0.61439968  0.55391342  1  0  0.130466  0  0.891864  0  0  0.140807  0  0.941797  0  0  0.143588  0  0.940518  0  0  0.131403  0.138995  0  0.942707  0
H  H13  1  0.32415175  0.38560584  0.44608812  1  0  0.13046  0  0.891904  0  0  0.140821  0  0.941808  0  0  0.143601  0  0.940535  0  0  0.13142  0.139008  0  0.942718  0
H  H14  1  0.32126496  0.65965522  0.52672169  1  0  0.126176  0  0.896285  0  0  0.134116  0  0.947173  0  0  0.137049  0  0.945637  0  0  0.128869  0.132256  0  0.948191  0
H  H15  1  0.67873426  0.34035134  0.47327975  1  0  0.126076  0  0.896074  0  0  0.134013  0  0.94701  0  0  0.136944  0  0.945472  0  0  0.128815  0.132154  0  0.948027  0
H  H16  1  0.21174293  0.03510592  0.02829513  1  0  0.122105  0  0.933277  0  0  0.127107  0  0.994363  0  0  0.130618  0  0.99273  0  0  0.121837  0.124656  0  0.995479  0
H  H17  1  0.78825618  0.96488893  0.97170868  1  0  0.122099  0  0.933314  0  0  0.127119  0  0.994382  0  0  0.130629  0  0.99275  0  0  0.121847  0.124665  0  0.995497  0
H  H18  1  0.44765869  0.19857469  0.94454285  1  0  0.130348  0  0.905084  0  0  0.13868  0  0.960669  0  0  0.141409  0  0.95931  0  0  0.132746  0.136822  0  0.96185  0
H  H19  1  0.55234204  0.80141911  0.05546032  1  0  0.130343  0  0.904944  0  0  0.138679  0  0.960563  0  0  0.141406  0  0.959196  0  0  0.132747  0.136817  0  0.961747  0
C  C20  1  0.66316823  0.41517638  0.65420683  1  0  0.740063  0  3.758331  0  0  0.710772  0  4.053159  0  0  0.75119  0  4.040179  0  0  0.261021  0.682646  0  4.061318  0
C  C21  1  0.33683530  0.58483236  0.34579568  1  0  0.740111  0  3.758385  0  0  0.710769  0  4.05331  0  0  0.751191  0  4.040327  0  0  0.260947  0.682643  0  4.061473  0
C  C22  1  0.60084085  0.51489997  0.55817291  1  0  -0.139857  0  3.532531  0  0  -0.153902  0  3.768035  0  0  -0.1597  0  3.778148  0  0  -0.063142  -0.149775  0  3.760909  0
C  C23  1  0.39916111  0.48510875  0.44182667  1  0  -0.139925  0  3.532755  0  0  -0.153947  0  3.768252  0  0  -0.159754  0  3.778378  0  0  -0.063134  -0.149819  0  3.761125  0
C  C24  1  0.36748594  0.54601001  0.53924478  1  0  -0.143119  0  3.541177  0  0  -0.157307  0  3.778563  0  0  -0.162081  0  3.787418  0  0  -0.070573  -0.154035  0  3.77239  0
C  C25  1  0.63251327  0.45399655  0.46075667  1  0  -0.142951  0  3.540861  0  0  -0.157159  0  3.778318  0  0  -0.16192  0  3.787151  0  0  -0.070493  -0.15389  0  3.772148  0
C  C26  1  0.23789452  0.46623890  0.62299016  1  0  0.72032  0  3.798736  0  0  0.687908  0  4.101796  0  0  0.72721  0  4.089327  0  0  0.245369  0.660498  0  4.109369  0
C  C27  1  0.76210884  0.53375813  0.37701175  1  0  0.720252  0  3.798896  0  0  0.687813  0  4.102018  0  0  0.727116  0  4.089548  0  0  0.245298  0.660404  0  4.109593  0
C  C28  1  0.25209453  0.89253180  0.92627585  1  0  0.744728  0  3.752338  0  0  0.709454  0  4.044758  0  0  0.748912  0  4.031281  0  0  0.261834  0.681938  0  4.053392  0
C  C29  1  0.74791400  0.10747168  0.07371836  1  0  0.744781  0  3.752132  0  0  0.709513  0  4.044535  0  0  0.748977  0  4.031056  0  0  0.261892  0.68201  0  4.053146  0
C  C30  1  0.33807205  0.98196847  0.99171433  1  0  -0.145852  0  3.534906  0  0  -0.160747  0  3.771294  0  0  -0.166589  0  3.780839  0  0  -0.069028  -0.156631  0  3.764652  0
C  C31  1  0.66191943  0.01802630  0.00828599  1  0  -0.145962  0  3.534646  0  0  -0.160881  0  3.771087  0  0  -0.166729  0  3.780636  0  0  -0.069117  -0.156768  0  3.76444  0
C  C32  1  0.49457173  0.08920931  0.93607050  1  0  -0.144335  0  3.523643  0  0  -0.156051  0  3.758348  0  0  -0.161387  0  3.768301  0  0  -0.060859  -0.152078  0  3.751307  0
C  C33  1  0.50541701  0.91078330  0.06393169  1  0  -0.144066  0  3.523189  0  0  -0.155846  0  3.757983  0  0  -0.161156  0  3.767884  0  0  -0.060821  -0.151863  0  3.750944  0
C  C34  1  0.53734419  0.09279939  0.82482615  1  0  0.756163  0  3.761417  0  0  0.723999  0  4.058537  0  0  0.764565  0  4.044446  0  0  0.264309  0.695405  0  4.067369  0
C  C35  1  0.46265891  0.90719977  0.17517473  1  0  0.756099  0  3.761756  0  0  0.72396  0  4.058867  0  0  0.764523  0  4.044778  0  0  0.264326  0.695348  0  4.067731  0
O  O36  1  0.48339663  0.74063225  0.70849849  1  0  -0.675548  0  1.485436  0  0  -0.684786  0  1.740944  0  0  -0.703319  0  1.728662  0  0  -0.748654  -0.674238  0  1.750971  0
O  O37  1  0.51659372  0.25935931  0.29150231  1  0  -0.675619  0  1.485128  0  0  -0.68484  0  1.740614  0  0  -0.703374  0  1.728331  0  0  -0.748567  -0.67429  0  1.750636  0
O  O38  1  0.30114849  0.47750951  0.91686213  1  0  -0.734215  0  1.569438  0  0  -0.737673  0  1.843427  0  0  -0.759842  0  1.826028  0  0  -0.739562  -0.723751  0  1.856858  0
O  O39  1  0.69884767  0.52249702  0.08313792  1  0  -0.734148  0  1.569389  0  0  -0.7376  0  1.843398  0  0  -0.759767  0  1.826008  0  0  -0.739545  -0.723681  0  1.856832  0
O  O40  1  0.05520941  0.03941799  0.65454239  1  0  -0.691593  0  1.461675  0  0  -0.70701  0  1.711367  0  0  -0.726803  0  1.6956  0  0  -0.757483  -0.695023  0  1.723877  0
O  O41  1  0.94478615  0.96058108  0.34546019  1  0  -0.691678  0  1.461752  0  0  -0.707016  0  1.711475  0  0  -0.726819  0  1.695694  0  0  -0.757488  -0.695021  0  1.723992  0
O  O42  1  0.01815290  0.26595688  0.83915970  1  0  -0.686136  0  1.521793  0  0  -0.705646  0  1.800153  0  0  -0.726055  0  1.785956  0  0  -0.75649  -0.693479  0  1.811317  0
O  O43  1  0.98185589  0.73403276  0.16084308  1  0  -0.686328  0  1.521585  0  0  -0.705778  0  1.799934  0  0  -0.7262  0  1.785725  0  0  -0.756496  -0.693609  0  1.811115  0
O  O44  1  0.58222344  0.43484424  0.73891430  1  0  -0.66172  0  2.040122  0  0  -0.661689  0  2.316445  0  0  -0.699979  0  2.311066  0  0  -0.362324  -0.633596  0  2.318859  0
O  O45  1  0.41776929  0.56515266  0.26108570  1  0  -0.661753  0  2.040111  0  0  -0.661677  0  2.316414  0  0  -0.699986  0  2.311074  0  0  -0.36229  -0.633583  0  2.318827  0
O  O46  1  0.79547399  0.31612499  0.64603769  1  0  -0.62226  0  2.062771  0  0  -0.61173  0  2.323948  0  0  -0.646173  0  2.315897  0  0  -0.346589  -0.586344  0  2.328354  0
O  O47  1  0.20452938  0.68388481  0.35396319  1  0  -0.622271  0  2.062756  0  0  -0.611726  0  2.323976  0  0  -0.646174  0  2.31592  0  0  -0.346533  -0.586334  0  2.328387  0
O  O48  1  0.18129208  0.52911094  0.69636563  1  0  -0.679258  0  2.035278  0  0  -0.680295  0  2.311804  0  0  -0.718474  0  2.30631  0  0  -0.3759  -0.651297  0  2.313776  0
O  O49  1  0.81870317  0.47089026  0.30363370  1  0  -0.679265  0  2.035346  0  0  -0.680275  0  2.311876  0  0  -0.718452  0  2.306381  0  0  -0.375871  -0.651278  0  2.313851  0
O  O50  1  0.19996075  0.34025431  0.62018020  1  0  -0.616533  0  2.006296  0  0  -0.599632  0  2.257391  0  0  -0.631607  0  2.249031  0  0  -0.33161  -0.576276  0  2.262318  0
O  O51  1  0.80004851  0.65974386  0.37981991  1  0  -0.616578  0  2.006338  0  0  -0.599663  0  2.257473  0  0  -0.631647  0  2.249112  0  0  -0.331614  -0.5763  0  2.262404  0
O  O52  1  0.34102273  0.77344084  0.91867197  1  0  -0.647897  0  2.028439  0  0  -0.631319  0  2.286932  0  0  -0.666451  0  2.280044  0  0  -0.348844  -0.605452  0  2.290669  0
O  O53  1  0.65898252  0.22656473  0.08132204  1  0  -0.647934  0  2.02847  0  0  -0.631352  0  2.286951  0  0  -0.666487  0  2.280061  0  0  -0.34887  -0.605491  0  2.290682  0
O  O54  1  0.09081171  0.94165451  0.87810088  1  0  -0.694794  0  2.100791  0  0  -0.660794  0  2.351119  0  0  -0.693555  0  2.34225  0  0  -0.337844  -0.636938  0  2.356249  0
O  O55  1  0.90918400  0.05834350  0.12190332  1  0  -0.694859  0  2.100841  0  0  -0.660843  0  2.351175  0  0  -0.693616  0  2.342308  0  0  -0.337873  -0.636986  0  2.356297  0
O  O56  1  0.38898108  0.11340188  0.76634823  1  0  -0.653573  0  2.033723  0  0  -0.645684  0  2.299203  0  0  -0.68137  0  2.291586  0  0  -0.352883  -0.618634  0  2.303279  0
O  O57  1  0.61102085  0.88659407  0.23365090  1  0  -0.653604  0  2.033787  0  0  -0.64566  0  2.29919  0  0  -0.681353  0  2.29157  0  0  -0.352854  -0.6186  0  2.303282  0
O  O58  1  0.71980818  0.07438815  0.79387602  1  0  -0.652617  0  2.057662  0  0  -0.641846  0  2.325353  0  0  -0.678247  0  2.316344  0  0  -0.369377  -0.614139  0  2.330036  0
O  O59  1  0.28019714  0.92561742  0.20612169  1  0  -0.652643  0  2.057783  0  0  -0.641864  0  2.325474  0  0  -0.678271  0  2.316463  0  0  -0.369367  -0.614144  0  2.330168  0
O  O60  1  0.02979106  0.73565253  0.78939342  1  0  -0.855307  0  1.912316  0  0  -0.816529  0  2.091968  0  0  -0.839413  0  2.062554  0  0  -0.559044  -0.799969  0  2.112344  0
O  O61  1  0.97020732  0.26434764  0.21060448  1  0  -0.855341  0  1.91227  0  0  -0.816551  0  2.091941  0  0  -0.839434  0  2.062525  0  0  -0.559031  -0.799996  0  2.112324  0
O  O62  1  0.70894663  0.59989724  0.88285493  1  0  -0.879971  0  1.846119  0  0  -0.852969  0  2.019971  0  0  -0.878516  0  1.985625  0  0  -0.617087  -0.833948  0  2.04382  0
O  O63  1  0.29105378  0.40009870  0.11714425  1  0  -0.880017  0  1.846069  0  0  -0.853014  0  2.019933  0  0  -0.878562  0  1.985585  0  0  -0.617093  -0.833993  0  2.043782  0
