# generated using pymatgen
data_Zn2H21C22I2N5O8
_symmetry_space_group_name_H-M   'P 1'
_cell_length_a   10.19330632
_cell_length_b   11.24843652
_cell_length_c   16.04733650
_cell_angle_alpha   86.95570217
_cell_angle_beta   81.56974399
_cell_angle_gamma   83.12767208
_symmetry_Int_Tables_number   1
_chemical_formula_structural   Zn2H21C22I2N5O8
_chemical_formula_sum   'Zn2 H21 C22 I2 N5 O8'
_cell_volume   1805.82475194
_cell_formula_units_Z   1
loop_
 _symmetry_equiv_pos_site_id
 _symmetry_equiv_pos_as_xyz
  1  'x, y, z'
loop_
 _atom_site_type_symbol
 _atom_site_label
 _atom_site_symmetry_multiplicity
 _atom_site_fract_x
 _atom_site_fract_y
 _atom_site_fract_z
 _atom_site_occupancy
 _atom_site_pbe_bader_charge
 _atom_site_pbe_bader_spin_density
 _atom_site_pbe_cm5_charge
 _atom_site_pbe_ddec_charge
 _atom_site_pbe_ddec_spin_density
 _atom_site_pbe_ddec_sum_bond_order
 _atom_site_pbe_magmom
Zn  Zn0  1  0.63957434  0.51400005  0.48848986  1  1.289474  0  0.664606  0.851845  0  2.425548  0
Zn  Zn1  1  0.36927860  0.49291507  0.50835215  1  1.292343  0  0.659843  0.864146  0  2.423065  0
H  H2  1  0.59877305  0.63601061  0.90305149  1  0.043948  0  0.097656  0.100175  0  0.97052  0
H  H3  1  0.70721252  0.50484653  0.04669638  1  0.040419  0  0.097981  0.101926  0  0.972749  0
H  H4  1  0.70330856  0.50041164  0.90026431  1  0.046672  0  0.097557  0.097442  0  0.981926  0
H  H5  1  0.40471312  0.11702885  0.50093173  1  0.063424  0  0.097945  0.088552  0  1.003367  0
H  H6  1  0.62433419  0.89596871  0.49035429  1  0.082847  0  0.098315  0.117345  0  1.018014  0
H  H7  1  0.70857539  0.10562512  0.49436000  1  0.065799  0  0.097571  0.119463  0  1.000848  0
H  H8  1  0.92171954  0.41386094  0.53715456  1  0.139173  0  0.147456  0.1204  0  0.930265  0
H  H9  1  0.85378162  0.62797838  0.43380817  1  0.440436  0  0.290155  0.261986  0  0.980584  0
H  H10  1  0.61116467  0.64584011  0.04698621  1  0.021047  0  0.095944  0.097312  0  0.974029  0
H  H11  1  0.13816106  0.40458236  0.55548823  1  0.426427  0  0.325298  0.306332  0  0.887896  0
H  H12  1  0.36679686  0.66160526  0.07066776  1  0.068714  0  0.098507  0.090701  0  0.9685  0
H  H13  1  0.34701411  0.64170479  0.92928078  1  0.040523  0  0.097517  0.106883  0  0.967705  0
H  H14  1  0.27671518  0.50495335  0.95274806  1  0.103662  0  0.092354  0.111758  0  1.014628  0
H  H15  1  0.59514869  0.31540036  0.07451149  1  0.060288  0  0.097254  0.108642  0  0.984021  0
H  H16  1  0.41826581  0.32367269  0.09302022  1  0.059853  0  0.092393  0.11133  0  1.000628  0
H  H17  1  0.39027967  0.27296718  0.88746181  1  0.42249  0  0.287727  0.284975  0  0.958259  0
H  H18  1  0.37553381  0.22084843  0.98662231  1  0.394381  0  0.284026  0.27215  0  0.969358  0
H  H19  1  0.22719276  0.84633861  0.52807663  1  0.475535  0  0.297958  0.297624  0  0.981675  0
H  H20  1  0.25527291  0.99524340  0.52940316  1  0.438263  0  0.311346  0.305578  0  0.940687  0
H  H21  1  0.70728130  0.31661557  0.92537258  1  0.376253  0  0.277935  0.268866  0  0.984696  0
H  H22  1  0.62846967  0.19686106  0.94164221  1  0.386774  0  0.278891  0.268429  0  0.97905  0
C  C23  1  0.45273450  0.73788898  0.50032094  1  1.577593  0  0.216173  0.562714  0  4.164687  0
C  C24  1  0.61034660  0.54606262  0.93311630  1  -0.049912  0  -0.154647  -0.185378  0  3.864795  0
C  C25  1  0.49014345  0.48179619  0.91829191  1  0.121809  0  0.007795  0.095694  0  3.821162  0
C  C26  1  0.50145555  0.35160788  0.95996894  1  0.691441  0  0.167992  0.41807  0  3.781747  0
C  C27  1  0.50287315  0.36369404  0.05634689  1  -0.076667  0  -0.158098  -0.302994  0  3.780352  0
C  C28  1  0.48374847  0.47884042  0.82857907  1  -0.478069  0  -0.026958  -0.01734  0  4.034649  0
C  C29  1  0.50349513  0.50180258  0.17003751  1  -0.546165  0  -0.039551  -0.053951  0  4.055193  0
C  C30  1  0.51349777  0.50588899  0.24433590  1  0.282223  0  -0.058267  -0.200466  0  3.972598  0
C  C31  1  0.42175583  0.87211824  0.50290897  1  0.417477  0  0.094032  0.168201  0  4.060813  0
C  C32  1  0.52376233  0.94294941  0.49670229  1  0.087912  0  -0.126305  -0.236246  0  4.04839  0
C  C33  1  0.60411677  0.14230873  0.49667178  1  0.011065  0  -0.11684  -0.275417  0  3.921069  0
C  C34  1  0.51474464  0.50909393  0.33429402  1  1.654643  0  0.218563  0.681704  0  4.224332  0
C  C35  1  0.50566913  0.07010179  0.49853271  1  -0.158875  0  -0.086327  0.005737  0  4.069842  0
C  C36  1  0.07382824  0.52747391  0.47777337  1  0.563468  0  0.129952  0.222916  0  3.912877  0
C  C37  1  0.93499173  0.49496443  0.49697258  1  0.737596  0  0.115792  0.143593  0  3.886801  0
C  C38  1  0.57547038  0.27325970  0.49765675  1  1.512045  0  0.197544  0.634844  0  4.192059  0
C  C39  1  0.47645510  0.49273317  0.66320476  1  1.671384  0  0.215805  0.679444  0  4.226832  0
C  C40  1  0.61481156  0.55275755  0.02836375  1  -3e-05  0  -0.152442  -0.19021  0  3.846879  0
C  C41  1  0.36775276  0.56777152  0.05532558  1  -0.139413  0  -0.083949  -0.007273  0  3.630612  0
C  C42  1  0.36043172  0.55330641  0.96143878  1  -0.040356  0  -0.162032  -0.222046  0  3.856328  0
C  C43  1  0.47776728  0.48420388  0.75335337  1  0.180639  0  -0.06055  -0.218799  0  3.974022  0
C  C44  1  0.49546941  0.49567261  0.08081050  1  0.112395  0  -0.002598  0.164949  0  3.9036  0
I  I45  1  0.10449461  0.66892266  0.38983007  1  0.26962  0  0.206706  0.09754  0  1.517613  0
I  I46  1  0.18540818  0.52075768  0.13428256  1  -0.026047  0  -0.013631  -0.141864  0  1.284319  0
N  N47  1  0.16859936  0.47172677  0.51366251  1  -1.168923  0  -0.434288  -0.406731  0  3.23289  0
N  N48  1  0.83282637  0.55327324  0.47152017  1  -1.183699  0  -0.428902  -0.342137  0  3.281388  0
N  N49  1  0.38361917  0.29617190  0.94879525  1  -1.144784  0  -0.624801  -0.676967  0  3.187353  0
N  N50  1  0.28832837  0.91101200  0.51096761  1  -1.275142  0  -0.590424  -0.587555  0  3.385263  0
N  N51  1  0.62198566  0.28247518  0.91661231  1  -1.096127  0  -0.638899  -0.708377  0  3.170635  0
O  O52  1  0.57348007  0.69485708  0.48067228  1  -1.172083  0  -0.314671  -0.534505  0  2.32934  0
O  O53  1  0.35282071  0.67790784  0.51840660  1  -1.173856  0  -0.322225  -0.559402  0  2.344207  0
O  O54  1  0.62696725  0.50605797  0.36032027  1  -1.144622  0  -0.317852  -0.540979  0  2.226896  0
O  O55  1  0.40040551  0.51475220  0.37948029  1  -1.153699  0  -0.320854  -0.562955  0  2.333957  0
O  O56  1  0.67519018  0.33322000  0.49796989  1  -1.163312  0  -0.339516  -0.56969  0  2.261695  0
O  O57  1  0.45430112  0.31992652  0.49774892  1  -1.178635  0  -0.336095  -0.581811  0  2.314497  0
O  O58  1  0.58386778  0.51860604  0.61830760  1  -1.154738  0  -0.318969  -0.555161  0  2.249338  0
O  O59  1  0.36872334  0.47467300  0.63666397  1  -1.1449  0  -0.326901  -0.551011  0  2.22477  0
