# generated using pymatgen
data_NiH10C10S(NO)6
_symmetry_space_group_name_H-M   'P 1'
_cell_length_a   8.79677247
_cell_length_b   11.23275942
_cell_length_c   14.23230000
_cell_angle_alpha   90.00000000
_cell_angle_beta   90.00000000
_cell_angle_gamma   92.84557865
_symmetry_Int_Tables_number   1
_chemical_formula_structural   NiH10C10S(NO)6
_chemical_formula_sum   'Ni4 H40 C40 S4 N24 O24'
_cell_volume   1404.58838789
_cell_formula_units_Z   4
loop_
 _symmetry_equiv_pos_site_id
 _symmetry_equiv_pos_as_xyz
  1  'x, y, z'
loop_
 _atom_site_type_symbol
 _atom_site_label
 _atom_site_symmetry_multiplicity
 _atom_site_fract_x
 _atom_site_fract_y
 _atom_site_fract_z
 _atom_site_occupancy
 _atom_site_pbe_bader_charge
 _atom_site_pbe_bader_spin_density
 _atom_site_pbe_cm5_charge
 _atom_site_pbe_ddec_charge
 _atom_site_pbe_ddec_spin_density
 _atom_site_pbe_ddec_sum_bond_order
 _atom_site_pbe_magmom
Ni  Ni0  1  0.91098904  0.77846161  0.74413131  1  1.059549  1.454845  0.605787  0.52743  1.725552  2.735144  1.442
Ni  Ni1  1  0.58906023  0.72153540  0.24412569  1  1.059263  1.453803  0.60557  0.527641  1.723977  2.733965  1.441
Ni  Ni2  1  0.08906093  0.22153758  0.25587502  1  1.059341  1.453612  0.605507  0.527459  1.723775  2.734175  1.441
Ni  Ni3  1  0.41098724  0.27846023  0.75586940  1  1.059491  -1.454747  0.605759  0.527403  -1.815914  2.734953  -1.442
H  H4  1  0.71926625  0.95428798  0.85128967  1  0.103851  0.002645  0.118668  0.097323  0.001084  1.023704  0.002
H  H5  1  0.78074514  0.54575717  0.35129951  1  0.103488  0.002698  0.118682  0.097427  0.001099  1.023841  0.002
H  H6  1  0.28074318  0.04575311  0.14870400  1  0.103461  0.002706  0.118701  0.097462  0.001114  1.02373  0.002
H  H7  1  0.21926809  0.45429016  0.64871173  1  0.103773  -0.002654  0.118649  0.097276  -0.001148  1.023701  -0.002
H  H8  1  0.70998213  0.02989596  0.01783830  1  0.12718  0.001235  0.111378  0.081647  0.000562  1.029602  0.001
H  H9  1  0.79001296  0.47011167  0.51783900  1  0.127055  0.001265  0.111353  0.081589  0.000607  1.029741  0.001
H  H10  1  0.29002197  0.97011483  0.98216241  1  0.126994  0.001304  0.111381  0.081654  0.00062  1.029674  0.001
H  H11  1  0.20997966  0.52989734  0.48216311  1  0.127147  -0.001265  0.111381  0.081636  -0.000649  1.029595  -0.001
H  H12  1  0.05192077  0.80468252  0.09095930  1  0.12612  0.001539  0.116497  0.099954  0.000683  1.01661  0.001
H  H13  1  0.44807280  0.69531003  0.59097967  1  0.12542  0.001563  0.116497  0.099912  0.000709  1.0165  0.001
H  H14  1  0.94807396  0.19530598  0.90901892  1  0.125448  0.001575  0.116509  0.099897  0.000741  1.016525  0.001
H  H15  1  0.55192005  0.30468471  0.40904211  1  0.126142  -0.0016  0.116501  0.099949  -0.000806  1.016638  -0.001
H  H16  1  0.00808711  0.60189186  0.93811050  1  0.150347  -0.000185  0.115193  0.152072  -0.000196  0.999662  0.0
H  H17  1  0.49186723  0.89810961  0.43813509  1  0.149936  -0.000115  0.115268  0.152134  -0.000104  0.999556  0.0
H  H18  1  0.99186743  0.39810823  0.06186210  1  0.149972  -0.000228  0.115231  0.152101  -0.00024  0.99959  0.0
H  H19  1  0.50808737  0.10189137  0.56188880  1  0.15034  0.000311  0.115179  0.152058  0.000277  0.999671  0.0
H  H20  1  0.17342810  0.68936204  0.96767634  1  0.139611  0.002686  0.111674  0.145548  0.001427  0.996475  0.002
H  H21  1  0.32653670  0.81062517  0.46769602  1  0.138937  0.002709  0.111628  0.145584  0.001441  0.99635  0.002
H  H22  1  0.82653570  0.31062290  0.03230539  1  0.138961  0.002613  0.11165  0.145642  0.001355  0.996274  0.002
H  H23  1  0.67342853  0.18936422  0.53232647  1  0.139626  -0.002587  0.111648  0.145491  -0.001408  0.996448  -0.002
H  H24  1  0.32385607  0.80967320  0.85870731  1  0.158728  0.001956  0.112296  0.149471  0.001079  1.024644  0.001
H  H25  1  0.17613341  0.69029083  0.35869325  1  0.158653  0.002002  0.112286  0.149394  0.001073  1.024633  0.001
H  H26  1  0.67613053  0.19029480  0.14130534  1  0.158693  0.001565  0.112252  0.149353  0.000675  1.024643  0.001
H  H27  1  0.82385838  0.30966915  0.64128918  1  0.158674  -0.001445  0.112241  0.149366  -0.000672  1.024684  -0.001
H  H28  1  0.34696769  0.77346291  0.73854542  1  0.140875  0.000189  0.115407  0.14931  9.5e-05  0.983765  0.0
H  H29  1  0.15302201  0.72654034  0.23853840  1  0.14105  0.000311  0.115417  0.14936  0.000128  0.98376  0.0
H  H30  1  0.65302487  0.22654520  0.26146301  1  0.141055  0.000206  0.115437  0.149386  5.1e-05  0.983718  0.0
H  H31  1  0.84696447  0.27346153  0.76145598  1  0.141047  -8.1e-05  0.115403  0.149286  -2.8e-05  0.983763  0.0
H  H32  1  0.91470186  0.03280622  0.65771449  1  0.156526  0.000228  0.119232  0.095894  -0.000565  1.048996  0.001
H  H33  1  0.58531415  0.46719070  0.15770887  1  0.156828  0.004388  0.119172  0.09582  0.002392  1.049034  0.002
H  H34  1  0.08531293  0.96719387  0.34229253  1  0.15689  0.004389  0.119155  0.095775  0.002389  1.049085  0.002
H  H35  1  0.41470263  0.53280493  0.84228551  1  0.156563  -0.000224  0.119185  0.095835  0.000494  1.049016  -0.001
H  H36  1  0.09487643  0.21500576  0.66408311  1  0.15958  -0.001022  0.124548  0.108026  -0.000382  1.016465  -0.001
H  H37  1  0.40519568  0.28497513  0.16415759  1  0.159883  0.002865  0.124504  0.107753  0.001232  1.016708  0.002
H  H38  1  0.90519748  0.78497651  0.33583890  1  0.159883  0.002844  0.1245  0.107784  0.001205  1.016696  0.002
H  H39  1  0.59487692  0.71500446  0.83591479  1  0.159615  0.000996  0.1245  0.107913  0.000322  1.016547  0.001
H  H40  1  0.41780938  0.01390510  0.79456026  1  0.129785  -0.001143  0.124078  0.103838  -0.000398  0.994434  -0.001
H  H41  1  0.08224641  0.48608737  0.29463755  1  0.129748  0.003726  0.124058  0.103715  0.001551  0.994361  0.002
H  H42  1  0.58224480  0.98608875  0.20536245  1  0.130091  0.003746  0.124041  0.103667  0.001569  0.994382  0.002
H  H43  1  0.91781214  0.51390380  0.70543904  1  0.129755  0.001168  0.124055  0.103832  0.000388  0.994435  0.001
C  C44  1  0.79038778  0.91933717  0.90635245  1  0.471648  -0.003894  0.052963  0.060659  -0.001765  3.901959  -0.003
C  C45  1  0.70961702  0.58069372  0.40636580  1  0.472185  -0.004079  0.052802  0.060371  -0.001864  3.902246  -0.003
C  C46  1  0.20961625  0.08069056  0.09363420  1  0.472193  -0.004207  0.052791  0.060356  -0.001941  3.902167  -0.003
C  C47  1  0.29039070  0.41933846  0.59364966  1  0.47142  0.004419  0.052982  0.060695  0.001806  3.901884  0.003
C  C48  1  0.78780964  0.96137245  0.99826943  1  0.575275  0.00628  0.047611  0.049541  0.003916  3.974214  0.005
C  C49  1  0.71219216  0.53864685  0.49827927  1  0.575677  0.006405  0.047794  0.049731  0.004007  3.974161  0.005
C  C50  1  0.21219366  0.03864369  0.00172144  1  0.575723  0.006216  0.047741  0.049638  0.003794  3.974276  0.005
C  C51  1  0.28780921  0.46137463  0.50173198  1  0.575517  -0.006197  0.047574  0.049538  -0.004024  3.974186  -0.005
C  C52  1  0.97322012  0.83698067  0.03882015  1  0.521375  0.004658  0.050196  0.005809  0.002836  3.915633  0.004
C  C53  1  0.52676906  0.66301902  0.53883701  1  0.521582  0.004815  0.050068  0.005681  0.002979  3.915567  0.004
C  C54  1  0.02677289  0.16301674  0.96116299  1  0.521358  0.004647  0.050018  0.005712  0.002843  3.915647  0.004
C  C55  1  0.47322077  0.33698197  0.46117985  1  0.521358  -0.004674  0.050178  0.005796  -0.003073  3.915598  -0.004
C  C56  1  0.97323729  0.78883339  0.94802808  1  0.510329  -0.000399  0.126179  0.235209  6.1e-05  3.906095  0.0
C  C57  1  0.52674894  0.71117343  0.44804424  1  0.510772  -0.00051  0.126284  0.235249  -3e-06  3.90626  0.0
C  C58  1  0.02675174  0.21117294  0.05195436  1  0.510763  -0.000419  0.126287  0.235241  3.5e-05  3.90622  0.0
C  C59  1  0.47323800  0.28883557  0.55197192  1  0.51028  0.000554  0.126187  0.235193  -0.000207  3.90608  0.0
C  C60  1  0.07038096  0.68763638  0.92412400  1  -0.13854  0.000558  -0.145756  -0.289764  0.000186  3.887535  -0.002
C  C61  1  0.42957759  0.81235974  0.42413735  1  -0.137474  0.000537  -0.145907  -0.290051  0.000169  3.887736  -0.002
C  C62  1  0.92958001  0.31235747  0.07586265  1  -0.137459  0.000246  -0.14586  -0.290077  -9.3e-05  3.887696  -0.002
C  C63  1  0.57037792  0.18763767  0.57587741  1  -0.138541  -0.000275  -0.145762  -0.289729  -0.000133  3.887416  0.002
C  C64  1  0.26387780  0.80096648  0.79103167  1  -0.186609  0.000755  -0.144238  -0.286755  0.000377  3.884671  -0.003
C  C65  1  0.23611298  0.69903589  0.29102464  1  -0.187562  0.002449  -0.14424  -0.286589  0.00147  3.885323  -0.002
C  C66  1  0.73611130  0.19904074  0.20897466  1  -0.187681  0.001532  -0.144204  -0.286466  0.000949  3.88511  -0.002
C  C67  1  0.76387771  0.30096064  0.70896552  1  -0.186864  0.000203  -0.144197  -0.286615  -3.6e-05  3.884543  0.003
C  C68  1  0.20679188  0.91747157  0.75923638  1  0.5922  -0.00324  0.137363  0.246238  -0.001834  3.914924  -0.002
C  C69  1  0.29323640  0.58253080  0.25927714  1  0.591655  0.005863  0.137427  0.245754  0.003868  3.914898  0.005
C  C70  1  0.79323228  0.08253298  0.24072005  1  0.591813  0.005805  0.13735  0.245598  0.003845  3.915041  0.005
C  C71  1  0.70679094  0.41747018  0.74076151  1  0.592143  0.003292  0.137375  0.246309  0.00159  3.914791  0.002
C  C72  1  0.02688434  0.03013662  0.68981331  1  0.491578  -0.009423  0.057677  0.067789  -0.005417  3.864323  -0.007
C  C73  1  0.47317014  0.46985317  0.18985758  1  0.490554  0.002719  0.057718  0.067758  0.002259  3.864366  0.002
C  C74  1  0.97316847  0.96985366  0.31014172  1  0.490254  0.002703  0.05782  0.067957  0.002251  3.864261  0.002
C  C75  1  0.52688705  0.53013444  0.81018739  1  0.49125  0.009399  0.057767  0.067832  0.005024  3.864294  0.007
C  C76  1  0.12657074  0.13003671  0.69283391  1  0.464319  0.008068  0.058124  0.05698  0.004202  3.859951  0.006
C  C77  1  0.37351132  0.36993972  0.19292033  1  0.465707  0.001526  0.057923  0.057269  0.001495  3.860276  0.002
C  C78  1  0.87350971  0.86994110  0.30707756  1  0.465813  0.00149  0.057857  0.057114  0.001477  3.860298  0.002
C  C79  1  0.62657350  0.63003542  0.80716539  1  0.464659  -0.008043  0.058111  0.057024  -0.004526  3.859903  -0.006
C  C80  1  0.30505455  0.01923360  0.76379995  1  0.530804  0.00775  0.066528  0.02522  0.004079  3.869419  0.006
C  C81  1  0.19500426  0.48075263  0.26388567  1  0.531049  -0.001234  0.066134  0.025329  -0.000264  3.869266  -0.001
C  C82  1  0.69500270  0.98075490  0.23611433  1  0.53058  -0.001201  0.066204  0.02547  -0.000238  3.869368  -0.001
C  C83  1  0.80505504  0.51923231  0.73619935  1  0.530845  -0.007626  0.066499  0.0251  -0.004326  3.869468  -0.006
S  S84  1  0.12125281  0.68047793  0.80084315  1  0.080083  0.127022  0.03574  0.110173  0.076261  3.082242  0.09
S  S85  1  0.37872164  0.81953602  0.30085510  1  0.080274  0.128633  0.035796  0.110103  0.077227  3.081769  0.091
S  S86  1  0.87872411  0.31953464  0.19914420  1  0.080321  0.128383  0.035832  0.110148  0.077121  3.081879  0.09
S  S87  1  0.62125221  0.18048190  0.69915614  1  0.080126  -0.126771  0.03573  0.110132  -0.080936  3.082351  -0.089
N  N88  1  0.88328007  0.83355164  0.88140287  1  -1.206838  0.07887  -0.312069  -0.223752  0.048562  3.557837  0.071
N  N89  1  0.61672002  0.66647657  0.38141762  1  -1.2069  0.078845  -0.31187  -0.223485  0.048535  3.557911  0.071
N  N90  1  0.11672044  0.16647430  0.11858097  1  -1.206912  0.078634  -0.311886  -0.223466  0.048413  3.557833  0.07
N  N91  1  0.38328049  0.33354937  0.61859713  1  -1.206853  -0.078976  -0.312089  -0.223751  -0.051339  3.557821  -0.071
N  N92  1  0.88138615  0.92238916  0.06434308  1  -1.176749  -0.005084  -0.301295  -0.209839  -0.003246  3.361019  -0.004
N  N93  1  0.61861219  0.57761142  0.56435502  1  -1.176965  -0.004737  -0.30152  -0.209979  -0.002951  3.361094  -0.004
N  N94  1  0.11861727  0.07761093  0.93564427  1  -1.176801  -0.004876  -0.301432  -0.209908  -0.00305  3.361199  -0.004
N  N95  1  0.38138577  0.42239223  0.43565903  1  -1.176736  0.004497  -0.301287  -0.20986  0.002572  3.360977  0.004
N  N96  1  0.26543473  0.12506029  0.73205174  1  -1.185821  -0.07799  -0.299964  -0.154248  -0.051173  3.558409  -0.07
N  N97  1  0.23460195  0.37497140  0.23204893  1  -1.186714  0.070186  -0.299793  -0.154586  0.043811  3.558863  0.064
N  N98  1  0.73460028  0.87497189  0.26794896  1  -1.186706  0.070146  -0.299773  -0.154588  0.043774  3.558776  0.064
N  N99  1  0.76543636  0.62505900  0.76794685  1  -1.185863  0.077935  -0.299961  -0.154205  0.04847  3.558497  0.07
N  N100  1  0.06578731  0.92402568  0.72415000  1  -1.195059  0.075346  -0.29937  -0.216236  0.046656  3.531663  0.067
N  N101  1  0.43416623  0.57598114  0.22409168  1  -1.194569  0.066227  -0.29924  -0.215936  0.040999  3.531532  0.059
N  N102  1  0.93416092  0.07598243  0.27590902  1  -1.194322  0.066132  -0.29924  -0.215947  0.040948  3.531653  0.059
N  N103  1  0.56578643  0.42402519  0.77584930  1  -1.194947  -0.075301  -0.299359  -0.216196  -0.049223  3.531738  -0.067
N  N104  1  0.04281469  0.71101299  0.55829908  1  0.823828  -0.001096  0.107047  0.704666  -0.000447  4.407272  -0.002
N  N105  1  0.45713056  0.78898848  0.05829768  1  0.824866  -0.001006  0.106814  0.704377  -0.00038  4.407373  -0.002
N  N106  1  0.95712320  0.28899334  0.44170373  1  0.824901  -0.001079  0.106735  0.704084  -0.000419  4.407873  -0.002
N  N107  1  0.54282608  0.21100893  0.94169811  1  0.82365  0.001213  0.107084  0.704735  0.000349  4.406774  0.002
N  N108  1  0.65624145  0.90231055  0.63491284  1  0.832958  0.000704  0.097258  0.700365  0.000506  4.433795  0.0
N  N109  1  0.84375581  0.59767309  0.13492057  1  0.832981  0.001877  0.097048  0.700036  0.001616  4.433832  0.001
N  N110  1  0.34375737  0.09767082  0.36508224  1  0.832914  0.001822  0.097108  0.699989  0.001585  4.433653  0.001
N  N111  1  0.15624096  0.40231185  0.86508927  1  0.832895  -0.000652  0.097239  0.700371  -0.00064  4.433737  0.0
O  O112  1  0.91979803  0.72041497  0.60656535  1  -0.550818  0.073536  -0.18843  -0.422075  0.044796  2.217837  0.069
O  O113  1  0.58015380  0.77962305  0.10656465  1  -0.552073  0.073649  -0.188405  -0.42229  0.044786  2.217821  0.069
O  O114  1  0.08015007  0.27962701  0.39343887  1  -0.551978  0.073498  -0.188388  -0.42217  0.044716  2.217882  0.069
O  O115  1  0.41980772  0.22041537  0.89343535  1  -0.550674  -0.073378  -0.188466  -0.422108  -0.047193  2.217725  -0.069
O  O116  1  0.17111251  0.72350618  0.59689509  1  -0.529931  -0.003061  -0.17595  -0.430586  -0.002134  1.999213  -0.003
O  O117  1  0.32882906  0.77645518  0.09688525  1  -0.529722  -0.003126  -0.175723  -0.43021  -0.00218  1.999162  -0.003
O  O118  1  0.82882403  0.27646093  0.40311475  1  -0.529846  -0.003707  -0.175656  -0.430029  -0.002482  1.999339  -0.003
O  O119  1  0.67112402  0.22350391  0.90310280  1  -0.529973  0.003692  -0.175928  -0.430592  0.002352  1.999068  0.003
O  O120  1  0.02886985  0.68741444  0.47203474  1  -0.538935  0.011196  -0.184807  -0.433063  0.006347  1.96508  0.01
O  O121  1  0.47108028  0.81259238  0.97203544  1  -0.538979  0.011257  -0.184874  -0.433157  0.006371  1.965352  0.01
O  O122  1  0.97107536  0.31259992  0.52796526  1  -0.539041  0.011107  -0.184835  -0.433064  0.006375  1.965499  0.01
O  O123  1  0.52888091  0.18740503  0.02796315  1  -0.538949  -0.010784  -0.18488  -0.433194  -0.006568  1.96497  -0.009
O  O124  1  0.70895457  0.86224070  0.71383121  1  -0.603138  0.065086  -0.209322  -0.470019  0.039728  2.199806  0.061
O  O125  1  0.79103190  0.63773403  0.21384527  1  -0.603193  0.065578  -0.209305  -0.470025  0.040044  2.200112  0.061
O  O126  1  0.29103931  0.13773443  0.28615544  1  -0.603106  0.065582  -0.209305  -0.469975  0.04004  2.199869  0.061
O  O127  1  0.20895164  0.36223932  0.78617019  1  -0.603067  -0.065091  -0.209291  -0.469996  -0.041924  2.199725  -0.061
O  O128  1  0.74437787  0.93377529  0.56984324  1  -0.495675  -0.000903  -0.173433  -0.405736  -0.000658  1.931896  0.0
O  O129  1  0.75562058  0.56620925  0.06985168  1  -0.495849  0.001321  -0.173363  -0.405662  0.000546  1.93208  0.001
O  O130  1  0.25561862  0.06620519  0.43014832  1  -0.495838  0.001354  -0.173362  -0.405614  0.000608  1.931997  0.001
O  O131  1  0.24437966  0.43377658  0.93015746  1  -0.495793  0.000939  -0.173473  -0.405772  0.000524  1.93194  0.0
O  O132  1  0.51418541  0.90933174  0.62907049  1  -0.538015  0.017902  -0.176392  -0.430592  0.0102  1.985155  0.015
O  O133  1  0.98580998  0.59065815  0.12907963  1  -0.537862  0.017695  -0.176324  -0.430392  0.009929  1.985058  0.015
O  O134  1  0.48581154  0.09065587  0.37092388  1  -0.537911  0.017577  -0.176361  -0.430405  0.009923  1.985107  0.015
O  O135  1  0.01418492  0.40933303  0.87093232  1  -0.53799  -0.017782  -0.176438  -0.430654  -0.010782  1.985172  -0.015
