# generated using pymatgen
data_Na3P8H45C20(NO4)8
_symmetry_space_group_name_H-M   'P 1'
_cell_length_a   8.91969491
_cell_length_b   11.32323089
_cell_length_c   12.55250392
_cell_angle_alpha   116.01770855
_cell_angle_beta   98.30008533
_cell_angle_gamma   100.68372671
_symmetry_Int_Tables_number   1
_chemical_formula_structural   Na3P8H45C20(NO4)8
_chemical_formula_sum   'Na3 P8 H45 C20 N8 O32'
_cell_volume   1082.39314907
_cell_formula_units_Z   1
loop_
 _symmetry_equiv_pos_site_id
 _symmetry_equiv_pos_as_xyz
  1  'x, y, z'
loop_
 _atom_site_type_symbol
 _atom_site_label
 _atom_site_symmetry_multiplicity
 _atom_site_fract_x
 _atom_site_fract_y
 _atom_site_fract_z
 _atom_site_occupancy
 _atom_site_hle17_bader_spin_density
 _atom_site_hle17_ddec_charge
 _atom_site_hle17_ddec_spin_density
 _atom_site_hle17_ddec_sum_bond_order
 _atom_site_hle17_magmom
 _atom_site_hse06_10hf_bader_spin_density
 _atom_site_hse06_10hf_ddec_charge
 _atom_site_hse06_10hf_ddec_spin_density
 _atom_site_hse06_10hf_ddec_sum_bond_order
 _atom_site_hse06_10hf_magmom
 _atom_site_hse06_bader_spin_density
 _atom_site_hse06_ddec_charge
 _atom_site_hse06_ddec_spin_density
 _atom_site_hse06_ddec_sum_bond_order
 _atom_site_hse06_magmom
 _atom_site_pbe_bader_spin_density
 _atom_site_pbe_cm5_charge
 _atom_site_pbe_ddec_charge
 _atom_site_pbe_ddec_spin_density
 _atom_site_pbe_ddec_sum_bond_order
 _atom_site_pbe_magmom
Na  Na0  1  0.50000025  0.49999985  0.50000081  1  0  0.909427  0  0.386299  0  0  0.87557  0  0.531849  0  0  0.883854  0  0.51228  0  0  0.677758  0.869163  0  0.546401  0
Na  Na1  1  0.60226925  0.14088447  0.01952837  1  0  0.916262  0  0.367208  0  0  0.882305  0  0.50726  0  0  0.890516  0  0.487845  0  0  0.684882  0.876273  0  0.521144  0
Na  Na2  1  0.39772979  0.85911420  0.98047348  1  0  0.916265  0  0.367217  0  0  0.882309  0  0.507273  0  0  0.890523  0  0.487847  0  0  0.684896  0.876275  0  0.521156  0
P  P3  1  0.81031394  0.87505353  0.84866105  1  0  1.434846  0  4.763024  0  0  1.266748  0  5.265164  0  0  1.315771  0  5.227845  0  0  0.373654  1.23251  0  5.290517  0
P  P4  1  0.18968657  0.12494616  0.15133977  1  0  1.434788  0  4.76308  0  0  1.266705  0  5.265212  0  0  1.315727  0  5.227892  0  0  0.373635  1.232469  0  5.290564  0
P  P5  1  0.77729628  0.57814247  0.78262170  1  0  1.413715  0  4.779582  0  0  1.252515  0  5.295701  0  0  1.302459  0  5.256977  0  0  0.356893  1.217709  0  5.322004  0
P  P6  1  0.22270340  0.42185824  0.21738103  1  0  1.413556  0  4.779662  0  0  1.252354  0  5.295773  0  0  1.302297  0  5.25705  0  0  0.356867  1.217549  0  5.322079  0
P  P7  1  0.23429422  0.65346387  0.66488076  1  0  1.452959  0  4.717358  0  0  1.292097  0  5.212119  0  0  1.340793  0  5.174289  0  0  0.372704  1.25812  0  5.237658  0
P  P8  1  0.76570548  0.34653682  0.33511957  1  0  1.453009  0  4.717318  0  0  1.292118  0  5.212086  0  0  1.340818  0  5.174258  0  0  0.372703  1.258145  0  5.237629  0
P  P9  1  0.35321090  0.95753333  0.73153957  1  0  1.408263  0  4.872688  0  0  1.253463  0  5.382234  0  0  1.303178  0  5.341994  0  0  0.332755  1.218686  0  5.409923  0
P  P10  1  0.64678959  0.04246637  0.26846365  1  0  1.408385  0  4.872742  0  0  1.253512  0  5.382334  0  0  1.303233  0  5.342094  0  0  0.332731  1.218733  0  5.410022  0
H  H11  1  0.88350402  0.05619302  0.03388163  1  0  0.438624  0  0.871895  0  0  0.404477  0  0.940239  0  0  0.415869  0  0.924129  0  0  0.309919  0.396473  0  0.951585  0
H  H12  1  0.11649616  0.94380565  0.96611956  1  0  0.438667  0  0.871827  0  0  0.40449  0  0.940223  0  0  0.415883  0  0.924114  0  0  0.30992  0.396486  0  0.951569  0
H  H13  1  0.57259962  0.41798357  0.74820094  1  0  0.427991  0  0.798545  0  0  0.415837  0  0.844461  0  0  0.423949  0  0.835584  0  0  0.350002  0.40999  0  0.85097  0
H  H14  1  0.42739944  0.58201509  0.25179932  1  0  0.428017  0  0.798508  0  0  0.41586  0  0.844423  0  0  0.423973  0  0.835546  0  0  0.35002  0.410015  0  0.850931  0
H  H15  1  0.09485284  0.65863680  0.80204182  1  0  0.448777  0  0.85044  0  0  0.414603  0  0.918462  0  0  0.426349  0  0.90156  0  0  0.314295  0.406438  0  0.930244  0
H  H16  1  0.90514703  0.34136084  0.19795734  1  0  0.448854  0  0.850322  0  0  0.414626  0  0.918427  0  0  0.426371  0  0.901527  0  0  0.314296  0.406461  0  0.93021  0
H  H17  1  0.00000091  0.49999936  0.50000003  1  0  0.463846  0  0.845763  0  0  0.420782  0  0.927282  0  0  0.434026  0  0.908768  0  0  0.306026  0.411507  0  0.940213  0
H  H18  1  0.57758457  0.90483690  0.69851726  1  0  0.442465  0  0.860387  0  0  0.408755  0  0.927012  0  0  0.420425  0  0.91049  0  0  0.310925  0.400531  0  0.93864  0
H  H19  1  0.42241479  0.09516279  0.30148503  1  0  0.442487  0  0.860356  0  0  0.40877  0  0.92699  0  0  0.420444  0  0.910464  0  0  0.310946  0.400547  0  0.938617  0
H  H20  1  0.51066863  0.68821629  0.79001570  1  0  0.389469  0  0.924494  0  0  0.360856  0  1.000538  0  0  0.371787  0  0.984725  0  0  0.29973  0.353192  0  1.010903  0
H  H21  1  0.48933156  0.31178238  0.20998549  1  0  0.389461  0  0.924491  0  0  0.360852  0  1.000542  0  0  0.37178  0  0.984732  0  0  0.299731  0.353187  0  1.010895  0
H  H22  1  0.03527384  0.83421097  0.72498854  1  0  0.382233  0  0.912635  0  0  0.357294  0  0.983748  0  0  0.367522  0  0.972352  0  0  0.299305  0.349986  0  0.991931  0
H  H23  1  0.96472521  0.16578769  0.27501172  1  0  0.382218  0  0.912642  0  0  0.35728  0  0.983753  0  0  0.367509  0  0.972355  0  0  0.299312  0.349972  0  0.991938  0
H  H24  1  0.94334448  0.84150597  0.04088697  1  0  0.100349  0  0.939009  0  0  0.112548  0  1.00404  0  0  0.11401  0  1.002938  0  0  0.126217  0.111435  0  1.00482  0
H  H25  1  0.05665489  0.15849371  0.95911373  1  0  0.100359  0  0.939022  0  0  0.112557  0  1.004051  0  0  0.114019  0  1.002949  0  0  0.126219  0.111443  0  1.004831  0
H  H26  1  0.76574241  0.87498066  0.08022217  1  0  0.122526  0  0.940101  0  0  0.132091  0  1.005601  0  0  0.134508  0  1.003662  0  0  0.130019  0.130238  0  1.007057  0
H  H27  1  0.23425810  0.12501903  0.91977865  1  0  0.12252  0  0.940152  0  0  0.132047  0  1.005683  0  0  0.134464  0  1.003745  0  0  0.130015  0.130195  0  1.007136  0
H  H28  1  0.04508057  0.67898823  0.08397573  1  0  0.120779  0  0.949659  0  0  0.127653  0  1.016455  0  0  0.131343  0  1.011992  0  0  0.145517  0.124109  0  1.020966  0
H  H29  1  0.95491994  0.32101146  0.91602509  1  0  0.12077  0  0.949646  0  0  0.127646  0  1.01644  0  0  0.131334  0  1.011985  0  0  0.145525  0.124101  0  1.020954  0
H  H30  1  0.94559457  0.50196087  0.15141402  1  0  0.330615  0  0.930888  0  0  0.304819  0  0.995897  0  0  0.314221  0  0.988611  0  0  0.313802  0.298163  0  1.001106  0
H  H31  1  0.05440368  0.49803880  0.84858576  1  0  0.330602  0  0.930895  0  0  0.304805  0  0.995907  0  0  0.314207  0  0.988621  0  0  0.313795  0.298149  0  1.001115  0
H  H32  1  0.65000672  0.47768307  0.15495893  1  0  0.126693  0  0.965354  0  0  0.131932  0  1.030874  0  0  0.135806  0  1.028046  0  0  0.132853  0.128886  0  1.033239  0
H  H33  1  0.34999348  0.52231560  0.84504146  1  0  0.126692  0  0.965388  0  0  0.131953  0  1.03088  0  0  0.135828  0  1.02805  0  0  0.132849  0.128891  0  1.033262  0
H  H34  1  0.56539563  0.66206054  0.08084644  1  0  0.129603  0  0.951834  0  0  0.136029  0  1.017053  0  0  0.139241  0  1.014862  0  0  0.135143  0.132471  0  1.020804  0
H  H35  1  0.43460407  0.33794016  0.91915389  1  0  0.129599  0  0.951908  0  0  0.136024  0  1.017121  0  0  0.139235  0  1.014928  0  0  0.135137  0.132467  0  1.020872  0
H  H36  1  0.31349368  0.73656362  0.47883084  1  0  0.107063  0  0.911677  0  0  0.121234  0  0.971441  0  0  0.123108  0  0.969662  0  0  0.128819  0.119765  0  0.972879  0
H  H37  1  0.68650666  0.26343913  0.52117116  1  0  0.107079  0  0.911626  0  0  0.121244  0  0.971419  0  0  0.123122  0  0.969637  0  0  0.128814  0.119775  0  0.972857  0
H  H38  1  0.11881375  0.63152216  0.43762968  1  0  0.107338  0  0.944503  0  0  0.115809  0  1.013521  0  0  0.11782  0  1.011848  0  0  0.121828  0.114304  0  1.014767  0
H  H39  1  0.88118854  0.36847958  0.56237134  1  0  0.107331  0  0.944477  0  0  0.115829  0  1.013486  0  0  0.117842  0  1.011812  0  0  0.121826  0.114322  0  1.014732  0
H  H40  1  0.86460617  0.91608964  0.33078181  1  0  0.344711  0  0.92363  0  0  0.316459  0  0.993923  0  0  0.326636  0  0.985766  0  0  0.305613  0.30941  0  0.999422  0
H  H41  1  0.13539352  0.08391107  0.66922011  1  0  0.344765  0  0.923644  0  0  0.316549  0  0.993865  0  0  0.326727  0  0.985706  0  0  0.305631  0.309501  0  0.999364  0
H  H42  1  0.35052809  0.92743734  0.42767801  1  0  0.13704  0  0.937571  0  0  0.146549  0  0.993865  0  0  0.149853  0  0.991576  0  0  0.132588  0.144185  0  0.995602  0
H  H43  1  0.64947370  0.07256644  0.57232455  1  0  0.137068  0  0.937548  0  0  0.146577  0  0.99384  0  0  0.14988  0  0.991551  0  0  0.132599  0.144212  0  0.995579  0
H  H44  1  0.14263780  0.02806307  0.32649835  1  0  0.12899  0  0.988241  0  0  0.134843  0  1.048678  0  0  0.138699  0  1.046336  0  0  0.127925  0.132099  0  1.050379  0
H  H45  1  0.85736221  0.97193866  0.67350402  1  0  0.128968  0  0.988278  0  0  0.134861  0  1.04867  0  0  0.138719  0  1.046325  0  0  0.12793  0.132118  0  1.05037  0
H  H46  1  0.88278553  0.75649275  0.42755234  1  0  0.12299  0  0.964567  0  0  0.129368  0  1.031241  0  0  0.133333  0  1.026291  0  0  0.142917  0.126302  0  1.034966  0
H  H47  1  0.11721529  0.24350797  0.57244971  1  0  0.122996  0  0.96458  0  0  0.129335  0  1.031279  0  0  0.133301  0  1.026326  0  0  0.142908  0.126275  0  1.035001  0
H  H48  1  0.76637967  0.61815559  0.48135779  1  0  0.412147  0  0.883293  0  0  0.383339  0  0.952658  0  0  0.392532  0  0.938916  0  0  0.287465  0.376815  0  0.9624  0
H  H49  1  0.23362392  0.38184310  0.51864377  1  0  0.412147  0  0.883404  0  0  0.383347  0  0.952674  0  0  0.392538  0  0.938935  0  0  0.287443  0.376822  0  0.962417  0
H  H50  1  0.70961877  0.73614107  0.57032909  1  0  0.42557  0  0.873468  0  0  0.397949  0  0.931869  0  0  0.407552  0  0.917885  0  0  0.288382  0.391122  0  0.941831  0
H  H51  1  0.29038318  0.26385967  0.42967468  1  0  0.425654  0  0.873334  0  0  0.397988  0  0.931829  0  0  0.407594  0  0.91784  0  0  0.288401  0.391159  0  0.941799  0
H  H52  1  0.68378279  0.31648610  0.86397221  1  0  0.414748  0  0.874907  0  0  0.389243  0  0.933107  0  0  0.397995  0  0.92022  0  0  0.293251  0.383024  0  0.942403  0
H  H53  1  0.31621657  0.68351359  0.13603088  1  0  0.414755  0  0.874962  0  0  0.389249  0  0.93311  0  0  0.398002  0  0.92022  0  0  0.293254  0.383029  0  0.942406  0
H  H54  1  0.64290867  0.15813098  0.80733973  1  0  0.410964  0  0.873546  0  0  0.382338  0  0.945795  0  0  0.391797  0  0.931692  0  0  0.298561  0.375785  0  0.95556  0
H  H55  1  0.35709004  0.84186667  0.19266248  1  0  0.410963  0  0.873566  0  0  0.382334  0  0.945808  0  0  0.391789  0  0.931712  0  0  0.298565  0.375781  0  0.955574  0
C  C56  1  0.73332395  0.73840980  0.88888775  1  0  -0.229022  0  3.675511  0  0  -0.190644  0  3.932499  0  0  -0.199363  0  3.943145  0  0  0.055525  -0.185165  0  3.925708  0
C  C57  1  0.26667315  0.26158986  0.11111349  1  0  -0.228776  0  3.675269  0  0  -0.190452  0  3.93233  0  0  -0.199158  0  3.942941  0  0  0.055556  -0.184977  0  3.925544  0
C  C58  1  0.81731630  0.79569872  0.02419247  1  0  -0.038211  0  3.631594  0  0  -0.107697  0  3.878933  0  0  -0.103265  0  3.889539  0  0  -0.04731  -0.110287  0  3.871641  0
C  C59  1  0.18268453  0.20430199  0.97580879  1  0  -0.03834  0  3.631706  0  0  -0.107765  0  3.87903  0  0  -0.103335  0  3.889634  0  0  -0.047347  -0.11035  0  3.871732  0
C  C60  1  0.92603809  0.64679080  0.09148017  1  0  0.187937  0  3.555355  0  0  0.114003  0  3.826282  0  0  0.129322  0  3.835988  0  0  0.16913  0.104324  0  3.820917  0
C  C61  1  0.07396212  0.35320786  0.90851862  1  0  0.188015  0  3.555287  0  0  0.114077  0  3.826226  0  0  0.129394  0  3.835931  0  0  0.169152  0.104398  0  3.82086  0
C  C62  1  0.71744982  0.54683579  0.12967722  1  0  0.003783  0  3.640401  0  0  -0.036833  0  3.909011  0  0  -0.035819  0  3.926698  0  0  0.017332  -0.037488  0  3.897355  0
C  C63  1  0.28254841  0.45316388  0.87032335  1  0  0.003776  0  3.640589  0  0  -0.036854  0  3.909162  0  0  -0.035841  0  3.926852  0  0  0.017349  -0.037492  0  3.897511  0
C  C64  1  0.67454665  0.63498044  0.09173159  1  0  -0.011373  0  3.606649  0  0  -0.058225  0  3.874992  0  0  -0.055307  0  3.892322  0  0  0.025684  -0.059674  0  3.864376  0
C  C65  1  0.32545355  0.36501822  0.90826880  1  0  -0.011372  0  3.606764  0  0  -0.058218  0  3.875098  0  0  -0.055301  0  3.892433  0  0  0.025696  -0.059667  0  3.864475  0
C  C66  1  0.19760565  0.78921149  0.62817085  1  0  -0.246043  0  3.676142  0  0  -0.206678  0  3.929393  0  0  -0.215653  0  3.940324  0  0  0.054975  -0.201028  0  3.922666  0
C  C67  1  0.80239454  0.21078717  0.37182954  1  0  -0.246413  0  3.676733  0  0  -0.206965  0  3.929914  0  0  -0.215968  0  3.940899  0  0  0.054972  -0.201312  0  3.923181  0
C  C68  1  0.19493613  0.73669715  0.49179499  1  0  -0.027209  0  3.626419  0  0  -0.099632  0  3.880955  0  0  -0.094737  0  3.890536  0  0  -0.04579  -0.102717  0  3.874566  0
C  C69  1  0.80506503  0.26330458  0.50820590  1  0  -0.027118  0  3.626389  0  0  -0.099588  0  3.880949  0  0  -0.094696  0  3.890539  0  0  -0.045772  -0.102672  0  3.874555  0
C  C70  1  0.22355236  0.90631006  0.41052238  1  0  -0.047384  0  3.635911  0  0  -0.0909  0  3.901307  0  0  -0.089176  0  3.918922  0  0  0.013178  -0.092128  0  3.889549  0
C  C71  1  0.77645024  0.09369272  0.58948146  1  0  -0.047384  0  3.635854  0  0  -0.090893  0  3.901268  0  0  -0.089167  0  3.91888  0  0  0.0132  -0.092121  0  3.889507  0
C  C72  1  0.12069100  0.95559823  0.36079589  1  0  0.008865  0  3.667514  0  0  -0.034579  0  3.940739  0  0  -0.032858  0  3.958427  0  0  0.009783  -0.035758  0  3.928917  0
C  C73  1  0.87931192  0.04440557  0.63920759  1  0  0.008917  0  3.66751  0  0  -0.034587  0  3.940764  0  0  -0.032866  0  3.958449  0  0  0.009788  -0.035767  0  3.928944  0
C  C74  1  0.98101139  0.81335305  0.41087605  1  0  0.195595  0  3.528185  0  0  0.12403  0  3.795439  0  0  0.139748  0  3.804507  0  0  0.166005  0.114007  0  3.78905  0
C  C75  1  0.01898881  0.18664561  0.58912354  1  0  0.195588  0  3.528274  0  0  0.124093  0  3.79547  0  0  0.139812  0  3.804535  0  0  0.166024  0.114062  0  3.789088  0
N  N76  1  0.80598174  0.69530754  0.06803341  1  0  -0.03132  0  3.550063  0  0  0.061918  0  3.769765  0  0  0.047623  0  3.795201  0  0  -0.227584  0.071196  0  3.752227  0
N  N77  1  0.19401846  0.30469112  0.93196618  1  0  -0.031313  0  3.550105  0  0  0.06192  0  3.769801  0  0  0.047626  0  3.795235  0  0  -0.227589  0.071197  0  3.752263  0
N  N78  1  0.87416751  0.55677082  0.12902655  1  0  -0.266692  0  3.433615  0  0  -0.198786  0  3.67629  0  0  -0.214762  0  3.691565  0  0  -0.360955  -0.188456  0  3.666402  0
N  N79  1  0.12583219  0.44322988  0.87097458  1  0  -0.266701  0  3.433694  0  0  -0.198797  0  3.676379  0  0  -0.214772  0  3.691655  0  0  -0.360978  -0.188467  0  3.666483  0
N  N80  1  0.13419632  0.81740620  0.44071732  1  0  -0.037866  0  3.536194  0  0  0.055067  0  3.759104  0  0  0.040847  0  3.784011  0  0  -0.229723  0.064386  0  3.742136  0
N  N81  1  0.86580432  0.18259758  0.55928591  1  0  -0.037817  0  3.536069  0  0  0.05511  0  3.758993  0  0  0.04089  0  3.783899  0  0  -0.229718  0.064429  0  3.742024  0
N  N82  1  0.97179279  0.89641899  0.36204483  1  0  -0.287774  0  3.445695  0  0  -0.218822  0  3.687984  0  0  -0.235935  0  3.70463  0  0  -0.360473  -0.207405  0  3.676445  0
N  N83  1  0.02820755  0.10358375  0.63795637  1  0  -0.287942  0  3.445883  0  0  -0.219003  0  3.688143  0  0  -0.236115  0  3.704785  0  0  -0.36054  -0.207588  0  3.67661  0
O  O84  1  0.98494659  0.88399813  0.85461587  1  0  -0.839383  0  2.045905  0  0  -0.75368  0  2.287572  0  0  -0.779541  0  2.269671  0  0  -0.35687  -0.735333  0  2.299927  0
O  O85  1  0.01505279  0.11600155  0.14538403  1  0  -0.839348  0  2.045894  0  0  -0.753667  0  2.287544  0  0  -0.779529  0  2.269645  0  0  -0.356874  -0.735321  0  2.299899  0
O  O86  1  0.79425634  0.01333312  0.95331312  1  0  -0.773372  0  2.026528  0  0  -0.705067  0  2.270624  0  0  -0.724855  0  2.244484  0  0  -0.422433  -0.69104  0  2.288585  0
O  O87  1  0.20574303  0.98666656  0.04668838  1  0  -0.773396  0  2.026536  0  0  -0.705065  0  2.270627  0  0  -0.724856  0  2.244483  0  0  -0.422448  -0.691047  0  2.28861  0
O  O88  1  0.71097471  0.84695384  0.72783109  1  0  -0.810805  0  2.027588  0  0  -0.722194  0  2.258584  0  0  -0.748957  0  2.241505  0  0  -0.339233  -0.703299  0  2.270167  0
O  O89  1  0.28902466  0.15304584  0.27216961  1  0  -0.81081  0  2.027682  0  0  -0.722169  0  2.258678  0  0  -0.748939  0  2.2416  0  0  -0.339178  -0.70327  0  2.270261  0
O  O90  1  0.71558264  0.54352429  0.65269481  1  0  -0.851064  0  1.916788  0  0  -0.793596  0  2.186065  0  0  -0.816767  0  2.166714  0  0  -0.43016  -0.777086  0  2.199174  0
O  O91  1  0.28441963  0.45647747  0.34730861  1  0  -0.850985  0  1.916792  0  0  -0.79351  0  2.186056  0  0  -0.816679  0  2.166701  0  0  -0.430115  -0.776999  0  2.199166  0
O  O92  1  0.94982338  0.59047026  0.83052233  1  0  -0.821542  0  2.012887  0  0  -0.740676  0  2.257339  0  0  -0.766468  0  2.239525  0  0  -0.360755  -0.72268  0  2.269447  0
O  O93  1  0.05017713  0.40952943  0.16947849  1  0  -0.821525  0  2.01291  0  0  -0.740616  0  2.257355  0  0  -0.76641  0  2.239546  0  0  -0.360748  -0.722622  0  2.269465  0
O  O94  1  0.67632715  0.45828967  0.80679594  1  0  -0.735861  0  1.972016  0  0  -0.668849  0  2.185066  0  0  -0.687515  0  2.16445  0  0  -0.390532  -0.655599  0  2.199283  0
O  O95  1  0.32367190  0.54170899  0.19320512  1  0  -0.735889  0  1.972028  0  0  -0.668877  0  2.185084  0  0  -0.687542  0  2.164469  0  0  -0.390567  -0.655626  0  2.1993  0
O  O96  1  0.40210762  0.64859684  0.66675878  1  0  -0.841401  0  1.984431  0  0  -0.772774  0  2.239705  0  0  -0.796369  0  2.22049  0  0  -0.397834  -0.755954  0  2.252631  0
O  O97  1  0.59789321  0.35140387  0.33324328  1  0  -0.841382  0  1.984398  0  0  -0.772775  0  2.239715  0  0  -0.796355  0  2.220473  0  0  -0.397844  -0.755956  0  2.252639  0
O  O98  1  0.20695211  0.69493541  0.79794376  1  0  -0.784553  0  2.039407  0  0  -0.713184  0  2.279013  0  0  -0.733161  0  2.252497  0  0  -0.441076  -0.699068  0  2.296916  0
O  O99  1  0.79304695  0.30506324  0.20205650  1  0  -0.784621  0  2.039298  0  0  -0.713253  0  2.279004  0  0  -0.733227  0  2.252485  0  0  -0.441106  -0.699125  0  2.296878  0
O  O100  1  0.11114274  0.51547231  0.57542309  1  0  -0.796895  0  2.036974  0  0  -0.709224  0  2.273714  0  0  -0.733994  0  2.251415  0  0  -0.361458  -0.691663  0  2.288841  0
O  O101  1  0.88886006  0.48452739  0.42457559  1  0  -0.796919  0  2.03693  0  0  -0.709189  0  2.273628  0  0  -0.733957  0  2.251328  0  0  -0.36147  -0.691637  0  2.288762  0
O  O102  1  0.39850101  0.97202760  0.85848484  1  0  -0.935552  0  1.916426  0  0  -0.878123  0  2.191077  0  0  -0.899237  0  2.16795  0  0  -0.508682  -0.863005  0  2.207009  0
O  O103  1  0.60149480  0.02796798  0.14151706  1  0  -0.935583  0  1.91641  0  0  -0.878145  0  2.191089  0  0  -0.899262  0  2.167958  0  0  -0.508661  -0.863025  0  2.207015  0
O  O104  1  0.50310446  0.95269080  0.67383293  1  0  -0.763441  0  2.007281  0  0  -0.687999  0  2.229438  0  0  -0.709829  0  2.204469  0  0  -0.391008  -0.672471  0  2.246386  0
O  O105  1  0.49689522  0.04730990  0.32616900  1  0  -0.763466  0  2.007236  0  0  -0.688009  0  2.229435  0  0  -0.709824  0  2.204426  0  0  -0.391032  -0.672487  0  2.246396  0
O  O106  1  0.29083638  0.06793305  0.71987817  1  0  -0.82471  0  1.956356  0  0  -0.757355  0  2.205384  0  0  -0.782084  0  2.188738  0  0  -0.38422  -0.739659  0  2.216419  0
O  O107  1  0.70916153  0.93206560  0.28012356  1  0  -0.824726  0  1.95634  0  0  -0.757316  0  2.205382  0  0  -0.782049  0  2.188736  0  0  -0.384217  -0.739619  0  2.216415  0
O  O108  1  0.56781796  0.71377635  0.87729110  1  0  -0.574837  0  2.122692  0  0  -0.538668  0  2.356433  0  0  -0.552484  0  2.343139  0  0  -0.419203  -0.528503  0  2.364806  0
O  O109  1  0.43217995  0.28622230  0.12270984  1  0  -0.57491  0  2.122548  0  0  -0.538708  0  2.356285  0  0  -0.552549  0  2.343037  0  0  -0.419218  -0.528545  0  2.364654  0
O  O110  1  0.04498467  0.80331525  0.63885305  1  0  -0.510436  0  2.139805  0  0  -0.471578  0  2.367269  0  0  -0.486198  0  2.360217  0  0  -0.383011  -0.461099  0  2.37205  0
O  O111  1  0.95501520  0.19668239  0.36114690  1  0  -0.510316  0  2.139957  0  0  -0.47145  0  2.367374  0  0  -0.486066  0  2.360333  0  0  -0.383013  -0.460974  0  2.372156  0
O  O112  1  0.69197614  0.67252871  0.48213630  1  0  -0.857454  0  1.734702  0  0  -0.820125  0  1.891671  0  0  -0.835774  0  1.862754  0  0  -0.648874  -0.808852  0  1.912102  0
O  O113  1  0.30802663  0.32747101  0.51786637  1  0  -0.85751  0  1.734701  0  0  -0.820174  0  1.891592  0  0  -0.835823  0  1.862674  0  0  -0.648862  -0.808905  0  1.912029  0
O  O114  1  0.68997467  0.24345830  0.88500738  1  0  -0.836355  0  1.760736  0  0  -0.798515  0  1.920755  0  0  -0.813499  0  1.892533  0  0  -0.612292  -0.786903  0  1.941146  0
O  O115  1  0.31002324  0.75654035  0.11499435  1  0  -0.836342  0  1.760799  0  0  -0.798498  0  1.920755  0  0  -0.813486  0  1.892523  0  0  -0.612292  -0.786883  0  1.941141  0
