# generated using pymatgen
data_KTbH3C7O9
_symmetry_space_group_name_H-M   'P 1'
_cell_length_a   6.70552117
_cell_length_b   7.54925984
_cell_length_c   10.98199734
_cell_angle_alpha   99.47565144
_cell_angle_beta   103.72334350
_cell_angle_gamma   107.61099039
_symmetry_Int_Tables_number   1
_chemical_formula_structural   KTbH3C7O9
_chemical_formula_sum   'K2 Tb2 H6 C14 O18'
_cell_volume   497.68616494
_cell_formula_units_Z   2
loop_
 _symmetry_equiv_pos_site_id
 _symmetry_equiv_pos_as_xyz
  1  'x, y, z'
loop_
 _atom_site_type_symbol
 _atom_site_label
 _atom_site_symmetry_multiplicity
 _atom_site_fract_x
 _atom_site_fract_y
 _atom_site_fract_z
 _atom_site_occupancy
 _atom_site_hle17_bader_spin_density
 _atom_site_hle17_ddec_charge
 _atom_site_hle17_ddec_spin_density
 _atom_site_hle17_ddec_sum_bond_order
 _atom_site_hle17_magmom
 _atom_site_hse06_10hf_bader_spin_density
 _atom_site_hse06_10hf_ddec_charge
 _atom_site_hse06_10hf_ddec_spin_density
 _atom_site_hse06_10hf_ddec_sum_bond_order
 _atom_site_hse06_10hf_magmom
 _atom_site_hse06_bader_spin_density
 _atom_site_hse06_ddec_charge
 _atom_site_hse06_ddec_spin_density
 _atom_site_hse06_ddec_sum_bond_order
 _atom_site_hse06_magmom
 _atom_site_pbe_bader_spin_density
 _atom_site_pbe_cm5_charge
 _atom_site_pbe_ddec_charge
 _atom_site_pbe_ddec_spin_density
 _atom_site_pbe_ddec_sum_bond_order
 _atom_site_pbe_magmom
K  K0  1  0.63112765  0.37297607  0.89648299  1  0  0.958837  0  0.387171  0  0  0.906099  0  0.557087  0  0  0.924059  0  0.533403  0  0  0.763457  0.893336  0  0.574433  0
K  K1  1  0.36891668  0.62703210  0.10351488  1  0  0.958834  0  0.387182  0  0  0.90614  0  0.55701  0  0  0.92406  0  0.533407  0  0  0.763453  0.893393  0  0.574351  0
Tb  Tb2  1  0.36209407  0.15203247  0.25686651  1  0  2.174703  0  1.805288  0  0  2.10507  0  2.127631  0  0  2.228588  0  1.942191  0  0  1.502301  2.069468  0  2.159141  0
Tb  Tb3  1  0.63790558  0.84796400  0.74313442  1  0  2.174689  0  1.805224  0  0  2.105071  0  2.12754  0  0  2.228578  0  1.942117  0  0  1.50228  2.069457  0  2.159044  0
H  H4  1  0.93687371  0.78251473  0.43473942  1  0  0.121299  0  0.918355  0  0  0.134445  0  0.970957  0  0  0.138596  0  0.968168  0  0  0.12126  0.131604  0  0.972563  0
H  H5  1  0.06312792  0.21749039  0.56526009  1  0  0.121291  0  0.918306  0  0  0.13442  0  0.97093  0  0  0.13857  0  0.968143  0  0  0.121238  0.131577  0  0.972534  0
H  H6  1  0.86630672  0.23742405  0.72597220  1  0  0.429731  0  0.881808  0  0  0.39662  0  0.95051  0  0  0.407947  0  0.934349  0  0  0.29348  0.388695  0  0.961927  0
H  H7  1  0.13369106  0.76257535  0.27402334  1  0  0.429758  0  0.881792  0  0  0.396632  0  0.950501  0  0  0.407958  0  0.934339  0  0  0.293502  0.38871  0  0.961915  0
H  H8  1  0.63633291  0.17969733  0.61005941  1  0  0.448944  0  0.84387  0  0  0.42085  0  0.901165  0  0  0.432438  0  0.884305  0  0  0.304342  0.413111  0  0.912459  0
H  H9  1  0.36366180  0.82030207  0.38993569  1  0  0.448974  0  0.843828  0  0  0.42088  0  0.901122  0  0  0.432465  0  0.884267  0  0  0.304348  0.413142  0  0.912414  0
C  C10  1  0.89868704  0.48573408  0.36843775  1  0  -0.083464  0  3.726597  0  0  -0.070814  0  3.967396  0  0  -0.074837  0  3.987547  0  0  -0.005868  -0.069034  0  3.955848  0
C  C11  1  0.10131347  0.51427964  0.63156443  1  0  -0.083417  0  3.726548  0  0  -0.070845  0  3.967423  0  0  -0.074872  0  3.987579  0  0  -0.005862  -0.069057  0  3.955858  0
C  C12  1  0.93518536  0.32588345  0.40612091  1  0  -0.080651  0  3.734149  0  0  -0.072109  0  3.979207  0  0  -0.076082  0  3.999308  0  0  -0.002918  -0.070301  0  3.967837  0
C  C13  1  0.06482393  0.67412163  0.59388426  1  0  -0.0807  0  3.734042  0  0  -0.072086  0  3.979135  0  0  -0.076054  0  3.999231  0  0  -0.002918  -0.070275  0  3.967753  0
C  C14  1  0.96381083  0.65779103  0.46342539  1  0  -0.077915  0  3.685862  0  0  -0.108814  0  3.939845  0  0  -0.108183  0  3.954541  0  0  -0.071432  -0.108783  0  3.929267  0
C  C15  1  0.03618658  0.34221126  0.53656953  1  0  -0.077887  0  3.685777  0  0  -0.108732  0  3.939771  0  0  -0.108099  0  3.95447  0  0  -0.071396  -0.108697  0  3.929182  0
C  C16  1  0.79377571  0.48004608  0.22915350  1  0  0.674722  0  3.905441  0  0  0.624541  0  4.21115  0  0  0.658251  0  4.203781  0  0  0.213498  0.601792  0  4.217156  0
C  C17  1  0.20622438  0.51995902  0.77084670  1  0  0.674648  0  3.90554  0  0  0.624477  0  4.211281  0  0  0.658182  0  4.20393  0  0  0.213444  0.601723  0  4.217288  0
C  C18  1  0.86718261  0.13456720  0.31079449  1  0  0.732717  0  3.849102  0  0  0.686631  0  4.144303  0  0  0.722624  0  4.135477  0  0  0.239907  0.662522  0  4.152055  0
C  C19  1  0.13282054  0.86543788  0.68920888  1  0  0.732813  0  3.848993  0  0  0.68659  0  4.144386  0  0  0.722581  0  4.135564  0  0  0.239862  0.662483  0  4.152127  0
C  C20  1  0.53342877  0.43904745  0.54517268  1  0  0.556283  0  3.950119  0  0  0.508199  0  4.261573  0  0  0.536132  0  4.263159  0  0  0.218265  0.488975  0  4.265196  0
C  C21  1  0.46656342  0.56095332  0.45482768  1  0  0.556365  0  3.950061  0  0  0.50831  0  4.261482  0  0  0.536244  0  4.263064  0  0  0.218327  0.489089  0  4.265105  0
C  C22  1  0.98143735  0.09724884  0.00869138  1  0  0.585  0  3.908037  0  0  0.538203  0  4.215598  0  0  0.568478  0  4.212583  0  0  0.228377  0.516924  0  4.223539  0
C  C23  1  0.01854473  0.90273460  0.99131184  1  0  0.585102  0  3.908023  0  0  0.538384  0  4.215482  0  0  0.568658  0  4.212465  0  0  0.228589  0.517104  0  4.223424  0
O  O24  1  0.89332783  0.60577127  0.18015751  1  0  -0.618875  0  1.943071  0  0  -0.573922  0  2.168138  0  0  -0.595764  0  2.156472  0  0  -0.315475  -0.55797  0  2.174914  0
O  O25  1  0.10666188  0.39423096  0.81983993  1  0  -0.618818  0  1.943044  0  0  -0.573862  0  2.168104  0  0  -0.595699  0  2.156434  0  0  -0.315421  -0.557914  0  2.174881  0
O  O26  1  0.60413315  0.35139830  0.16750934  1  0  -0.781255  0  2.069037  0  0  -0.738413  0  2.316575  0  0  -0.774682  0  2.304536  0  0  -0.439818  -0.720119  0  2.322685  0
O  O27  1  0.39586461  0.64860105  0.83249074  1  0  -0.781233  0  2.069187  0  0  -0.738385  0  2.316721  0  0  -0.774649  0  2.304686  0  0  -0.439803  -0.720095  0  2.322827  0
O  O28  1  0.66273875  0.04091339  0.25874165  1  0  -0.706641  0  1.979679  0  0  -0.665371  0  2.215054  0  0  -0.699555  0  2.199471  0  0  -0.389208  -0.647531  0  2.222546  0
O  O29  1  0.33726380  0.95909024  0.74126328  1  0  -0.70668  0  1.9796  0  0  -0.665358  0  2.215027  0  0  -0.699544  0  2.199443  0  0  -0.389184  -0.647526  0  2.22252  0
O  O30  1  0.01772080  0.07539257  0.29195603  1  0  -0.70563  0  2.032269  0  0  -0.665408  0  2.280922  0  0  -0.702366  0  2.26541  0  0  -0.385794  -0.646147  0  2.287285  0
O  O31  1  0.98227790  0.92460533  0.70804493  1  0  -0.705684  0  2.032249  0  0  -0.665401  0  2.280934  0  0  -0.702358  0  2.265422  0  0  -0.385797  -0.646146  0  2.287296  0
O  O32  1  0.51012208  0.26819820  0.49067129  1  0  -0.664256  0  2.090925  0  0  -0.616111  0  2.322645  0  0  -0.650616  0  2.313829  0  0  -0.349337  -0.598886  0  2.326869  0
O  O33  1  0.48987088  0.73179690  0.50932214  1  0  -0.66423  0  2.091046  0  0  -0.61612  0  2.322783  0  0  -0.650616  0  2.313961  0  0  -0.349323  -0.598896  0  2.327017  0
O  O34  1  0.60561143  0.51687552  0.66510277  1  0  -0.662519  0  2.118818  0  0  -0.626373  0  2.369101  0  0  -0.657859  0  2.362193  0  0  -0.388262  -0.610663  0  2.37251  0
O  O35  1  0.39438059  0.48312102  0.33488977  1  0  -0.662638  0  2.118619  0  0  -0.626496  0  2.368889  0  0  -0.657985  0  2.361981  0  0  -0.388321  -0.610791  0  2.372309  0
O  O36  1  0.80552461  0.09797746  0.93451522  1  0  -0.678561  0  2.065312  0  0  -0.636756  0  2.309178  0  0  -0.669618  0  2.295714  0  0  -0.4365  -0.62049  0  2.316619  0
O  O37  1  0.19447882  0.90201319  0.06549195  1  0  -0.678631  0  2.064961  0  0  -0.636854  0  2.308792  0  0  -0.669716  0  2.295328  0  0  -0.436625  -0.620589  0  2.316236  0
O  O38  1  0.12807254  0.23853045  0.09489136  1  0  -0.670562  0  2.090708  0  0  -0.634112  0  2.338732  0  0  -0.665813  0  2.327584  0  0  -0.400311  -0.617853  0  2.344877  0
O  O39  1  0.87193153  0.76147313  0.90511742  1  0  -0.670547  0  2.091167  0  0  -0.634125  0  2.339185  0  0  -0.665824  0  2.328031  0  0  -0.400356  -0.617865  0  2.345328  0
O  O40  1  0.71266008  0.14089506  0.68434944  1  0  -0.951943  0  1.936033  0  0  -0.912544  0  2.138539  0  0  -0.941804  0  2.099132  0  0  -0.699987  -0.898736  0  2.161918  0
O  O41  1  0.28733288  0.85910002  0.31564489  1  0  -0.95197  0  1.935988  0  0  -0.912553  0  2.138552  0  0  -0.941814  0  2.099153  0  0  -0.700013  -0.898743  0  2.161926  0
