# generated using pymatgen
data_MnH32C34Br4(N2O3)2
_symmetry_space_group_name_H-M   'P 1'
_cell_length_a   9.08995719
_cell_length_b   9.62226135
_cell_length_c   11.28353342
_cell_angle_alpha   98.86366171
_cell_angle_beta   94.62282414
_cell_angle_gamma   118.32472017
_symmetry_Int_Tables_number   1
_chemical_formula_structural   MnH32C34Br4(N2O3)2
_chemical_formula_sum   'Mn1 H32 C34 Br4 N4 O6'
_cell_volume   844.87813116
_cell_formula_units_Z   1
loop_
 _symmetry_equiv_pos_site_id
 _symmetry_equiv_pos_as_xyz
  1  'x, y, z'
loop_
 _atom_site_type_symbol
 _atom_site_label
 _atom_site_symmetry_multiplicity
 _atom_site_fract_x
 _atom_site_fract_y
 _atom_site_fract_z
 _atom_site_occupancy
 _atom_site_pbe_cm5_charge
 _atom_site_pbe_ddec_charge
 _atom_site_pbe_ddec_spin_density
 _atom_site_pbe_ddec_sum_bond_order
 _atom_site_pbe_magmom
Mn  Mn0  1  0.00000262  0.00000300  0.99999970  1  0.617467  0.75576  1.182135  3.16112  1.142
H  H1  1  0.28347768  0.06697896  0.94264181  1  0.291804  0.363628  0.000346  0.985542  0.001
H  H2  1  0.71652450  0.93302277  0.05735415  1  0.291836  0.363706  0.000345  0.985457  0.001
H  H3  1  0.33567959  0.12289748  0.09665556  1  0.284081  0.332229  -0.000502  1.032832  0.0
H  H4  1  0.66432749  0.87710307  0.90334149  1  0.284078  0.332252  -0.000502  1.032794  0.0
H  H5  1  0.85065003  0.19496933  0.10345154  1  0.115837  0.084832  -0.000821  1.043141  0.0
H  H6  1  0.14935734  0.80503605  0.89654610  1  0.115846  0.084877  -0.00082  1.043164  0.0
H  H7  1  0.38460577  0.61404806  0.33872341  1  0.086882  0.088509  -0.000129  1.019426  0.0
H  H8  1  0.61540102  0.38594774  0.66127749  1  0.086884  0.088468  -0.000129  1.019407  0.0
H  H9  1  0.53481962  0.81688320  0.35320394  1  0.094451  0.109733  0.0  1.001538  0.0
H  H10  1  0.46518496  0.18311263  0.64679858  1  0.094443  0.109748  1e-06  1.001513  0.0
H  H11  1  0.30895282  0.87174344  0.57556042  1  0.097505  0.106695  -1.9e-05  1.04343  0.0
H  H12  1  0.69105253  0.12825595  0.42443903  1  0.097527  0.106702  -1.9e-05  1.04345  0.0
H  H13  1  0.60889000  0.64026126  0.50327814  1  0.087334  0.09178  -7e-06  1.080064  0.0
H  H14  1  0.39110280  0.35972251  0.49672479  1  0.087321  0.091755  -7e-06  1.080141  0.0
H  H15  1  0.31029415  0.89685960  0.37493191  1  0.086755  0.087186  -0.000142  1.002729  0.0
H  H16  1  0.68970808  0.10313386  0.62507283  1  0.086796  0.08734  -0.000142  1.002737  0.0
H  H17  1  0.15707039  0.69301219  0.36441120  1  0.072348  0.059265  5.3e-05  1.044628  0.0
H  H18  1  0.84293404  0.30698117  0.63558836  1  0.072309  0.059231  5.3e-05  1.044637  0.0
H  H19  1  0.93828346  0.48013256  0.18503991  1  0.089021  0.095745  8.4e-05  1.055062  0.0
H  H20  1  0.06172612  0.51987288  0.81496055  1  0.089001  0.095689  8.4e-05  1.05515  0.0
H  H21  1  0.30793881  0.31812111  0.98425959  1  0.111041  0.072587  -0.000306  1.043844  0.0
H  H22  1  0.69207284  0.68188204  0.01574695  1  0.11099  0.072515  -0.000306  1.043714  0.0
H  H23  1  0.39076489  0.89644813  0.79417949  1  0.110828  0.085456  -0.000116  1.019604  0.0
H  H24  1  0.60923590  0.10354887  0.20582113  1  0.110832  0.085451  -0.000116  1.019569  0.0
H  H25  1  0.15559532  0.78162599  0.16688733  1  0.098186  0.113845  -0.00105  0.986321  -0.001
H  H26  1  0.84441759  0.21837953  0.83311691  1  0.098229  0.113892  -0.00105  0.986142  -0.001
H  H27  1  0.36812275  0.82562647  0.16758412  1  0.094134  0.101527  -2e-06  0.990773  0.0
H  H28  1  0.63188732  0.17437785  0.83242067  1  0.094104  0.101537  -2e-06  0.990767  0.0
H  H29  1  0.68559093  0.68061418  0.72750550  1  0.103459  0.070521  -0.000157  1.041192  0.0
H  H30  1  0.31440140  0.31937084  0.27249931  1  0.103432  0.070545  -0.000157  1.041276  0.0
H  H31  1  0.41665583  0.60997044  0.06610540  1  0.102094  0.114923  8e-06  1.01185  0.0
H  H32  1  0.58335568  0.39003035  0.93390351  1  0.102068  0.114951  8e-06  1.011842  0.0
C  C33  1  0.88669243  0.97731213  0.24316986  1  0.201514  0.554436  -0.007118  4.250735  -0.004
C  C34  1  0.11329314  0.02269805  0.75682681  1  0.201264  0.554139  -0.007118  4.250815  -0.004
C  C35  1  0.02514628  0.13951290  0.46143296  1  -0.020127  0.023952  -0.001611  3.958621  -0.001
C  C36  1  0.97482258  0.86049492  0.53856669  1  -0.02023  0.023949  -0.001611  3.958207  -0.001
C  C37  1  0.08370566  0.14884166  0.58275936  1  -0.018571  0.031768  -0.000926  3.944492  0.0
C  C38  1  0.91626320  0.85116616  0.41724029  1  -0.01855  0.031752  -0.000926  3.944106  0.0
C  C39  1  0.97538982  0.28961911  0.09663030  1  0.032618  0.073348  -0.015066  3.956332  -0.008
C  C40  1  0.02461756  0.71038631  0.90336912  1  0.032649  0.073366  -0.015067  3.956249  -0.008
C  C41  1  0.94239693  0.99051988  0.37703851  1  -0.018518  -0.087181  -0.002977  3.959475  -0.001
C  C42  1  0.05757002  0.00949281  0.62296335  1  -0.018339  -0.086992  -0.002977  3.959309  -0.001
C  C43  1  0.41595585  0.73745655  0.38317944  1  -0.166933  -0.20849  -0.000183  3.939094  0.0
C  C44  1  0.58404983  0.26253925  0.61682138  1  -0.166937  -0.208487  -0.000182  3.939012  0.0
C  C45  1  0.18802552  0.57293204  0.13546385  1  0.000653  0.159055  -0.025172  3.950205  -0.016
C  C46  1  0.81198295  0.42707336  0.86453476  1  0.000678  0.159197  -0.025172  3.950378  -0.016
C  C47  1  0.45315609  0.75409806  0.51849376  1  0.008155  0.166857  -0.000346  3.937258  0.0
C  C48  1  0.54684204  0.24589161  0.48150227  1  0.008033  0.166793  -0.000345  3.937349  0.0
C  C49  1  0.39082169  0.82477581  0.60362241  1  -0.09441  -0.193094  -4.7e-05  3.962733  0.0
C  C50  1  0.60918491  0.17522597  0.39637563  1  -0.094346  -0.192991  -4.7e-05  3.96293  0.0
C  C51  1  0.55847600  0.69859977  0.56506016  1  -0.100847  -0.203448  -0.000116  3.981936  0.0
C  C52  1  0.44152089  0.30138761  0.43494171  1  -0.100806  -0.203348  -0.000116  3.982038  0.0
C  C53  1  0.27712077  0.77158515  0.33581811  1  -0.168893  -0.130343  -0.001773  3.928253  -0.001
C  C54  1  0.72288650  0.22840950  0.66418535  1  -0.168869  -0.130445  -0.001771  3.928418  -0.001
C  C55  1  0.02586984  0.45048340  0.14179101  1  -0.09912  -0.191474  0.000909  3.992802  0.003
C  C56  1  0.97413580  0.54952078  0.85820637  1  -0.099108  -0.191427  0.000908  3.993007  0.003
C  C57  1  0.22983797  0.35819043  0.03058876  1  0.029888  0.061466  -0.015821  3.974234  -0.009
C  C58  1  0.77017320  0.64181392  0.96941700  1  0.029965  0.061587  -0.01582  3.974031  -0.009
C  C59  1  0.43667460  0.83865420  0.72759420  1  0.041012  0.092452  -0.000376  3.970251  0.0
C  C60  1  0.56332619  0.16134284  0.27240819  1  0.041024  0.092419  -0.000375  3.970458  0.0
C  C61  1  0.24882432  0.74582116  0.19581097  1  -0.15966  -0.201803  -0.000734  3.914328  0.001
C  C62  1  0.75118497  0.25417947  0.80418979  1  -0.159701  -0.201944  -0.000734  3.914333  0.001
C  C63  1  0.59969245  0.71864753  0.68986375  1  0.032987  0.087343  -0.000172  3.999826  0.0
C  C64  1  0.40030333  0.28133985  0.31013804  1  0.033043  0.087219  -0.000172  3.999966  0.0
C  C65  1  0.28923230  0.52180846  0.07591082  1  -0.095038  -0.197942  0.000852  3.973671  0.003
C  C66  1  0.71077873  0.47819347  0.92409465  1  -0.095011  -0.19808  0.000851  3.97365  0.003
Br  Br67  1  0.05467545  0.32792034  0.40924036  1  0.098512  0.001889  -0.001604  1.743047  -0.001
Br  Br68  1  0.94532020  0.67209221  0.59075375  1  0.098472  0.001858  -0.001603  1.742889  -0.001
Br  Br69  1  0.20558123  0.35158558  0.69566574  1  0.096352  0.00933  -0.00125  1.666186  0.0
Br  Br70  1  0.79439396  0.64841737  0.30433112  1  0.096361  0.009293  -0.00125  1.66611  0.0
N  N71  1  0.07582821  0.23946291  0.04318195  1  -0.347724  -0.209103  -0.018906  3.565201  -0.018
N  N72  1  0.92417902  0.76054013  0.95681895  1  -0.347776  -0.209192  -0.018906  3.565179  -0.018
N  N73  1  0.54054587  0.78811434  0.77124485  1  -0.322277  -0.254892  -0.000715  3.422905  0.0
N  N74  1  0.45945352  0.21187786  0.22875688  1  -0.322297  -0.254771  -0.000715  3.422918  0.0
O  O75  1  0.00383528  0.00290095  0.18017366  1  -0.292545  -0.48644  -0.001431  2.404886  -0.004
O  O76  1  0.99615929  0.99711179  0.81983015  1  -0.292456  -0.486247  -0.001432  2.404847  -0.004
O  O77  1  0.24455355  0.04618018  0.02209330  1  -0.561126  -0.70356  0.008382  2.332388  0.003
O  O78  1  0.75545035  0.95382277  0.97790292  1  -0.561167  -0.703654  0.008383  2.332331  0.003
O  O79  1  0.73442233  0.93947904  0.20710069  1  -0.310405  -0.550484  -0.00211  2.202378  -0.001
O  O80  1  0.26556280  0.06051513  0.79287900  1  -0.310319  -0.550515  -0.00211  2.202452  -0.001
