# generated using pymatgen
data_CuH42C24(NO)4
_symmetry_space_group_name_H-M   'P 1'
_cell_length_a   7.90207755
_cell_length_b   8.95088931
_cell_length_c   10.38255608
_cell_angle_alpha   84.36080997
_cell_angle_beta   74.26936278
_cell_angle_gamma   80.33438909
_symmetry_Int_Tables_number   1
_chemical_formula_structural   CuH42C24(NO)4
_chemical_formula_sum   'Cu1 H42 C24 N4 O4'
_cell_volume   695.74879157
_cell_formula_units_Z   1
loop_
 _symmetry_equiv_pos_site_id
 _symmetry_equiv_pos_as_xyz
  1  'x, y, z'
loop_
 _atom_site_type_symbol
 _atom_site_label
 _atom_site_symmetry_multiplicity
 _atom_site_fract_x
 _atom_site_fract_y
 _atom_site_fract_z
 _atom_site_occupancy
 _atom_site_hle17_ddec_charge
 _atom_site_hle17_ddec_spin_density
 _atom_site_hle17_ddec_sum_bond_order
 _atom_site_hle17_magmom
 _atom_site_hse06_10hf_ddec_charge
 _atom_site_hse06_10hf_ddec_spin_density
 _atom_site_hse06_10hf_ddec_sum_bond_order
 _atom_site_hse06_10hf_magmom
 _atom_site_hse06_ddec_charge
 _atom_site_hse06_ddec_spin_density
 _atom_site_hse06_ddec_sum_bond_order
 _atom_site_hse06_magmom
 _atom_site_pbe_cm5_charge
 _atom_site_pbe_ddec_charge
 _atom_site_pbe_ddec_spin_density
 _atom_site_pbe_ddec_sum_bond_order
 _atom_site_pbe_magmom
Cu  Cu0  1  0.49998876  0.50002409  0.50000500  1  0.699803  0.616795  1.772939  0.438  0.644377  0.709505  2.143362  0.542  0.721489  0.772023  2.09283  0.617  0.735923  0.600698  0.671809  2.177207  0.501
H  H1  1  0.37759245  0.65027240  0.32980154  1  0.268136  -0.001692  0.970113  -0.002  0.254664  -0.000644  1.032078  -0.001  0.263631  -0.00091  1.026184  -0.001  0.278678  0.248372  -0.000433  1.036352  -0.001
H  H2  1  0.62241455  0.34970351  0.67020214  1  0.268114  -0.001685  0.969881  -0.002  0.254636  -0.000644  1.031824  -0.001  0.263602  -0.000909  1.025927  -0.001  0.278632  0.248337  -0.000433  1.036131  -0.001
H  H3  1  0.80462870  0.49943997  0.41435714  1  0.266727  -0.002343  0.922659  -0.002  0.257935  -0.000915  0.981662  -0.001  0.264157  -0.001233  0.978282  -0.001  0.292368  0.253869  -0.000688  0.984034  -0.001
H  H4  1  0.19534545  0.50055585  0.58565740  1  0.266729  -0.002331  0.92249  -0.002  0.257928  -0.000918  0.981543  -0.001  0.26415  -0.001234  0.978158  -0.001  0.292375  0.25386  -0.00069  0.983906  -0.001
H  H5  1  0.72464908  0.46947887  0.20159395  1  0.052741  0.000167  0.897772  0.0  0.067754  7.1e-05  0.954897  0.0  0.068017  3.1e-05  0.954763  0.0  0.109184  0.067334  0.000201  0.95524  0.0
H  H6  1  0.27536516  0.53052510  0.79838654  1  0.052701  0.000151  0.897683  0.0  0.067754  7.2e-05  0.954852  0.0  0.068013  3.1e-05  0.954723  0.0  0.109164  0.067332  0.000201  0.955185  0.0
H  H7  1  0.52316871  0.76751277  0.11030422  1  0.082833  -0.00033  0.914492  0.0  0.104341  -8.5e-05  0.966924  0.0  0.105478  -7.3e-05  0.966815  0.0  0.09694  0.103471  -9.4e-05  0.966929  0.0
H  H8  1  0.47683163  0.23250075  0.88972655  1  0.08264  -0.000336  0.914583  0.0  0.104163  -8.5e-05  0.96695  0.0  0.105301  -7.3e-05  0.966844  0.0  0.096873  0.103296  -9.4e-05  0.966955  0.0
H  H9  1  0.56033722  0.59300619  0.03343312  1  0.059128  -0.00016  0.972715  0.0  0.073347  0.000227  1.043683  0.0  0.074562  0.000111  1.043146  0.0  0.085805  0.072472  0.000344  1.044213  0.0
H  H10  1  0.43963324  0.40701307  0.96655960  1  0.059043  -0.000162  0.972991  0.0  0.073278  0.000227  1.043872  0.0  0.074496  0.000111  1.043335  0.0  0.085721  0.072395  0.000345  1.044418  0.0
H  H11  1  0.88525916  0.59128120  0.96948128  1  0.051902  -3.9e-05  0.947533  0.0  0.069501  1.3e-05  1.014513  0.0  0.070155  5e-06  1.014751  0.0  0.083564  0.068886  4.5e-05  1.014472  0.0
H  H12  1  0.11472014  0.40875661  0.03053378  1  0.051991  -4.3e-05  0.947513  0.0  0.069539  1.3e-05  1.01456  0.0  0.070142  5e-06  1.014851  0.0  0.083568  0.068924  4.5e-05  1.014522  0.0
H  H13  1  0.77982076  0.76170315  0.90687189  1  0.067482  0.000472  0.932449  0.001  0.089662  0.000307  0.984496  0.0  0.089848  0.000204  0.985534  0.0  0.091956  0.089234  0.000414  0.984229  0.0
H  H14  1  0.22014909  0.23837089  0.09314388  1  0.067528  0.000473  0.932636  0.001  0.089739  0.000307  0.984649  0.0  0.089921  0.000204  0.985677  0.0  0.092001  0.089321  0.000414  0.984371  0.0
H  H15  1  0.80871760  0.90184018  0.09180319  1  0.060878  -6.7e-05  0.922688  0.0  0.081845  -1.9e-05  0.977685  0.0  0.082332  -1.7e-05  0.97846  0.0  0.08999  0.081515  -1e-05  0.977027  0.0
H  H16  1  0.19125825  0.09818294  0.90824226  1  0.060895  -6.5e-05  0.923023  0.0  0.081846  -2e-05  0.978002  0.0  0.082315  -1.7e-05  0.978796  0.0  0.089925  0.08151  -1.1e-05  0.97735  0.0
H  H17  1  0.01971596  0.80593523  0.01150787  1  0.066366  0.000443  0.925443  0.001  0.086472  0.000283  0.979648  0.0  0.087302  0.000189  0.979926  0.0  0.091323  0.085907  0.000424  0.979402  0.0
H  H18  1  0.98026912  0.19410443  0.98851949  1  0.066345  0.000442  0.925609  0.001  0.086504  0.000284  0.979722  0.0  0.087329  0.000188  0.980012  0.0  0.091318  0.085942  0.000424  0.979471  0.0
H  H19  1  0.98978565  0.59788206  0.19096357  1  0.064969  -0.000229  0.943169  0.0  0.084394  -1.2e-05  1.007398  0.0  0.084875  -2.5e-05  1.007992  0.0  0.089734  0.084031  1e-06  1.006896  0.0
H  H20  1  0.01020004  0.40215023  0.80904770  1  0.064979  -0.000233  0.943078  0.0  0.084366  -1.1e-05  1.007405  0.0  0.084845  -2.5e-05  1.007995  0.0  0.089782  0.083998  0.0  1.006898  0.0
H  H21  1  0.96310275  0.77480680  0.26128783  1  0.087256  -0.000258  0.944835  0.0  0.103234  -8e-06  1.006874  0.0  0.104425  -2.7e-05  1.006724  0.0  0.094922  0.10239  1.5e-05  1.007059  0.0
H  H22  1  0.03688913  0.22521010  0.73874242  1  0.087297  -0.000266  0.94472  0.0  0.103355  -8e-06  1.006624  0.0  0.104501  -2.8e-05  1.006527  0.0  0.095031  0.102515  1.5e-05  1.006791  0.0
H  H23  1  0.62830099  0.78506339  0.31153734  1  0.057277  1.1e-05  0.908748  0.0  0.073885  -1.4e-05  0.963095  0.0  0.073618  -2.2e-05  0.963947  0.0  0.115978  0.073974  3.9e-05  0.962557  0.0
H  H24  1  0.37169726  0.21493443  0.68848796  1  0.057279  1.6e-05  0.908636  0.0  0.073948  -1.4e-05  0.962971  0.0  0.073665  -2.3e-05  0.963846  0.0  0.11601  0.074044  3.9e-05  0.962427  0.0
H  H25  1  0.89721113  0.72963962  0.46974752  1  0.027728  0.005595  0.956259  0.007  0.041088  0.004043  1.019606  0.005  0.039161  0.003071  1.02173  0.004  0.100384  0.042314  0.004754  1.018089  0.006
H  H26  1  0.10278309  0.27036371  0.53024932  1  0.027814  0.005587  0.956168  0.007  0.041177  0.004042  1.019562  0.005  0.039253  0.003069  1.021683  0.004  0.100405  0.042402  0.004752  1.01805  0.006
H  H27  1  0.87898977  0.48892724  0.61314277  1  0.084126  -7.6e-05  0.936955  0.0  0.102013  3.7e-05  0.999183  0.0  0.10304  2.2e-05  0.999519  0.0  0.098935  0.10132  4.2e-05  0.998902  0.0
H  H28  1  0.12103572  0.51107611  0.38685684  1  0.084074  -7.3e-05  0.93682  0.0  0.101962  3.7e-05  0.998993  0.0  0.10299  2.2e-05  0.99933  0.0  0.098887  0.10127  4.2e-05  0.998709  0.0
H  H29  1  0.86079883  0.65569617  0.69596513  1  0.086285  -0.000421  0.942064  0.0  0.101552  -0.000171  1.00792  0.0  0.102438  -0.000174  1.008004  0.0  0.097831  0.100742  -0.000182  1.008247  0.0
H  H30  1  0.13919575  0.34429660  0.30404187  1  0.086331  -0.000422  0.942091  0.0  0.101536  -0.000171  1.007961  0.0  0.10243  -0.000174  1.008036  0.0  0.097812  0.100724  -0.000182  1.008295  0.0
H  H31  1  0.34557189  0.49553155  0.16535956  1  0.046543  0.006054  0.941688  0.007  0.065997  0.004569  1.002102  0.005  0.065192  0.003448  1.002954  0.004  0.097619  0.066212  0.005258  1.001857  0.006
H  H32  1  0.65444634  0.50444121  0.83463832  1  0.046442  0.006042  0.94164  0.007  0.065911  0.004566  1.002119  0.005  0.065138  0.003445  1.002925  0.004  0.097622  0.066121  0.005253  1.001887  0.006
H  H33  1  0.47480810  0.33925576  0.22864930  1  0.059997  0.000326  0.918845  0.001  0.081308  0.000296  0.974696  0.001  0.081057  0.000183  0.97523  0.0  0.105538  0.081323  0.000381  0.974283  0.001
H  H34  1  0.52521213  0.66071083  0.77136301  1  0.060052  0.000317  0.91896  0.001  0.081366  0.000296  0.974837  0.001  0.081115  0.000183  0.975368  0.0  0.105569  0.081379  0.000381  0.974421  0.001
H  H35  1  0.64042934  0.91742965  0.46605160  1  0.10631  -5e-05  0.958619  0.0  0.13129  -1.3e-05  1.013954  0.0  0.131871  0.0  1.015335  0.0  0.09104  0.130756  -2.6e-05  1.013392  0.0
H  H36  1  0.35956456  0.08257324  0.53395786  1  0.10638  -4.8e-05  0.958616  0.0  0.131321  -1.2e-05  1.013972  0.0  0.131906  0.0  1.015351  0.0  0.091035  0.13078  -2.6e-05  1.013424  0.0
H  H37  1  0.65650167  0.89412920  0.63250375  1  0.113194  -0.000259  0.94802  0.0  0.13523  -0.000134  1.007588  0.0  0.136617  -0.000131  1.007826  0.0  0.091162  0.134618  -0.000125  1.006664  0.0
H  H38  1  0.34352118  0.10585520  0.36748586  1  0.113099  -0.000244  0.947982  0.0  0.135164  -0.000134  1.007517  0.0  0.136552  -0.000131  1.007755  0.0  0.091119  0.134555  -0.000125  1.00659  0.0
H  H39  1  0.49494138  0.80785940  0.58459858  1  0.110755  -0.000269  0.970085  0.0  0.127787  -0.000246  1.039932  0.0  0.129167  -0.000291  1.039397  0.0  0.087701  0.12646  -0.000205  1.04082  0.0
H  H40  1  0.50505847  0.19213346  0.41540646  1  0.110729  -0.000273  0.970024  0.0  0.127748  -0.000246  1.039896  0.0  0.129129  -0.00029  1.039361  0.0  0.087706  0.126423  -0.000206  1.040785  0.0
H  H41  1  0.00490628  0.03785997  0.35138834  1  0.10759  -1.1e-05  0.942518  0.0  0.115914  -1.3e-05  1.003062  0.0  0.121029  -1e-05  0.998955  0.0  0.099216  0.112245  -1.4e-05  1.006077  0.0
H  H42  1  0.99509200  0.96208544  0.64857823  1  0.107515  -2e-05  0.942469  0.0  0.115869  -1.2e-05  1.003007  0.0  0.120983  -1e-05  0.998906  0.0  0.099227  0.112201  -1.4e-05  1.006023  0.0
C  C43  1  0.63654150  0.57927801  0.22075738  1  0.108151  -0.002279  3.582694  -0.003  0.087575  2.9e-05  3.831746  -0.001  0.09161  -0.000878  3.848689  -0.001  0.000492  0.085008  0.000709  3.820507  0.0
C  C44  1  0.36347002  0.42071621  0.77924249  1  0.108282  -0.002206  3.582446  -0.003  0.087415  2.1e-05  3.831839  -0.001  0.091446  -0.000882  3.848788  -0.001  0.000481  0.084859  0.00071  3.820576  0.0
C  C45  1  0.61796466  0.66207572  0.08761127  1  -0.15802  0.005958  3.666529  0.006  -0.204547  0.004077  3.930056  0.004  -0.206378  0.003  3.943874  0.003  -0.164621  -0.203139  0.004372  3.920096  0.004
C  C46  1  0.38202590  0.33793864  0.91239431  1  -0.157798  0.005953  3.666859  0.006  -0.204095  0.004076  3.930121  0.004  -0.205933  0.002998  3.943927  0.003  -0.164444  -0.2027  0.004368  3.920187  0.004
C  C47  1  0.79748135  0.69848136  0.99980267  1  -0.101877  0.000648  3.698461  0.001  -0.141391  0.000651  3.965607  0.001  -0.142275  0.000444  3.981048  0.001  -0.164371  -0.140452  0.000887  3.954979  0.001
C  C48  1  0.20250868  0.30155686  0.00020167  1  -0.101893  0.000664  3.698796  0.001  -0.141522  0.00065  3.966019  0.001  -0.142347  0.000443  3.981407  0.001  -0.164378  -0.140588  0.000887  3.955409  0.001
C  C49  1  0.88704722  0.78812211  0.07374959  1  -0.098798  0.000707  3.702279  0.001  -0.138584  0.000591  3.966954  0.001  -0.139742  0.000403  3.982645  0.001  -0.163363  -0.137415  0.000818  3.955763  0.001
C  C50  1  0.11294113  0.21190883  0.92626800  1  -0.098899  0.000696  3.702893  0.001  -0.13865  0.00059  3.967471  0.001  -0.139795  0.000403  3.983114  0.001  -0.163334  -0.137479  0.000818  3.95628  0.001
C  C51  1  0.90164844  0.70759159  0.20819837  1  -0.160416  0.005185  3.655801  0.005  -0.206864  0.003422  3.917059  0.004  -0.208459  0.002566  3.930678  0.003  -0.164971  -0.205311  0.004086  3.90725  0.004
C  C52  1  0.09834458  0.29243612  0.79181467  1  -0.160486  0.0052  3.656098  0.006  -0.206977  0.003419  3.917504  0.004  -0.208529  0.002564  3.931106  0.003  -0.165099  -0.205405  0.004081  3.907662  0.004
C  C53  1  0.71862260  0.67673914  0.29379256  1  0.113111  -0.001834  3.576545  -0.002  0.094952  0.000362  3.818575  -0.001  0.098949  -0.000579  3.835188  -0.001  0.002006  0.09201  0.000753  3.807796  0.0
C  C54  1  0.28135090  0.32326824  0.70621567  1  0.113055  -0.001864  3.576732  -0.002  0.09476  0.000365  3.819078  -0.001  0.098758  -0.000574  3.835694  -0.001  0.001973  0.091809  0.000756  3.808285  0.0
C  C55  1  0.76724654  0.69397335  0.51954688  1  0.200371  -0.003682  3.616979  -0.004  0.187707  -0.000411  3.864755  -0.002  0.193137  -0.001447  3.882564  -0.002  -0.003429  0.18451  0.000415  3.852282  -0.001
C  C56  1  0.23275397  0.30601614  0.48045726  1  0.200212  -0.003638  3.616954  -0.004  0.187359  -0.000416  3.864953  -0.002  0.192788  -0.001442  3.882762  -0.002  -0.003601  0.18416  0.000417  3.852489  -0.001
C  C57  1  0.79075394  0.59542883  0.64399294  1  -0.191792  0.001612  3.656959  0.003  -0.237945  0.00125  3.918325  0.002  -0.240827  0.000833  3.931849  0.002  -0.163116  -0.236016  0.001513  3.908986  0.002
C  C58  1  0.20925398  0.40455619  0.35601005  1  -0.191795  0.001604  3.657014  0.003  -0.237792  0.001251  3.91816  0.002  -0.240674  0.000834  3.931681  0.002  -0.163035  -0.235861  0.001514  3.908821  0.002
C  C59  1  0.37965437  0.44283251  0.25739615  1  0.054741  -0.003926  3.649821  -0.005  -0.003543  -0.000265  3.919049  -0.002  0.002333  -0.001262  3.933043  -0.002  -0.069485  -0.006993  0.00041  3.909635  -0.001
C  C60  1  0.62036706  0.55715709  0.74260692  1  0.054803  -0.00388  3.64966  -0.005  -0.003618  -0.000267  3.919038  -0.002  0.002246  -0.001262  3.933033  -0.002  -0.069565  -0.00707  0.000408  3.909619  -0.001
C  C61  1  0.63094602  0.83601814  0.55284973  1  -0.354114  0.000773  3.678152  0.001  -0.4388  0.000521  3.922496  0.001  -0.442675  0.000286  3.934696  0.001  -0.250133  -0.435663  0.000804  3.913946  0.001
C  C62  1  0.36906153  0.16396102  0.44715848  1  -0.353919  0.000757  3.67785  0.001  -0.438535  0.00052  3.922129  0.001  -0.442411  0.000286  3.934326  0.001  -0.249934  -0.435398  0.000803  3.913587  0.001
C  C63  1  0.82502346  0.18275227  0.50932613  1  0.653818  3e-06  3.965878  0.0  0.614265  -1e-06  4.263497  0.0  0.647096  -8e-06  4.255697  0.0  0.182935  0.592387  4.7e-05  4.268475  0.0
C  C64  1  0.17497942  0.81721438  0.49061716  1  0.65391  2e-05  3.965423  0.0  0.614296  -0.0  4.263115  0.0  0.647124  -6e-06  4.255323  0.0  0.183218  0.592414  4.8e-05  4.268091  0.0
C  C65  1  0.96233771  0.04983398  0.45960452  1  -0.173102  0.000551  3.679158  0.0  -0.188087  0.000445  3.928602  0.0  -0.192701  0.000296  3.942113  0.0  -0.091415  -0.185594  0.000575  3.920081  0.0
C  C66  1  0.03762094  0.95008781  0.54035159  1  -0.173085  0.000601  3.679218  0.0  -0.188128  0.000439  3.92874  0.0  -0.192747  0.000297  3.942247  0.0  -0.091494  -0.185623  0.000572  3.920198  0.0
N  N67  1  0.46595731  0.54625843  0.31153182  1  -0.418282  0.093112  3.224775  0.116  -0.371394  0.0654  3.504378  0.086  -0.400608  0.054775  3.517658  0.078  -0.500983  -0.353749  0.070646  3.496572  0.089
N  N68  1  0.53405746  0.45373381  0.68845983  1  -0.418252  0.093021  3.224341  0.116  -0.371037  0.065376  3.503702  0.086  -0.400227  0.054757  3.51697  0.078  -0.500885  -0.353402  0.070613  3.495901  0.088
N  N69  1  0.72051427  0.60174622  0.42678291  1  -0.430852  0.089725  3.219066  0.112  -0.387116  0.063653  3.488028  0.083  -0.414826  0.053663  3.50114  0.076  -0.499662  -0.370592  0.069348  3.480644  0.087
N  N70  1  0.27948307  0.39825353  0.57321933  1  -0.430885  0.089624  3.218737  0.112  -0.387046  0.063624  3.487714  0.083  -0.414743  0.053634  3.500825  0.076  -0.499633  -0.370514  0.069312  3.480312  0.087
O  O71  1  0.78528169  0.28118218  0.42022488  1  -0.681072  -0.001904  1.89934  -0.001  -0.641458  -0.001907  2.137617  -0.001  -0.664608  -0.002093  2.124167  -0.001  -0.357879  -0.625946  -0.001479  2.146835  0.0
O  O72  1  0.21484241  0.71887701  0.57971343  1  -0.681161  -0.001933  1.899758  -0.001  -0.641536  -0.001907  2.138148  -0.001  -0.664681  -0.002099  2.124687  -0.001  -0.358117  -0.626033  -0.00148  2.147373  0.0
O  O73  1  0.76045599  0.18999082  0.63575053  1  -0.640038  0.000118  1.909632  0.0  -0.596247  -0.0001  2.129213  0.0  -0.618832  -0.000335  2.11942  0.0  -0.349846  -0.580904  9.4e-05  2.135458  0.0
O  O74  1  0.23955394  0.80990062  0.36417061  1  -0.639923  0.000131  1.909092  0.0  -0.596119  -0.000102  2.128751  0.0  -0.618705  -0.000332  2.118968  0.0  -0.349881  -0.580783  9.4e-05  2.134986  0.0
