# generated using pymatgen
data_Co3P2H7C3NO10
_symmetry_space_group_name_H-M   'P 1'
_cell_length_a   7.84491334
_cell_length_b   12.45157215
_cell_length_c   16.08017925
_cell_angle_alpha   112.83597605
_cell_angle_beta   93.68212726
_cell_angle_gamma   90.00770969
_symmetry_Int_Tables_number   1
_chemical_formula_structural   Co3P2H7C3NO10
_chemical_formula_sum   'Co12 P8 H28 C12 N4 O40'
_cell_volume   1444.09663059
_cell_formula_units_Z   4
loop_
 _symmetry_equiv_pos_site_id
 _symmetry_equiv_pos_as_xyz
  1  'x, y, z'
loop_
 _atom_site_type_symbol
 _atom_site_label
 _atom_site_symmetry_multiplicity
 _atom_site_fract_x
 _atom_site_fract_y
 _atom_site_fract_z
 _atom_site_occupancy
 _atom_site_pbe_bader_charge
 _atom_site_pbe_bader_spin_density
 _atom_site_pbe_cm5_charge
 _atom_site_pbe_ddec_charge
 _atom_site_pbe_ddec_spin_density
 _atom_site_pbe_ddec_sum_bond_order
 _atom_site_pbe_magmom
Co  Co0  1  0.93014848  0.37757461  0.49587825  1  1.476574  2.72554  0.804755  1.304034  3.251584  2.609824  2.69
Co  Co1  1  0.54924107  0.37549796  0.49033465  1  1.451867  0.798935  0.815997  1.300868  0.962277  2.971965  0.785
Co  Co2  1  0.85621769  0.24886479  0.26765142  1  1.368692  2.789104  0.82139  1.166098  3.279861  2.578346  2.735
Co  Co3  1  0.56987836  0.88173812  0.50415106  1  1.47807  2.725367  0.804722  1.303759  3.252623  2.608035  2.69
Co  Co4  1  0.95079664  0.88520671  0.50966754  1  1.450156  0.798124  0.815352  1.299551  0.961321  2.972784  0.785
Co  Co5  1  0.64394639  0.98172221  0.73246327  1  1.370289  2.789074  0.82187  1.167002  3.282004  2.577163  2.735
Co  Co6  1  0.06986443  0.62242117  0.50411598  1  1.476423  2.725483  0.804773  1.304031  3.251508  2.609811  2.69
Co  Co7  1  0.45076355  0.62450752  0.50966729  1  1.452214  0.798704  0.816073  1.300928  0.96201  2.972408  0.785
Co  Co8  1  0.14378339  0.75113612  0.73234784  1  1.368809  2.78911  0.821363  1.166086  3.279888  2.578275  2.735
Co  Co9  1  0.43011098  0.11826679  0.49585468  1  1.478279  2.725256  0.804739  1.303783  3.252504  2.608176  2.69
Co  Co10  1  0.04919793  0.11479497  0.49032910  1  1.450439  0.797948  0.815395  1.299635  0.961118  2.972817  0.784
Co  Co11  1  0.35605575  0.01828186  0.26753733  1  1.370096  2.789082  0.821836  1.166901  3.282005  2.577269  2.735
P  P12  1  0.72657759  0.49575035  0.37283457  1  3.66086  0.010594  0.450801  1.569503  0.014855  5.292955  0.011
P  P13  1  0.21176239  0.23116387  0.36470841  1  3.660836  0.011321  0.415851  1.526188  0.018024  5.403181  0.009
P  P14  1  0.77331028  0.12316997  0.62715106  1  3.653877  0.010561  0.45034  1.56923  0.014844  5.29411  0.011
P  P15  1  0.28820653  0.86677768  0.63530736  1  3.631183  0.011333  0.415793  1.527061  0.017994  5.400013  0.009
P  P16  1  0.27342674  0.50425876  0.62716748  1  3.660667  0.0106  0.450779  1.56939  0.014857  5.293118  0.011
P  P17  1  0.78823091  0.76883855  0.63529236  1  3.660768  0.011321  0.415885  1.5262  0.018023  5.403449  0.009
P  P18  1  0.22668904  0.87683688  0.37284714  1  3.653996  0.010559  0.450351  1.569259  0.014844  5.294058  0.011
P  P19  1  0.71179694  0.13322509  0.36469028  1  3.631439  0.011332  0.415944  1.527088  0.017995  5.40003  0.009
H  H20  1  0.62621568  0.66399342  0.39127442  1  0.64544  0.001324  0.309959  0.401145  0.001645  0.942943  0.001
H  H21  1  0.07980137  0.27005054  0.17142578  1  0.412498  0.005029  0.300848  0.292764  0.003189  0.933738  0.004
H  H22  1  0.00200702  0.15790288  0.02550476  1  0.016599  0.01738  0.105033  0.048472  0.006865  0.955689  0.011
H  H23  1  0.68531760  0.29857756  0.09670954  1  0.044884  0.000271  0.097934  0.103021  -0.000555  0.979088  0.0
H  H24  1  0.86704317  0.35029199  0.06296351  1  0.034958  0.00423  0.100216  0.104039  0.001534  0.962611  0.002
H  H25  1  0.86402928  0.00430112  0.06418365  1  0.033213  0.002424  0.092562  0.092086  0.000905  0.997075  0.001
H  H26  1  0.68184933  0.08910084  0.09524120  1  0.030015  0.002247  0.094728  0.094129  0.00112  1.000843  0.001
H  H27  1  0.87365685  0.27290806  0.60868773  1  0.650806  0.001322  0.309435  0.400148  0.00165  0.944268  0.001
H  H28  1  0.42023880  0.09860602  0.82899527  1  0.428742  0.004794  0.301035  0.292772  0.003175  0.934216  0.004
H  H29  1  0.49816267  0.13240939  0.97476502  1  0.020443  0.017214  0.104796  0.0477  0.006816  0.95611  0.011
H  H30  1  0.81479485  0.20257714  0.90400573  1  0.050728  0.00026  0.097934  0.103198  -0.000553  0.979439  0.0
H  H31  1  0.63292020  0.28785946  0.93806676  1  0.03981  0.004195  0.099883  0.103708  0.00154  0.9638  0.002
H  H32  1  0.63623537  0.94008004  0.93568564  1  0.045294  0.002396  0.092604  0.092146  0.0009  0.996189  0.001
H  H33  1  0.81840212  0.99402481  0.90480268  1  0.026633  0.002251  0.094707  0.094151  0.001119  1.000949  0.001
H  H34  1  0.37378868  0.33601420  0.60872194  1  0.645556  0.001325  0.309945  0.401189  0.001645  0.942895  0.001
H  H35  1  0.92021439  0.72992477  0.82856995  1  0.412339  0.005035  0.300862  0.292788  0.00319  0.933773  0.004
H  H36  1  0.99799085  0.84208928  0.97449288  1  0.016605  0.017387  0.105035  0.048441  0.006868  0.955576  0.011
H  H37  1  0.31468911  0.70141706  0.90329211  1  0.044945  0.00027  0.097935  0.102997  -0.000555  0.979064  0.0
H  H38  1  0.13295986  0.64969989  0.93703552  1  0.034821  0.00423  0.100178  0.103985  0.001534  0.962612  0.002
H  H39  1  0.13596221  0.99569152  0.93581790  1  0.033447  0.002423  0.092539  0.092074  0.000905  0.997036  0.001
H  H40  1  0.31814936  0.91089825  0.90476057  1  0.030076  0.002247  0.094727  0.094137  0.00112  1.00084  0.001
H  H41  1  0.12634372  0.72710031  0.39131532  1  0.650652  0.001321  0.309441  0.400111  0.00165  0.944356  0.001
H  H42  1  0.57975537  0.90138489  0.17100544  1  0.428916  0.004791  0.301046  0.292744  0.003175  0.934177  0.004
H  H43  1  0.50183480  0.86758908  0.02523786  1  0.020524  0.017218  0.104802  0.047681  0.006818  0.956149  0.011
H  H44  1  0.18520021  0.79741862  0.09599369  1  0.050709  0.00026  0.097911  0.103113  -0.000553  0.979485  0.0
H  H45  1  0.36707723  0.71213966  0.06193673  1  0.039746  0.004194  0.099918  0.103787  0.001539  0.96378  0.002
H  H46  1  0.36375449  0.05991745  0.06431719  1  0.04532  0.002395  0.092626  0.092221  0.000899  0.996216  0.001
H  H47  1  0.18158811  0.00596704  0.09519641  1  0.026539  0.002251  0.094674  0.09414  0.001119  1.000965  0.001
C  C48  1  0.89512273  0.18000866  0.07050342  1  0.35994  0.014412  0.004843  0.192984  0.009739  3.915507  0.002
C  C49  1  0.78744972  0.27178265  0.04939046  1  -0.014307  0.053079  -0.155426  -0.195021  0.030898  3.89228  0.041
C  C50  1  0.78634910  0.06898510  0.04921674  1  -0.043047  0.014534  -0.162648  -0.20541  0.008077  3.918176  0.011
C  C51  1  0.60513479  0.10970452  0.92982721  1  0.345336  0.014666  0.00555  0.193828  0.00974  3.915475  0.002
C  C52  1  0.71270173  0.22282602  0.95131988  1  -0.037555  0.053039  -0.155442  -0.195387  0.030893  3.894089  0.041
C  C53  1  0.71390423  0.01983525  0.95083691  1  -0.0215  0.014636  -0.163119  -0.205486  0.008135  3.918433  0.011
C  C54  1  0.10487773  0.81998299  0.92949371  1  0.360029  0.014408  0.004852  0.193147  0.009736  3.915113  0.002
C  C55  1  0.21254813  0.72821023  0.95060958  1  -0.014383  0.053081  -0.155406  -0.194973  0.030897  3.891944  0.041
C  C56  1  0.21364600  0.93101079  0.95078536  1  -0.043213  0.014527  -0.162598  -0.205371  0.008073  3.918109  0.011
C  C57  1  0.39486031  0.89029137  0.07017490  1  0.345489  0.014665  0.005515  0.193858  0.00974  3.915651  0.002
C  C58  1  0.28729859  0.77716827  0.04868149  1  -0.037563  0.053041  -0.155444  -0.195399  0.030893  3.893978  0.041
C  C59  1  0.28609086  0.98016064  0.04916519  1  -0.021534  0.014631  -0.163109  -0.205661  0.008133  3.918666  0.011
N  N60  1  0.96468007  0.22722000  0.16323175  1  -0.984164  0.593315  -0.523961  -0.586959  0.32541  3.108034  0.423
N  N61  1  0.53569837  0.06434136  0.83706221  1  -0.995123  0.593683  -0.524511  -0.587588  0.325419  3.108042  0.423
N  N62  1  0.03532298  0.77277114  0.83676488  1  -0.984064  0.593298  -0.523983  -0.587061  0.325403  3.108028  0.423
N  N63  1  0.46430058  0.93565404  0.16293855  1  -0.995292  0.593689  -0.524511  -0.58749  0.325421  3.107998  0.423
O  O64  1  0.57004723  0.49131145  0.42845459  1  -1.251585  0.027805  -0.322369  -0.714005  0.01539  2.394457  0.022
O  O65  1  0.89275550  0.50308277  0.43420844  1  -1.364103  0.163737  -0.354523  -0.820866  0.093253  2.436205  0.134
O  O66  1  0.72792558  0.38693244  0.28567844  1  -1.369256  0.135282  -0.356336  -0.743664  0.074284  2.226672  0.102
O  O67  1  0.70775559  0.60408224  0.34824320  1  -1.381006  0.045837  -0.356085  -0.626864  0.023805  2.144208  0.038
O  O68  1  0.03183882  0.28668987  0.36723298  1  -1.354856  0.200381  -0.34444  -0.775125  0.113213  2.4536  0.161
O  O69  1  0.20178511  0.13864200  0.40932849  1  -1.310907  0.08198  -0.338887  -0.822123  0.046356  2.514552  0.068
O  O70  1  0.34253790  0.32859488  0.41087698  1  -1.355274  0.053216  -0.334031  -0.706674  0.028607  2.337135  0.043
O  O71  1  0.25113462  0.15568009  0.26541390  1  -1.334127  0.188116  -0.350749  -0.729749  0.101854  2.183875  0.147
O  O72  1  0.74174851  0.42634519  0.55743446  1  -0.639462  0.623277  -0.386194  -0.548551  0.344905  1.722283  0.521
O  O73  1  0.98810351  0.26501605  0.53826820  1  -0.797464  0.4372  -0.428885  -0.71961  0.241742  2.007519  0.37
O  O74  1  0.92992628  0.06304293  0.57157094  1  -1.254682  0.02785  -0.321706  -0.713285  0.015385  2.394321  0.022
O  O75  1  0.60717596  0.06890396  0.56575787  1  -1.366147  0.163832  -0.354399  -0.821136  0.093229  2.437074  0.134
O  O76  1  0.77198151  0.10175405  0.71431900  1  -1.370261  0.135143  -0.356472  -0.743508  0.074225  2.226194  0.102
O  O77  1  0.79197568  0.25615038  0.65168909  1  -1.373943  0.045867  -0.355903  -0.626158  0.023824  2.145765  0.038
O  O78  1  0.46825746  0.91972107  0.63288401  1  -1.356004  0.200437  -0.344276  -0.775004  0.11329  2.451376  0.161
O  O79  1  0.29815638  0.72951543  0.59065408  1  -1.295306  0.082084  -0.339032  -0.822908  0.046358  2.513268  0.068
O  O80  1  0.15759390  0.91795168  0.58912426  1  -1.346763  0.053103  -0.333708  -0.706883  0.028556  2.337065  0.043
O  O81  1  0.24866035  0.89075248  0.73457819  1  -1.33106  0.187973  -0.350751  -0.729628  0.101781  2.182013  0.146
O  O82  1  0.75825570  0.86877312  0.44255473  1  -0.640335  0.623262  -0.385786  -0.547885  0.34526  1.720529  0.521
O  O83  1  0.51181089  0.72670422  0.46174059  1  -0.799861  0.437338  -0.429246  -0.720109  0.242013  2.006986  0.37
O  O84  1  0.42995440  0.50869927  0.57154562  1  -1.251726  0.027795  -0.322414  -0.71406  0.015382  2.394524  0.022
O  O85  1  0.10724771  0.49692450  0.56579439  1  -1.364128  0.163725  -0.3545  -0.820853  0.093244  2.436278  0.134
O  O86  1  0.27208510  0.61307764  0.71432450  1  -1.36916  0.135299  -0.356307  -0.743559  0.074286  2.226599  0.102
O  O87  1  0.29224753  0.39592545  0.65175578  1  -1.381122  0.045839  -0.356064  -0.626827  0.023806  2.144172  0.038
O  O88  1  0.96815330  0.71331131  0.63276829  1  -1.35484  0.20037  -0.344479  -0.775195  0.113206  2.453694  0.161
O  O89  1  0.79819943  0.86135669  0.59066704  1  -1.310794  0.081982  -0.33887  -0.822072  0.046359  2.514521  0.068
O  O90  1  0.65745670  0.67140689  0.58912144  1  -1.355217  0.053223  -0.334118  -0.706689  0.028611  2.337255  0.043
O  O91  1  0.74885021  0.84431582  0.73458659  1  -1.334136  0.188112  -0.350752  -0.729805  0.101857  2.18391  0.147
O  O92  1  0.25826291  0.57365443  0.44256518  1  -0.639436  0.623268  -0.386233  -0.548558  0.344896  1.722325  0.521
O  O93  1  0.01190890  0.73498718  0.46172982  1  -0.797647  0.437134  -0.428895  -0.719573  0.241705  2.007508  0.37
O  O94  1  0.07007425  0.93696527  0.42842855  1  -1.254631  0.027834  -0.32169  -0.713292  0.015377  2.39444  0.022
O  O95  1  0.39282338  0.93110294  0.43424123  1  -1.366055  0.163817  -0.354473  -0.821163  0.093223  2.436975  0.134
O  O96  1  0.22802190  0.89824927  0.28567747  1  -1.370348  0.135156  -0.356439  -0.743456  0.074233  2.226206  0.102
O  O97  1  0.20801965  0.74385878  0.34831051  1  -1.373709  0.045868  -0.35592  -0.626181  0.023825  2.145921  0.038
O  O98  1  0.53175107  0.08028337  0.36711776  1  -1.356085  0.200413  -0.344342  -0.775051  0.113273  2.451328  0.161
O  O99  1  0.70186366  0.27048893  0.40934667  1  -1.295303  0.082095  -0.339082  -0.822863  0.046366  2.513172  0.068
O  O100  1  0.84241330  0.08205329  0.41087718  1  -1.346738  0.05312  -0.333819  -0.706993  0.028565  2.337133  0.043
O  O101  1  0.75135388  0.10924358  0.26542056  1  -1.331156  0.187962  -0.35077  -0.729582  0.101776  2.18209  0.146
O  O102  1  0.24173480  0.13123213  0.55744454  1  -0.640294  0.623265  -0.385752  -0.547837  0.345262  1.720714  0.521
O  O103  1  0.48817851  0.27329928  0.53826124  1  -0.799915  0.437273  -0.429228  -0.720148  0.241978  2.006977  0.37
