# generated using pymatgen
data_CdH14C8(NO3)2
_symmetry_space_group_name_H-M   'P 1'
_cell_length_a   8.08496416
_cell_length_b   10.50339004
_cell_length_c   15.07729798
_cell_angle_alpha   89.99967981
_cell_angle_beta   89.99999550
_cell_angle_gamma   90.00001994
_symmetry_Int_Tables_number   1
_chemical_formula_structural   CdH14C8(NO3)2
_chemical_formula_sum   'Cd4 H56 C32 N8 O24'
_cell_volume   1280.35708854
_cell_formula_units_Z   4
loop_
 _symmetry_equiv_pos_site_id
 _symmetry_equiv_pos_as_xyz
  1  'x, y, z'
loop_
 _atom_site_type_symbol
 _atom_site_label
 _atom_site_symmetry_multiplicity
 _atom_site_fract_x
 _atom_site_fract_y
 _atom_site_fract_z
 _atom_site_occupancy
 _atom_site_hle17_bader_spin_density
 _atom_site_hle17_ddec_charge
 _atom_site_hle17_ddec_spin_density
 _atom_site_hle17_ddec_sum_bond_order
 _atom_site_hle17_magmom
 _atom_site_hse06_10hf_bader_spin_density
 _atom_site_hse06_10hf_ddec_charge
 _atom_site_hse06_10hf_ddec_spin_density
 _atom_site_hse06_10hf_ddec_sum_bond_order
 _atom_site_hse06_10hf_magmom
 _atom_site_hse06_bader_spin_density
 _atom_site_hse06_ddec_charge
 _atom_site_hse06_ddec_spin_density
 _atom_site_hse06_ddec_sum_bond_order
 _atom_site_hse06_magmom
 _atom_site_pbe_bader_spin_density
 _atom_site_pbe_cm5_charge
 _atom_site_pbe_ddec_charge
 _atom_site_pbe_ddec_spin_density
 _atom_site_pbe_ddec_sum_bond_order
 _atom_site_pbe_magmom
Cd  Cd0  1  0.16777442  0.25000015  0.50000024  1  0  1.18362  0  1.709241  0  0  1.017803  0  2.171741  0  0  1.07231  0  2.115776  0  0  0.762258  0.976906  0  2.211355  0
Cd  Cd1  1  0.33222544  0.74999959  1.00000000  1  0  1.183597  0  1.709235  0  0  1.017787  0  2.171715  0  0  1.072285  0  2.115766  0  0  0.762269  0.976894  0  2.211315  0
Cd  Cd2  1  0.83222522  0.74999976  0.50000058  1  0  1.183623  0  1.709229  0  0  1.017807  0  2.171722  0  0  1.072313  0  2.115759  0  0  0.762277  0.976907  0  2.211336  0
Cd  Cd3  1  0.66777536  0.25000011  0.99999964  1  0  1.183632  0  1.709251  0  0  1.017813  0  2.171739  0  0  1.072315  0  2.115786  0  0  0.762249  0.97691  0  2.211339  0
H  H4  1  0.47951727  0.12316528  0.41942769  1  0  0.046261  0  0.921647  0  0  0.055318  0  0.989302  0  0  0.057439  0  0.983981  0  0  0.124585  0.053501  0  0.993284  0
H  H5  1  0.02048755  0.62316610  0.08057291  1  0  0.046256  0  0.921681  0  0  0.055316  0  0.989337  0  0  0.057436  0  0.984017  0  0  0.124591  0.053504  0  0.99331  0
H  H6  1  0.47951732  0.37683511  0.58057212  1  0  0.04624  0  0.921653  0  0  0.055296  0  0.989308  0  0  0.057416  0  0.983987  0  0  0.124579  0.053479  0  0.993286  0
H  H7  1  0.02048630  0.87683416  0.91942763  1  0  0.046247  0  0.921672  0  0  0.055303  0  0.989331  0  0  0.057423  0  0.984012  0  0  0.12457  0.053478  0  0.993309  0
H  H8  1  0.52048360  0.87683464  0.58057181  1  0  0.046264  0  0.921644  0  0  0.055318  0  0.989301  0  0  0.057439  0  0.98398  0  0  0.124582  0.053504  0  0.993279  0
H  H9  1  0.97951827  0.37683381  0.91942659  1  0  0.046284  0  0.921625  0  0  0.055342  0  0.989284  0  0  0.057464  0  0.983961  0  0  0.124586  0.053511  0  0.993259  0
H  H10  1  0.52048479  0.62316576  0.41942804  1  0  0.046264  0  0.921645  0  0  0.055319  0  0.9893  0  0  0.05744  0  0.983979  0  0  0.124589  0.053508  0  0.993277  0
H  H11  1  0.97951704  0.12316671  0.08057320  1  0  0.046281  0  0.921662  0  0  0.055337  0  0.989312  0  0  0.057459  0  0.983989  0  0  0.124582  0.053508  0  0.993288  0
H  H12  1  0.69727456  0.04513266  0.35734178  1  0  0.107284  0  0.948214  0  0  0.124933  0  1.01608  0  0  0.12609  0  1.015406  0  0  0.108699  0.124063  0  1.016549  0
H  H13  1  0.80272723  0.54513306  0.14265844  1  0  0.107273  0  0.948202  0  0  0.124918  0  1.016075  0  0  0.126074  0  1.0154  0  0  0.108704  0.124051  0  1.016539  0
H  H14  1  0.69727463  0.45486779  0.64265802  1  0  0.107275  0  0.948221  0  0  0.124927  0  1.016077  0  0  0.126084  0  1.015401  0  0  0.108698  0.124059  0  1.016544  0
H  H15  1  0.80272727  0.95486742  0.85734207  1  0  0.10727  0  0.948224  0  0  0.124919  0  1.016094  0  0  0.126076  0  1.015418  0  0  0.108698  0.12405  0  1.016561  0
H  H16  1  0.30272631  0.95486726  0.64265772  1  0  0.107268  0  0.948233  0  0  0.124921  0  1.016092  0  0  0.126077  0  1.015418  0  0  0.1087  0.124054  0  1.016558  0
H  H17  1  0.19727488  0.45486686  0.85734106  1  0  0.107303  0  0.948225  0  0  0.124953  0  1.016089  0  0  0.126109  0  1.015415  0  0  0.108712  0.124085  0  1.016554  0
H  H18  1  0.30272624  0.54513212  0.35734214  1  0  0.107259  0  0.948232  0  0  0.12491  0  1.016091  0  0  0.126067  0  1.015415  0  0  0.108696  0.124045  0  1.016555  0
H  H19  1  0.19727484  0.04513250  0.14265876  1  0  0.107293  0  0.948227  0  0  0.124944  0  1.016084  0  0  0.126101  0  1.015409  0  0  0.10871  0.124077  0  1.01655  0
H  H20  1  0.85568593  0.16023656  0.33517843  1  0  0.113577  0  0.930674  0  0  0.133279  0  0.990809  0  0  0.134111  0  0.991199  0  0  0.1068  0.132464  0  0.990779  0
H  H21  1  0.64431715  0.66023769  0.16482134  1  0  0.113583  0  0.930693  0  0  0.133287  0  0.990811  0  0  0.134119  0  0.9912  0  0  0.106809  0.132473  0  0.990782  0
H  H22  1  0.85568842  0.33976298  0.66482070  1  0  0.113575  0  0.930646  0  0  0.133265  0  0.990797  0  0  0.134097  0  0.991187  0  0  0.106794  0.132457  0  0.990766  0
H  H23  1  0.64431838  0.83976274  0.83517983  1  0  0.113592  0  0.93069  0  0  0.133303  0  0.990803  0  0  0.134133  0  0.991195  0  0  0.106815  0.132484  0  0.990777  0
H  H24  1  0.14431247  0.83976241  0.66481974  1  0  0.113573  0  0.930645  0  0  0.133267  0  0.990798  0  0  0.134099  0  0.991189  0  0  0.106793  0.132455  0  0.990765  0
H  H25  1  0.35568619  0.33976318  0.83517816  1  0  0.113587  0  0.930676  0  0  0.133288  0  0.990807  0  0  0.134121  0  0.991197  0  0  0.106794  0.132465  0  0.990781  0
H  H26  1  0.14431616  0.66023693  0.33517880  1  0  0.113568  0  0.930695  0  0  0.133265  0  0.990829  0  0  0.134096  0  0.991219  0  0  0.106801  0.132453  0  0.990797  0
H  H27  1  0.35568620  0.16023717  0.16482165  1  0  0.11358  0  0.930677  0  0  0.13328  0  0.990808  0  0  0.134113  0  0.991197  0  0  0.106797  0.132463  0  0.990779  0
H  H28  1  0.72974968  0.10077609  0.24641596  1  0  0.107971  0  0.94606  0  0  0.126985  0  1.010558  0  0  0.128106  0  1.010254  0  0  0.105275  0.126035  0  1.010866  0
H  H29  1  0.77025214  0.60077654  0.25358338  1  0  0.107961  0  0.946093  0  0  0.126976  0  1.010583  0  0  0.128095  0  1.010277  0  0  0.105261  0.12602  0  1.010891  0
H  H30  1  0.72974971  0.39922341  0.75358251  1  0  0.107973  0  0.946096  0  0  0.126991  0  1.010579  0  0  0.12811  0  1.010274  0  0  0.105276  0.126043  0  1.010882  0
H  H31  1  0.77025217  0.89922392  0.74641647  1  0  0.107977  0  0.946066  0  0  0.126992  0  1.010559  0  0  0.128111  0  1.010254  0  0  0.105268  0.126031  0  1.010872  0
H  H32  1  0.27024995  0.89922382  0.75358222  1  0  0.107988  0  0.946076  0  0  0.127009  0  1.010554  0  0  0.128129  0  1.01025  0  0  0.105303  0.126067  0  1.010853  0
H  H33  1  0.22974997  0.39922432  0.74641612  1  0  0.107964  0  0.946077  0  0  0.126976  0  1.010575  0  0  0.128096  0  1.010272  0  0  0.10526  0.126015  0  1.010887  0
H  H34  1  0.27025116  0.60077555  0.24641632  1  0  0.10798  0  0.946055  0  0  0.126993  0  1.010548  0  0  0.128112  0  1.010243  0  0  0.105276  0.126043  0  1.010853  0
H  H35  1  0.22974994  0.10077600  0.25358436  1  0  0.107963  0  0.946067  0  0  0.126975  0  1.010565  0  0  0.128095  0  1.010261  0  0  0.105263  0.126017  0  1.010876  0
H  H36  1  0.53860605  0.41359296  0.29655431  1  0  0.107323  0  0.948532  0  0  0.126912  0  1.011511  0  0  0.12817  0  1.0109  0  0  0.107979  0.125939  0  1.011912  0
H  H37  1  0.96139468  0.91359387  0.20344448  1  0  0.107332  0  0.9486  0  0  0.126916  0  1.011561  0  0  0.128174  0  1.01095  0  0  0.107975  0.125946  0  1.011958  0
H  H38  1  0.53860594  0.08640839  0.70344549  1  0  0.10734  0  0.948567  0  0  0.126926  0  1.011535  0  0  0.128185  0  1.010923  0  0  0.107971  0.125955  0  1.011934  0
H  H39  1  0.96139580  0.58640759  0.79655536  1  0  0.107319  0  0.94859  0  0  0.126905  0  1.011563  0  0  0.128163  0  1.010951  0  0  0.107959  0.125931  0  1.011961  0
H  H40  1  0.46139359  0.58640790  0.70344519  1  0  0.107281  0  0.948511  0  0  0.126863  0  1.011487  0  0  0.128101  0  1.010899  0  0  0.107939  0.125891  0  1.011887  0
H  H41  1  0.03860743  0.08640795  0.79655635  1  0  0.107323  0  0.948604  0  0  0.126899  0  1.011576  0  0  0.128158  0  1.010963  0  0  0.10796  0.125923  0  1.011979  0
H  H42  1  0.46139369  0.91359152  0.29655467  1  0  0.107352  0  0.948565  0  0  0.126934  0  1.011526  0  0  0.128192  0  1.010916  0  0  0.107972  0.125963  0  1.011924  0
H  H43  1  0.03860631  0.41359137  0.20344480  1  0  0.107303  0  0.948513  0  0  0.126858  0  1.011521  0  0  0.128117  0  1.010908  0  0  0.107927  0.125881  0  1.011926  0
H  H44  1  0.65181618  0.33013169  0.21282926  1  0  0.109243  0  0.957942  0  0  0.127648  0  1.023551  0  0  0.128434  0  1.023605  0  0  0.10345  0.126908  0  1.023718  0
H  H45  1  0.84818451  0.83013094  0.28717052  1  0  0.109214  0  0.957938  0  0  0.127602  0  1.023555  0  0  0.128388  0  1.023608  0  0  0.103435  0.126857  0  1.023728  0
H  H46  1  0.65181610  0.16986969  0.78717121  1  0  0.109248  0  0.957934  0  0  0.127642  0  1.023556  0  0  0.128429  0  1.02361  0  0  0.103453  0.126907  0  1.023722  0
H  H47  1  0.84818567  0.66987049  0.71282999  1  0  0.109251  0  0.957942  0  0  0.127653  0  1.023552  0  0  0.128439  0  1.023606  0  0  0.103461  0.126902  0  1.02373  0
H  H48  1  0.34818469  0.66986918  0.78717157  1  0  0.109229  0  0.957943  0  0  0.127619  0  1.023565  0  0  0.128405  0  1.023617  0  0  0.103446  0.126885  0  1.02373  0
H  H49  1  0.15181760  0.16986897  0.71282898  1  0  0.109217  0  0.957862  0  0  0.127595  0  1.023505  0  0  0.128381  0  1.023559  0  0  0.103422  0.126845  0  1.02368  0
H  H50  1  0.34818477  0.83013022  0.21282896  1  0  0.109245  0  0.957951  0  0  0.127636  0  1.023567  0  0  0.128422  0  1.023621  0  0  0.10344  0.126897  0  1.023736  0
H  H51  1  0.15181643  0.33013037  0.28717084  1  0  0.109237  0  0.95794  0  0  0.127629  0  1.02355  0  0  0.128415  0  1.023604  0  0  0.103445  0.126884  0  1.023722  0
H  H52  1  0.75741715  0.39219033  0.30845303  1  0  0.111241  0  0.960406  0  0  0.126255  0  1.031197  0  0  0.127841  0  1.029781  0  0  0.103165  0.124858  0  1.032476  0
H  H53  1  0.74258357  0.89218937  0.19154584  1  0  0.111245  0  0.960399  0  0  0.126249  0  1.031191  0  0  0.127835  0  1.029774  0  0  0.10316  0.124857  0  1.032466  0
H  H54  1  0.75741706  0.10781108  0.69154743  1  0  0.111268  0  0.96038  0  0  0.126278  0  1.03117  0  0  0.127863  0  1.029754  0  0  0.103172  0.124886  0  1.032446  0
H  H55  1  0.74258593  0.60781108  0.80845401  1  0  0.111259  0  0.960379  0  0  0.126273  0  1.031165  0  0  0.127858  0  1.029749  0  0  0.103168  0.124874  0  1.032446  0
H  H56  1  0.24258372  0.60781053  0.69154713  1  0  0.111262  0  0.960389  0  0  0.126267  0  1.031181  0  0  0.127854  0  1.029761  0  0  0.103172  0.124878  0  1.032454  0
H  H57  1  0.25741607  0.10780959  0.80845433  1  0  0.111224  0  0.960466  0  0  0.126222  0  1.031255  0  0  0.127807  0  1.029839  0  0  0.103143  0.124824  0  1.032533  0
H  H58  1  0.24258381  0.89218788  0.30845274  1  0  0.111276  0  0.96039  0  0  0.126275  0  1.031187  0  0  0.127861  0  1.029768  0  0  0.103169  0.124885  0  1.032461  0
H  H59  1  0.25741618  0.39218978  0.19154682  1  0  0.111238  0  0.96043  0  0  0.126242  0  1.031211  0  0  0.127826  0  1.029797  0  0  0.103161  0.124844  0  1.03249  0
C  C60  1  0.48723285  0.21763871  0.38766518  1  0  0.38348  0  3.824616  0  0  0.309525  0  4.107813  0  0  0.337846  0  4.109457  0  0  0.172528  0.290561  0  4.106233  0
C  C61  1  0.01276830  0.71764118  0.11233439  1  0  0.38356  0  3.824786  0  0  0.309606  0  4.107992  0  0  0.337926  0  4.109636  0  0  0.172552  0.290638  0  4.106408  0
C  C62  1  0.48723285  0.28236168  0.61233396  1  0  0.38357  0  3.82453  0  0  0.30962  0  4.107724  0  0  0.337942  0  4.109366  0  0  0.172557  0.290654  0  4.10614  0
C  C63  1  0.01276825  0.78236003  0.88766615  1  0  0.383547  0  3.824759  0  0  0.309593  0  4.107965  0  0  0.337913  0  4.109609  0  0  0.172522  0.290612  0  4.106381  0
C  C64  1  0.51276678  0.78236120  0.61233432  1  0  0.383495  0  3.824615  0  0  0.309546  0  4.107806  0  0  0.337868  0  4.109448  0  0  0.172557  0.290585  0  4.106224  0
C  C65  1  0.98722886  0.28235968  0.88766445  1  0  0.383443  0  3.824582  0  0  0.309472  0  4.107823  0  0  0.337792  0  4.109466  0  0  0.172471  0.290505  0  4.106234  0
C  C66  1  0.51276802  0.71763919  0.38766554  1  0  0.383544  0  3.824644  0  0  0.309594  0  4.107851  0  0  0.337916  0  4.109491  0  0  0.172535  0.290629  0  4.106269  0
C  C67  1  0.98722891  0.21764084  0.11233534  1  0  0.383352  0  3.824692  0  0  0.309407  0  4.1079  0  0  0.337728  0  4.109542  0  0  0.172432  0.290452  0  4.106311  0
C  C68  1  0.04787424  0.98086910  0.45632654  1  0  0.522993  0  3.944786  0  0  0.483171  0  4.233128  0  0  0.512569  0  4.228791  0  0  0.196292  0.463052  0  4.235022  0
C  C69  1  0.45211961  0.48087511  0.04367399  1  0  0.523232  0  3.944451  0  0  0.483396  0  4.232809  0  0  0.512797  0  4.228466  0  0  0.196375  0.46327  0  4.234705  0
C  C70  1  0.04787537  0.51913021  0.54367333  1  0  0.523024  0  3.944686  0  0  0.483205  0  4.233019  0  0  0.512603  0  4.228679  0  0  0.196319  0.463083  0  4.234918  0
C  C71  1  0.45211944  0.01912623  0.95632582  1  0  0.523239  0  3.944528  0  0  0.483402  0  4.23289  0  0  0.512803  0  4.228546  0  0  0.196351  0.463274  0  4.234785  0
C  C72  1  0.95212045  0.01912605  0.54367428  1  0  0.523235  0  3.944466  0  0  0.483403  0  4.232815  0  0  0.512803  0  4.228475  0  0  0.196338  0.46328  0  4.234711  0
C  C73  1  0.54787260  0.51913243  0.95632683  1  0  0.523073  0  3.944681  0  0  0.483253  0  4.233017  0  0  0.512652  0  4.228676  0  0  0.19635  0.463134  0  4.234909  0
C  C74  1  0.95212180  0.48087446  0.45632551  1  0  0.523268  0  3.944442  0  0  0.483449  0  4.232776  0  0  0.512848  0  4.228433  0  0  0.196382  0.463328  0  4.234672  0
C  C75  1  0.54787401  0.98086702  0.04367368  1  0  0.523072  0  3.944687  0  0  0.483255  0  4.23302  0  0  0.512653  0  4.22868  0  0  0.19636  0.463134  0  4.234912  0
C  C76  1  0.73098407  0.12800797  0.31684829  1  0  -0.182357  0  3.632109  0  0  -0.281913  0  3.877316  0  0  -0.279436  0  3.888693  0  0  -0.131092  -0.283263  0  3.869593  0
C  C77  1  0.76901776  0.62800899  0.18315161  1  0  -0.18234  0  3.632082  0  0  -0.281884  0  3.877309  0  0  -0.279404  0  3.888683  0  0  -0.131105  -0.283233  0  3.869583  0
C  C78  1  0.73098534  0.37199248  0.68315151  1  0  -0.182354  0  3.632118  0  0  -0.2819  0  3.877325  0  0  -0.27942  0  3.888698  0  0  -0.131077  -0.283251  0  3.869596  0
C  C79  1  0.76901777  0.87199147  0.81684890  1  0  -0.182369  0  3.632084  0  0  -0.281919  0  3.877299  0  0  -0.279441  0  3.888675  0  0  -0.131128  -0.283268  0  3.86958  0
C  C80  1  0.26901556  0.87199194  0.68315055  1  0  -0.182357  0  3.632145  0  0  -0.281906  0  3.87735  0  0  -0.279427  0  3.888727  0  0  -0.131104  -0.283255  0  3.869615  0
C  C81  1  0.23098435  0.37199188  0.81684789  1  0  -0.182431  0  3.632113  0  0  -0.281982  0  3.877316  0  0  -0.279505  0  3.888694  0  0  -0.131119  -0.283332  0  3.869596  0
C  C82  1  0.26901553  0.62800743  0.31684932  1  0  -0.182318  0  3.632119  0  0  -0.281862  0  3.877334  0  0  -0.279382  0  3.88871  0  0  -0.131092  -0.28321  0  3.869602  0
C  C83  1  0.23098434  0.12800844  0.18315193  1  0  -0.182393  0  3.632092  0  0  -0.281935  0  3.8773  0  0  -0.279459  0  3.888677  0  0  -0.131112  -0.283285  0  3.869579  0
C  C84  1  0.64224409  0.34922524  0.28416229  1  0  -0.181191  0  3.622884  0  0  -0.281191  0  3.866253  0  0  -0.277865  0  3.87513  0  0  -0.140252  -0.283098  0  3.860386  0
C  C85  1  0.85775661  0.84922697  0.21583741  1  0  -0.181187  0  3.622891  0  0  -0.281113  0  3.866169  0  0  -0.277785  0  3.875046  0  0  -0.14024  -0.283022  0  3.8603  0
C  C86  1  0.64224401  0.15077519  0.71583751  1  0  -0.181255  0  3.622911  0  0  -0.281231  0  3.866242  0  0  -0.277906  0  3.87512  0  0  -0.140251  -0.283142  0  3.860372  0
C  C87  1  0.85775652  0.65077352  0.78416244  1  0  -0.181198  0  3.622861  0  0  -0.281173  0  3.866188  0  0  -0.277845  0  3.875064  0  0  -0.140254  -0.283078  0  3.860327  0
C  C88  1  0.35775554  0.65077563  0.71583787  1  0  -0.181163  0  3.622838  0  0  -0.281119  0  3.866164  0  0  -0.277776  0  3.875054  0  0  -0.140207  -0.28303  0  3.860291  0
C  C89  1  0.14224550  0.15077390  0.78416408  1  0  -0.181187  0  3.622912  0  0  -0.281104  0  3.866187  0  0  -0.277778  0  3.875067  0  0  -0.140212  -0.283015  0  3.860328  0
C  C90  1  0.35775562  0.84922567  0.28416199  1  0  -0.181276  0  3.622936  0  0  -0.281207  0  3.866212  0  0  -0.277881  0  3.875088  0  0  -0.140253  -0.283116  0  3.860341  0
C  C91  1  0.14224559  0.34922545  0.21583773  1  0  -0.181191  0  3.622864  0  0  -0.281101  0  3.86615  0  0  -0.277774  0  3.875028  0  0  -0.140211  -0.283013  0  3.860294  0
N  N92  1  0.61315673  0.23065190  0.33161864  1  0  -0.064908  0  3.504606  0  0  0.039774  0  3.734705  0  0  0.020197  0  3.760037  0  0  -0.275814  0.052726  0  3.717243  0
N  N93  1  0.88684391  0.73065211  0.16838218  1  0  -0.064919  0  3.504499  0  0  0.039727  0  3.734609  0  0  0.02015  0  3.75994  0  0  -0.275787  0.052686  0  3.717146  0
N  N94  1  0.61315672  0.26934853  0.66838116  1  0  -0.064896  0  3.504558  0  0  0.03977  0  3.734667  0  0  0.020192  0  3.759999  0  0  -0.275798  0.052733  0  3.717203  0
N  N95  1  0.88684387  0.76934838  0.83161832  1  0  -0.064911  0  3.504475  0  0  0.039749  0  3.734588  0  0  0.020171  0  3.759918  0  0  -0.27578  0.052702  0  3.717122  0
N  N96  1  0.38684290  0.76934897  0.66838086  1  0  -0.064914  0  3.504618  0  0  0.039742  0  3.73473  0  0  0.020166  0  3.760057  0  0  -0.275817  0.052701  0  3.717272  0
N  N97  1  0.11315696  0.26934780  0.83161864  1  0  -0.064761  0  3.504446  0  0  0.039903  0  3.734538  0  0  0.020325  0  3.759873  0  0  -0.275754  0.052847  0  3.717078  0
N  N98  1  0.38684416  0.73065044  0.33161834  1  0  -0.064932  0  3.504615  0  0  0.039712  0  3.734729  0  0  0.020134  0  3.760059  0  0  -0.275771  0.052668  0  3.717271  0
N  N99  1  0.11315577  0.23065154  0.16838184  1  0  -0.064818  0  3.504461  0  0  0.039822  0  3.734562  0  0  0.020244  0  3.759894  0  0  -0.275772  0.052768  0  3.717105  0
O  O100  1  0.14699754  0.06156225  0.42315129  1  0  -0.609689  0  2.037983  0  0  -0.552967  0  2.282547  0  0  -0.580006  0  2.273252  0  0  -0.324875  -0.533052  0  2.288126  0
O  O101  1  0.35299488  0.56156034  0.07684954  1  0  -0.609766  0  2.037954  0  0  -0.553037  0  2.282525  0  0  -0.580067  0  2.273214  0  0  -0.324921  -0.53311  0  2.288098  0
O  O102  1  0.14699885  0.43843900  0.57684919  1  0  -0.609724  0  2.037955  0  0  -0.552999  0  2.28251  0  0  -0.580037  0  2.273215  0  0  -0.32491  -0.533077  0  2.288087  0
O  O103  1  0.35299614  0.93843811  0.92315032  1  0  -0.609762  0  2.03797  0  0  -0.553037  0  2.282545  0  0  -0.580067  0  2.273234  0  0  -0.324912  -0.533125  0  2.288123  0
O  O104  1  0.85299715  0.93843671  0.57685020  1  0  -0.609777  0  2.037936  0  0  -0.55305  0  2.282508  0  0  -0.580082  0  2.273198  0  0  -0.324919  -0.533136  0  2.288086  0
O  O105  1  0.64699857  0.43843958  0.92315128  1  0  -0.609733  0  2.037905  0  0  -0.553012  0  2.282468  0  0  -0.580051  0  2.273172  0  0  -0.324893  -0.533078  0  2.288035  0
O  O106  1  0.85299831  0.56156472  0.42315097  1  0  -0.609838  0  2.037982  0  0  -0.553115  0  2.282551  0  0  -0.580151  0  2.273249  0  0  -0.324949  -0.533198  0  2.28813  0
O  O107  1  0.64699855  0.06155990  0.07684918  1  0  -0.609736  0  2.037927  0  0  -0.553014  0  2.28249  0  0  -0.580052  0  2.273194  0  0  -0.324918  -0.533098  0  2.288066  0
O  O108  1  0.02056797  0.87185300  0.42365114  1  0  -0.595425  0  2.047003  0  0  -0.538298  0  2.290725  0  0  -0.564462  0  2.28147  0  0  -0.318427  -0.519312  0  2.296575  0
O  O109  1  0.47942830  0.37185018  0.07634650  1  0  -0.595611  0  2.046776  0  0  -0.538476  0  2.290492  0  0  -0.564643  0  2.281233  0  0  -0.3185  -0.519473  0  2.296335  0
O  O110  1  0.02056914  0.62814726  0.57634940  1  0  -0.595443  0  2.046963  0  0  -0.538317  0  2.290687  0  0  -0.564482  0  2.281431  0  0  -0.318434  -0.519318  0  2.296532  0
O  O111  1  0.47942818  0.12814926  0.92365264  1  0  -0.595628  0  2.046863  0  0  -0.53849  0  2.290584  0  0  -0.564656  0  2.281323  0  0  -0.318515  -0.5195  0  2.296431  0
O  O112  1  0.97943042  0.12814691  0.57634902  1  0  -0.595587  0  2.046794  0  0  -0.53845  0  2.290525  0  0  -0.564617  0  2.281267  0  0  -0.318481  -0.51946  0  2.296374  0
O  O113  1  0.52056762  0.62814688  0.92365167  1  0  -0.595458  0  2.047032  0  0  -0.538337  0  2.29076  0  0  -0.5645  0  2.281503  0  0  -0.318453  -0.519346  0  2.296606  0
O  O114  1  0.97943049  0.37185361  0.42365143  1  0  -0.595536  0  2.046717  0  0  -0.538424  0  2.290462  0  0  -0.56459  0  2.281203  0  0  -0.318461  -0.519419  0  2.296304  0
O  O115  1  0.52056774  0.87185256  0.07634885  1  0  -0.59544  0  2.047014  0  0  -0.538335  0  2.290767  0  0  -0.564498  0  2.281513  0  0  -0.31845  -0.519355  0  2.296618  0
O  O116  1  0.38304070  0.30403455  0.40397696  1  0  -0.567604  0  2.07903  0  0  -0.508324  0  2.340021  0  0  -0.535184  0  2.332322  0  0  -0.319433  -0.489849  0  2.344919  0
O  O117  1  0.11695926  0.80403337  0.09602426  1  0  -0.567658  0  2.079197  0  0  -0.508386  0  2.340198  0  0  -0.535243  0  2.332497  0  0  -0.31943  -0.48988  0  2.3451  0
O  O118  1  0.38304066  0.19596581  0.59602219  1  0  -0.567663  0  2.079019  0  0  -0.508391  0  2.34002  0  0  -0.535249  0  2.332318  0  0  -0.319437  -0.489891  0  2.344917  0
O  O119  1  0.11695917  0.69596692  0.90397627  1  0  -0.567657  0  2.079182  0  0  -0.508381  0  2.34018  0  0  -0.535238  0  2.332479  0  0  -0.319454  -0.489911  0  2.345094  0
O  O120  1  0.61695894  0.69596536  0.59602320  1  0  -0.567603  0  2.079066  0  0  -0.508325  0  2.34005  0  0  -0.535182  0  2.332347  0  0  -0.319406  -0.489817  0  2.344944  0
O  O121  1  0.88304038  0.19596464  0.90397723  1  0  -0.567647  0  2.079079  0  0  -0.508365  0  2.34008  0  0  -0.535222  0  2.332379  0  0  -0.31942  -0.489865  0  2.344972  0
O  O122  1  0.61695898  0.80403410  0.40397665  1  0  -0.567658  0  2.079072  0  0  -0.508383  0  2.340068  0  0  -0.535241  0  2.332367  0  0  -0.319421  -0.489873  0  2.344967  0
O  O123  1  0.88304046  0.30403586  0.09602257  1  0  -0.567533  0  2.079151  0  0  -0.50825  0  2.340125  0  0  -0.535108  0  2.332425  0  0  -0.319361  -0.489766  0  2.345017  0
