# generated using pymatgen
data_CuH6C9IN6
_symmetry_space_group_name_H-M   'P 1'
_cell_length_a   4.86989235
_cell_length_b   12.97438104
_cell_length_c   16.85908303
_cell_angle_alpha   104.26853155
_cell_angle_beta   90.00060227
_cell_angle_gamma   89.99968628
_symmetry_Int_Tables_number   1
_chemical_formula_structural   CuH6C9IN6
_chemical_formula_sum   'Cu4 H24 C36 I4 N24'
_cell_volume   1032.36082644
_cell_formula_units_Z   4
loop_
 _symmetry_equiv_pos_site_id
 _symmetry_equiv_pos_as_xyz
  1  'x, y, z'
loop_
 _atom_site_type_symbol
 _atom_site_label
 _atom_site_symmetry_multiplicity
 _atom_site_fract_x
 _atom_site_fract_y
 _atom_site_fract_z
 _atom_site_occupancy
 _atom_site_hle17_bader_spin_density
 _atom_site_hle17_ddec_charge
 _atom_site_hle17_ddec_spin_density
 _atom_site_hle17_ddec_sum_bond_order
 _atom_site_hle17_magmom
 _atom_site_hse06_10hf_bader_spin_density
 _atom_site_hse06_10hf_ddec_charge
 _atom_site_hse06_10hf_ddec_spin_density
 _atom_site_hse06_10hf_ddec_sum_bond_order
 _atom_site_hse06_10hf_magmom
 _atom_site_hse06_bader_spin_density
 _atom_site_hse06_ddec_charge
 _atom_site_hse06_ddec_spin_density
 _atom_site_hse06_ddec_sum_bond_order
 _atom_site_hse06_magmom
 _atom_site_pbe_bader_spin_density
 _atom_site_pbe_cm5_charge
 _atom_site_pbe_ddec_charge
 _atom_site_pbe_ddec_spin_density
 _atom_site_pbe_ddec_sum_bond_order
 _atom_site_pbe_magmom
Cu  Cu0  1  0.45904954  0.93941671  0.68345044  1  0  0.318278  0  1.964444  0  0  0.229299  0  2.418136  0  0  0.244671  0  2.36837  0  0  0.268341  0.220011  0  2.452109  0
Cu  Cu1  1  0.95902596  0.06057341  0.81654577  1  0  0.318184  0  1.964649  0  0  0.229229  0  2.418363  0  0  0.244588  0  2.3686  0  0  0.268391  0.219939  0  2.452354  0
Cu  Cu2  1  0.54097852  0.06058564  0.31655573  1  0  0.318296  0  1.964432  0  0  0.229332  0  2.418068  0  0  0.244706  0  2.368306  0  0  0.268357  0.220055  0  2.452055  0
Cu  Cu3  1  0.04094460  0.93942048  0.18344799  1  0  0.318225  0  1.964461  0  0  0.229262  0  2.418123  0  0  0.244626  0  2.368357  0  0  0.268378  0.219984  0  2.452122  0
H  H4  1  0.44529290  0.77820664  0.37181308  1  0  0.132523  0  0.941502  0  0  0.144324  0  0.997798  0  0  0.147  0  0.996777  0  0  0.123744  0.142244  0  0.998887  0
H  H5  1  0.94529081  0.22178323  0.12818137  1  0  0.132447  0  0.94158  0  0  0.144286  0  0.997831  0  0  0.146959  0  0.996817  0  0  0.12376  0.142199  0  0.998932  0
H  H6  1  0.55472079  0.22180207  0.62819439  1  0  0.132487  0  0.941405  0  0  0.144279  0  0.997733  0  0  0.146959  0  0.996698  0  0  0.1237  0.142175  0  0.998843  0
H  H7  1  0.05470850  0.77820586  0.87181259  1  0  0.132532  0  0.941404  0  0  0.14434  0  0.997709  0  0  0.147018  0  0.996683  0  0  0.12375  0.142256  0  0.998801  0
H  H8  1  0.25081589  0.92432299  0.51007867  1  0  0.110425  0  0.963882  0  0  0.117415  0  1.029208  0  0  0.120314  0  1.028162  0  0  0.103581  0.115229  0  1.030206  0
H  H9  1  0.75082947  0.07566435  0.98991221  1  0  0.110319  0  0.963904  0  0  0.11735  0  1.029199  0  0  0.120224  0  1.028182  0  0  0.103552  0.115166  0  1.030197  0
H  H10  1  0.74920396  0.07568416  0.48992730  1  0  0.110534  0  0.963813  0  0  0.117503  0  1.029161  0  0  0.120403  0  1.028111  0  0  0.103594  0.115314  0  1.030166  0
H  H11  1  0.24918832  0.92432312  0.01008261  1  0  0.110443  0  0.96381  0  0  0.11745  0  1.029121  0  0  0.120349  0  1.028077  0  0  0.103603  0.115265  0  1.030118  0
H  H12  1  0.91432591  0.81536900  0.71369178  1  0  0.105312  0  1.026374  0  0  0.106787  0  1.105372  0  0  0.111749  0  1.099975  0  0  0.097146  0.10298  0  1.109643  0
H  H13  1  0.41434310  0.18462682  0.78630310  1  0  0.105292  0  1.02633  0  0  0.106732  0  1.105379  0  0  0.111687  0  1.099995  0  0  0.097143  0.102926  0  1.109652  0
H  H14  1  0.08564055  0.18463179  0.28631289  1  0  0.105376  0  1.026333  0  0  0.106841  0  1.105339  0  0  0.111797  0  1.099952  0  0  0.097193  0.103036  0  1.109615  0
H  H15  1  0.58563157  0.81537271  0.21368945  1  0  0.105414  0  1.026276  0  0  0.106875  0  1.105302  0  0  0.111834  0  1.099912  0  0  0.097188  0.103067  0  1.109573  0
H  H16  1  0.36112991  0.68404128  0.72116841  1  0  0.109817  0  0.954371  0  0  0.117889  0  1.014631  0  0  0.120506  0  1.013815  0  0  0.112786  0.115988  0  1.01531  0
H  H17  1  0.86115893  0.31595618  0.77882724  1  0  0.109815  0  0.954262  0  0  0.117967  0  1.014456  0  0  0.120596  0  1.01361  0  0  0.112756  0.11606  0  1.015147  0
H  H18  1  0.63883655  0.31596897  0.27884116  1  0  0.109799  0  0.954188  0  0  0.11783  0  1.0145  0  0  0.120447  0  1.013684  0  0  0.112738  0.115937  0  1.015178  0
H  H19  1  0.13881779  0.68404428  0.22116075  1  0  0.109787  0  0.954287  0  0  0.117825  0  1.014589  0  0  0.120443  0  1.013772  0  0  0.112761  0.115929  0  1.015268  0
H  H20  1  0.38656341  0.49388244  0.41872247  1  0  0.126545  0  0.991902  0  0  0.124919  0  1.06947  0  0  0.130199  0  1.064938  0  0  0.114497  0.121021  0  1.072872  0
H  H21  1  0.88655979  0.50611778  0.08127631  1  0  0.126515  0  0.991896  0  0  0.124872  0  1.069488  0  0  0.130161  0  1.064943  0  0  0.114468  0.120972  0  1.072887  0
H  H22  1  0.61347902  0.50613102  0.58128658  1  0  0.126759  0  0.991766  0  0  0.125087  0  1.06938  0  0  0.130386  0  1.064822  0  0  0.114556  0.121174  0  1.072789  0
H  H23  1  0.11344158  0.49387229  0.91871133  1  0  0.126645  0  0.991776  0  0  0.125005  0  1.06935  0  0  0.130282  0  1.064824  0  0  0.114535  0.121093  0  1.072757  0
H  H24  1  0.14524523  0.48827405  0.26923138  1  0  0.105999  0  0.988484  0  0  0.112061  0  1.05218  0  0  0.114934  0  1.051169  0  0  0.113655  0.110007  0  1.05297  0
H  H25  1  0.64525334  0.51172008  0.23076722  1  0  0.10603  0  0.988373  0  0  0.11209  0  1.052068  0  0  0.114966  0  1.051055  0  0  0.113674  0.110036  0  1.052857  0
H  H26  1  0.85476230  0.51173133  0.73078076  1  0  0.105939  0  0.988448  0  0  0.112141  0  1.052011  0  0  0.115013  0  1.051001  0  0  0.11366  0.110081  0  1.052799  0
H  H27  1  0.35475829  0.48827471  0.76922316  1  0  0.106023  0  0.988424  0  0  0.112148  0  1.052042  0  0  0.115022  0  1.051032  0  0  0.113669  0.110087  0  1.052831  0
C  C28  1  0.50307351  0.79399027  0.43558898  1  0  -0.024521  0  3.655086  0  0  -0.070392  0  3.925731  0  0  -0.0677  0  3.942869  0  0  -0.001421  -0.072327  0  3.914625  0
C  C29  1  0.00307791  0.20600111  0.06440033  1  0  -0.024524  0  3.655262  0  0  -0.070417  0  3.925974  0  0  -0.06773  0  3.943114  0  0  -0.001531  -0.072347  0  3.914873  0
C  C30  1  0.49692991  0.20601450  0.56441650  1  0  -0.024387  0  3.655029  0  0  -0.070263  0  3.925683  0  0  -0.067567  0  3.942827  0  0  -0.001297  -0.072173  0  3.914576  0
C  C31  1  0.99691934  0.79399201  0.93559268  1  0  -0.024501  0  3.654931  0  0  -0.070412  0  3.925564  0  0  -0.067722  0  3.942706  0  0  -0.001431  -0.072341  0  3.914454  0
C  C32  1  0.41067598  0.86485897  0.50453423  1  0  0.011088  0  3.70962  0  0  -0.027679  0  3.98771  0  0  -0.025813  0  4.005466  0  0  -0.011076  -0.029081  0  3.976207  0
C  C33  1  0.91066638  0.13513150  0.99545182  1  0  0.011156  0  3.709364  0  0  -0.027634  0  3.987468  0  0  -0.02575  0  4.005231  0  0  -0.01112  -0.029037  0  3.975968  0
C  C34  1  0.58934386  0.13514747  0.49546863  1  0  0.010954  0  3.709702  0  0  -0.027824  0  3.987827  0  0  -0.025941  0  4.005578  0  0  -0.011137  -0.029231  0  3.976323  0
C  C35  1  0.08932472  0.86486242  0.00454135  1  0  0.011026  0  3.709421  0  0  -0.027757  0  3.987543  0  0  -0.025892  0  4.005299  0  0  -0.011095  -0.029163  0  3.976044  0
C  C36  1  0.87879697  0.65758910  0.41733263  1  0  0.418117  0  3.785002  0  0  0.36115  0  4.077777  0  0  0.381893  0  4.087208  0  0  0.324032  0.347532  0  4.071139  0
C  C37  1  0.37881048  0.34240646  0.08266161  1  0  0.418569  0  3.784799  0  0  0.361475  0  4.077779  0  0  0.382225  0  4.087201  0  0  0.32415  0.347858  0  4.071141  0
C  C38  1  0.12120028  0.34241399  0.58267548  1  0  0.418306  0  3.784671  0  0  0.361368  0  4.077416  0  0  0.382106  0  4.086851  0  0  0.324033  0.347749  0  4.070773  0
C  C39  1  0.62118061  0.65758665  0.91733199  1  0  0.41847  0  3.784491  0  0  0.361382  0  4.07739  0  0  0.38212  0  4.086826  0  0  0.324119  0.34777  0  4.070739  0
C  C40  1  0.73761271  0.77717480  0.54552952  1  0  0.439103  0  3.703125  0  0  0.383781  0  3.979314  0  0  0.40636  0  3.989213  0  0  0.334816  0.368827  0  3.972565  0
C  C41  1  0.23761316  0.22281728  0.95446407  1  0  0.438908  0  3.703448  0  0  0.383799  0  3.979418  0  0  0.406306  0  3.989395  0  0  0.334757  0.368876  0  3.972631  0
C  C42  1  0.26239070  0.22282995  0.45447655  1  0  0.438908  0  3.703328  0  0  0.383626  0  3.979442  0  0  0.406212  0  3.989348  0  0  0.334579  0.368669  0  3.972691  0
C  C43  1  0.76238615  0.77717426  0.04552803  1  0  0.438856  0  3.703424  0  0  0.383432  0  3.979643  0  0  0.406005  0  3.989552  0  0  0.334677  0.368481  0  3.972883  0
C  C44  1  0.11187073  0.65367389  0.54324810  1  0  0.421727  0  3.778476  0  0  0.365647  0  4.071049  0  0  0.387168  0  4.080598  0  0  0.326143  0.351554  0  4.06417  0
C  C45  1  0.61188142  0.34632551  0.95674663  1  0  0.42203  0  3.778216  0  0  0.365942  0  4.070775  0  0  0.387462  0  4.080324  0  0  0.326195  0.35186  0  4.063885  0
C  C46  1  0.88813064  0.34633644  0.45675853  1  0  0.421433  0  3.778999  0  0  0.365413  0  4.071498  0  0  0.386926  0  4.081054  0  0  0.32607  0.351341  0  4.064604  0
C  C47  1  0.38810762  0.65367327  0.04324398  1  0  0.421604  0  3.778851  0  0  0.365595  0  4.071242  0  0  0.387112  0  4.080799  0  0  0.326132  0.351521  0  4.064343  0
C  C48  1  0.01957669  0.75606094  0.66695730  1  0  -0.047065  0  3.645533  0  0  -0.085253  0  3.909109  0  0  -0.083201  0  3.923077  0  0  -0.007787  -0.086932  0  3.900447  0
C  C49  1  0.51959437  0.24393531  0.83304007  1  0  -0.047028  0  3.645564  0  0  -0.085209  0  3.909201  0  0  -0.083151  0  3.923171  0  0  -0.007802  -0.086894  0  3.900552  0
C  C50  1  0.98041646  0.24394621  0.33304867  1  0  -0.047281  0  3.64561  0  0  -0.085512  0  3.909225  0  0  -0.083451  0  3.923183  0  0  -0.007871  -0.087192  0  3.900591  0
C  C51  1  0.48039878  0.75606096  0.16695477  1  0  -0.047133  0  3.645539  0  0  -0.085389  0  3.9091  0  0  -0.083334  0  3.923063  0  0  -0.007825  -0.087069  0  3.900457  0
C  C52  1  0.23793519  0.68941108  0.66864095  1  0  0.027548  0  3.721019  0  0  0.000731  0  3.990464  0  0  0.003097  0  4.007403  0  0  0.002127  -0.000786  0  3.979145  0
C  C53  1  0.73795600  0.31058495  0.83135464  1  0  0.027579  0  3.720806  0  0  0.00067  0  3.990215  0  0  0.00304  0  4.007162  0  0  0.002212  -0.000842  0  3.978894  0
C  C54  1  0.76205796  0.31059690  0.33136401  1  0  0.027658  0  3.720775  0  0  0.000911  0  3.990196  0  0  0.003281  0  4.007133  0  0  0.002174  -0.000611  0  3.978904  0
C  C55  1  0.26203509  0.68940985  0.16863574  1  0  0.027531  0  3.720999  0  0  0.000746  0  3.990472  0  0  0.003116  0  4.00741  0  0  0.002093  -0.000777  0  3.979171  0
C  C56  1  0.21864327  0.54000803  0.40233959  1  0  -0.038466  0  3.611007  0  0  -0.084442  0  3.881874  0  0  -0.08387  0  3.899358  0  0  -0.00778  -0.084715  0  3.870365  0
C  C57  1  0.71864089  0.45998775  0.09765422  1  0  -0.038306  0  3.610872  0  0  -0.084244  0  3.8817  0  0  -0.083672  0  3.899179  0  0  -0.007721  -0.084514  0  3.870182  0
C  C58  1  0.78138890  0.46000464  0.59766929  1  0  -0.038945  0  3.611109  0  0  -0.084935  0  3.882056  0  0  -0.084379  0  3.89953  0  0  -0.008013  -0.085198  0  3.87055  0
C  C59  1  0.28136253  0.54000463  0.90233685  1  0  -0.038707  0  3.610993  0  0  -0.084662  0  3.881871  0  0  -0.084089  0  3.899358  0  0  -0.00789  -0.084928  0  3.870364  0
C  C60  1  0.09639688  0.53981861  0.32880030  1  0  0.018079  0  3.718012  0  0  -0.004141  0  3.985088  0  0  -0.003195  0  4.004024  0  0  0.002217  -0.004743  0  3.972343  0
C  C61  1  0.59638701  0.46017966  0.17119545  1  0  0.018091  0  3.71762  0  0  -0.004128  0  3.984678  0  0  -0.003186  0  4.003614  0  0  0.002243  -0.004733  0  3.971933  0
C  C62  1  0.90362913  0.46019076  0.67121206  1  0  0.018318  0  3.717847  0  0  -0.003988  0  3.984814  0  0  -0.003039  0  4.003754  0  0  0.002429  -0.004584  0  3.972046  0
C  C63  1  0.40361846  0.53981506  0.82879729  1  0  0.018183  0  3.717825  0  0  -0.004076  0  3.984864  0  0  -0.003131  0  4.003803  0  0  0.002311  -0.004674  0  3.972103  0
I  I64  1  0.54979358  0.93411844  0.83028250  1  0  -0.421713  0  1.657548  0  0  -0.360236  0  2.113396  0  0  -0.37682  0  2.06923  0  0  -0.188502  -0.347924  0  2.144054  0
I  I65  1  0.04981003  0.06587207  0.66971852  1  0  -0.421722  0  1.657554  0  0  -0.3602  0  2.113326  0  0  -0.376787  0  2.069174  0  0  -0.188498  -0.347883  0  2.143968  0
I  I66  1  0.45019752  0.06587658  0.16972810  1  0  -0.421717  0  1.657511  0  0  -0.360242  0  2.113345  0  0  -0.376815  0  2.069172  0  0  -0.188518  -0.347937  0  2.144014  0
I  I67  1  0.95019749  0.93412077  0.33028451  1  0  -0.421782  0  1.657355  0  0  -0.360313  0  2.113172  0  0  -0.37689  0  2.069017  0  0  -0.18855  -0.348007  0  2.143831  0
N  N68  1  0.07533472  0.61618426  0.46005122  1  0  -0.204162  0  3.603885  0  0  -0.120053  0  3.832603  0  0  -0.137822  0  3.854226  0  0  -0.219953  -0.108429  0  3.817881  0
N  N69  1  0.57534557  0.38381092  0.03994205  1  0  -0.204597  0  3.604465  0  0  -0.120473  0  3.833268  0  0  -0.138249  0  3.854896  0  0  -0.220035  -0.108854  0  3.818541  0
N  N70  1  0.92468923  0.38382606  0.53995599  1  0  -0.20398  0  3.603862  0  0  -0.119908  0  3.83258  0  0  -0.137664  0  3.85419  0  0  -0.219884  -0.108296  0  3.817853  0
N  N71  1  0.42465580  0.61617902  0.96005031  1  0  -0.204188  0  3.604194  0  0  -0.12012  0  3.832954  0  0  -0.13788  0  3.854565  0  0  -0.220034  -0.108507  0  3.818222  0
N  N72  1  0.93598776  0.73299541  0.58532683  1  0  -0.19294  0  3.5581  0  0  -0.109908  0  3.783027  0  0  -0.128029  0  3.80416  0  0  -0.212746  -0.098028  0  3.768806  0
N  N73  1  0.43600048  0.26700035  0.91466928  1  0  -0.192964  0  3.558034  0  0  -0.109961  0  3.782896  0  0  -0.128067  0  3.804056  0  0  -0.21269  -0.098094  0  3.768665  0
N  N74  1  0.06400539  0.26701012  0.41468000  1  0  -0.192739  0  3.55787  0  0  -0.109701  0  3.782692  0  0  -0.12782  0  3.803829  0  0  -0.21262  -0.097823  0  3.768468  0
N  N75  1  0.56398856  0.73299523  0.08532185  1  0  -0.19295  0  3.55829  0  0  -0.10975  0  3.782983  0  0  -0.127875  0  3.804132  0  0  -0.212619  -0.097873  0  3.76875  0
N  N76  1  0.55711796  0.85432357  0.57325573  1  0  -0.389528  0  3.321052  0  0  -0.320314  0  3.630594  0  0  -0.336348  0  3.634705  0  0  -0.384626  -0.309956  0  3.627706  0
N  N77  1  0.05712663  0.14566163  0.92673473  1  0  -0.38919  0  3.320849  0  0  -0.32008  0  3.630367  0  0  -0.33605  0  3.634419  0  0  -0.384482  -0.309731  0  3.627465  0
N  N78  1  0.44288751  0.14568113  0.42675211  1  0  -0.389484  0  3.321184  0  0  -0.320254  0  3.630634  0  0  -0.336331  0  3.634792  0  0  -0.384533  -0.309898  0  3.627743  0
N  N79  1  0.94287063  0.85432432  0.07325740  1  0  -0.389319  0  3.321129  0  0  -0.320121  0  3.630701  0  0  -0.336135  0  3.634779  0  0  -0.384599  -0.309771  0  3.627829  0
N  N80  1  0.71256772  0.73769020  0.46186702  1  0  -0.193114  0  3.580073  0  0  -0.108886  0  3.805197  0  0  -0.126559  0  3.826148  0  0  -0.212858  -0.09739  0  3.79108  0
N  N81  1  0.21256626  0.26230565  0.03812442  1  0  -0.193286  0  3.580365  0  0  -0.109135  0  3.805596  0  0  -0.126791  0  3.826568  0  0  -0.212891  -0.097648  0  3.791465  0
N  N82  1  0.28744391  0.26231540  0.53813744  1  0  -0.193214  0  3.580353  0  0  -0.109006  0  3.805433  0  0  -0.126682  0  3.826392  0  0  -0.212875  -0.097506  0  3.791297  0
N  N83  1  0.78742689  0.73768833  0.96186639  1  0  -0.193225  0  3.579982  0  0  -0.10887  0  3.805041  0  0  -0.126542  0  3.825998  0  0  -0.212887  -0.097376  0  3.790913  0
N  N84  1  0.88470145  0.61380879  0.33835147  1  0  -0.423027  0  2.980849  0  0  -0.394341  0  3.263124  0  0  -0.406608  0  3.273709  0  0  -0.339693  -0.386013  0  3.255738  0
N  N85  1  0.38470503  0.38618118  0.16164224  1  0  -0.423151  0  2.980723  0  0  -0.394422  0  3.263044  0  0  -0.406684  0  3.273624  0  0  -0.339756  -0.386096  0  3.255659  0
N  N86  1  0.11529375  0.38619029  0.66165700  1  0  -0.423085  0  2.980803  0  0  -0.394448  0  3.263165  0  0  -0.406713  0  3.273748  0  0  -0.339766  -0.38612  0  3.255768  0
N  N87  1  0.61529633  0.61381517  0.83834965  1  0  -0.423107  0  2.980658  0  0  -0.394415  0  3.263008  0  0  -0.406681  0  3.273599  0  0  -0.339722  -0.386092  0  3.255612  0
N  N88  1  0.29516540  0.62607483  0.59119676  1  0  -0.410033  0  2.993172  0  0  -0.378336  0  3.272932  0  0  -0.391918  0  3.284231  0  0  -0.336638  -0.369038  0  3.264991  0
N  N89  1  0.79517596  0.37392186  0.90880091  1  0  -0.410229  0  2.99312  0  0  -0.378535  0  3.272927  0  0  -0.392116  0  3.284229  0  0  -0.336775  -0.369241  0  3.264978  0
N  N90  1  0.70484007  0.37393548  0.40881046  1  0  -0.409858  0  2.993641  0  0  -0.37822  0  3.273376  0  0  -0.391798  0  3.284678  0  0  -0.336556  -0.368931  0  3.265447  0
N  N91  1  0.20480692  0.62607290  0.09119065  1  0  -0.409833  0  2.993351  0  0  -0.3782  0  3.273093  0  0  -0.391782  0  3.284395  0  0  -0.336581  -0.368913  0  3.26516  0
