# generated using pymatgen
data_GdZnH9C13(NO5)2
_symmetry_space_group_name_H-M   'P 1'
_cell_length_a   9.31408459
_cell_length_b   10.06774563
_cell_length_c   18.65729687
_cell_angle_alpha   96.54275024
_cell_angle_beta   89.99906695
_cell_angle_gamma   89.99805858
_symmetry_Int_Tables_number   1
_chemical_formula_structural   GdZnH9C13(NO5)2
_chemical_formula_sum   'Gd4 Zn4 H36 C52 N8 O40'
_cell_volume   1738.13446941
_cell_formula_units_Z   4
loop_
 _symmetry_equiv_pos_site_id
 _symmetry_equiv_pos_as_xyz
  1  'x, y, z'
loop_
 _atom_site_type_symbol
 _atom_site_label
 _atom_site_symmetry_multiplicity
 _atom_site_fract_x
 _atom_site_fract_y
 _atom_site_fract_z
 _atom_site_occupancy
 _atom_site_pbe_bader_charge
 _atom_site_pbe_bader_spin_density
 _atom_site_pbe_cm5_charge
 _atom_site_pbe_ddec_charge
 _atom_site_pbe_ddec_spin_density
 _atom_site_pbe_ddec_sum_bond_order
 _atom_site_pbe_magmom
Gd  Gd0  1  0.51289869  0.24855755  0.19451894  1  2.209278  0  1.46558  2.095217  0  2.150268  0
Gd  Gd1  1  0.01290144  0.25140875  0.30548663  1  2.209389  0  1.465517  2.095127  0  2.150515  0
Gd  Gd2  1  0.48708834  0.75144372  0.80547912  1  2.209148  0  1.465635  2.095399  0  2.150252  0
Gd  Gd3  1  0.98709525  0.74858431  0.69451283  1  2.20946  0  1.465546  2.095031  0  2.150707  0
Zn  Zn4  1  0.09133819  0.68792106  0.35042824  1  1.282758  0  0.716055  0.839633  0  2.359224  0
Zn  Zn5  1  0.59133181  0.81204950  0.14956896  1  1.282792  0  0.716102  0.839694  0  2.359417  0
Zn  Zn6  1  0.90866709  0.31208310  0.64957116  1  1.282517  0  0.716014  0.839649  0  2.359333  0
Zn  Zn7  1  0.40866702  0.18797388  0.85043919  1  1.28263  0  0.716072  0.83972  0  2.359217  0
H  H8  1  0.05245298  0.07865931  0.84267968  1  0.096556  0  0.102645  0.095959  0  1.068924  0
H  H9  1  0.55244290  0.42134179  0.65732051  1  0.096553  0  0.102637  0.095942  0  1.069009  0
H  H10  1  0.94755552  0.92131947  0.15733081  1  0.096435  0  0.102694  0.095994  0  1.068942  0
H  H11  1  0.44756560  0.57866487  0.34267429  1  0.096224  0  0.102626  0.095911  0  1.069019  0
H  H12  1  0.12973985  0.24898876  0.94332712  1  0.112785  0  0.106865  0.112435  0  1.001678  0
H  H13  1  0.62976703  0.25102579  0.55667660  1  0.112406  0  0.10696  0.112574  0  1.001459  0
H  H14  1  0.87025147  0.75102327  0.05667407  1  0.112659  0  0.106902  0.112523  0  1.001879  0
H  H15  1  0.37025005  0.74898874  0.44331999  1  0.112828  0  0.106936  0.112519  0  1.00166  0
H  H16  1  0.96321635  0.31291506  0.04574376  1  0.076635  0  0.109335  0.104084  0  1.009741  0
H  H17  1  0.46325415  0.18708032  0.45427023  1  0.076686  0  0.109316  0.103965  0  1.009713  0
H  H18  1  0.03675135  0.68709842  0.95425327  1  0.077047  0  0.109291  0.104031  0  1.009632  0
H  H19  1  0.53676616  0.81293282  0.54572999  1  0.076604  0  0.109348  0.104004  0  1.009667  0
H  H20  1  0.65200459  0.03207127  0.94716523  1  0.13665  0  0.10874  0.096419  0  1.070741  0
H  H21  1  0.15201016  0.46792641  0.55282035  1  0.136492  0  0.10866  0.096385  0  1.070641  0
H  H22  1  0.34798673  0.96791192  0.05283224  1  0.136508  0  0.108746  0.096464  0  1.070702  0
H  H23  1  0.84799727  0.53205401  0.44717472  1  0.136573  0  0.108761  0.096517  0  1.070511  0
H  H24  1  0.32324533  0.90965311  0.28015756  1  0.17105  0  0.141646  0.111088  0  0.973475  0
H  H25  1  0.82328131  0.59030945  0.21985012  1  0.171115  0  0.141729  0.111134  0  0.973462  0
H  H26  1  0.67674384  0.09035027  0.71986808  1  0.170738  0  0.141645  0.11102  0  0.973515  0
H  H27  1  0.17671753  0.40968199  0.78015509  1  0.171071  0  0.14167  0.111057  0  0.973477  0
H  H28  1  0.39667920  0.19650236  0.34071456  1  0.650093  0  0.302102  0.410276  0  0.925781  0
H  H29  1  0.89667033  0.30346859  0.15929169  1  0.653587  0  0.302138  0.41034  0  0.925632  0
H  H30  1  0.60333038  0.80350202  0.65928272  1  0.650046  0  0.302107  0.410247  0  0.925809  0
H  H31  1  0.10333173  0.69651659  0.84070597  1  0.653622  0  0.302153  0.410429  0  0.925522  0
H  H32  1  0.56896130  0.19147487  0.34317113  1  0.611142  0  0.32914  0.41382  0  0.876253  0
H  H33  1  0.06895613  0.30849180  0.15684371  1  0.611616  0  0.329178  0.413981  0  0.876139  0
H  H34  1  0.43104398  0.80852213  0.65682922  1  0.611166  0  0.329136  0.413872  0  0.876174  0
H  H35  1  0.93104271  0.69149427  0.84315510  1  0.610978  0  0.329207  0.414022  0  0.876162  0
H  H36  1  0.09303571  0.51897902  0.44165382  1  0.618862  0  0.301664  0.383833  0  0.959633  0
H  H37  1  0.59303237  0.98099631  0.05834543  1  0.618626  0  0.30169  0.383862  0  0.959558  0
H  H38  1  0.90697816  0.48101010  0.55834474  1  0.61887  0  0.301677  0.383787  0  0.959692  0
H  H39  1  0.40696002  0.01901344  0.94165824  1  0.618748  0  0.301766  0.383985  0  0.959401  0
H  H40  1  0.04073007  0.65285395  0.48741503  1  0.668694  0  0.310313  0.410009  0  0.907937  0
H  H41  1  0.54073191  0.84712575  0.01258613  1  0.668272  0  0.310271  0.409962  0  0.908014  0
H  H42  1  0.95927413  0.34713594  0.51258575  1  0.66862  0  0.310311  0.40998  0  0.907972  0
H  H43  1  0.45926048  0.15287661  0.98742062  1  0.668223  0  0.310333  0.410075  0  0.907792  0
C  C44  1  0.84655256  0.04732350  0.88867748  1  -0.071616  0  -0.01824  -0.053531  0  3.968381  0
C  C45  1  0.34656000  0.45267688  0.61132324  1  -0.072254  0  -0.018195  -0.053553  0  3.968391  0
C  C46  1  0.15344627  0.95267309  0.11133625  1  -0.070321  0  -0.018314  -0.053718  0  3.968278  0
C  C47  1  0.65346031  0.54732972  0.38867209  1  -0.071639  0  -0.018343  -0.053842  0  3.968421  0
C  C48  1  0.98209776  0.10673423  0.88824391  1  -0.011127  0  -0.071909  -0.056869  0  3.918619  0
C  C49  1  0.48208385  0.39325629  0.61176425  1  -0.010933  0  -0.0719  -0.056873  0  3.91851  0
C  C50  1  0.01790645  0.89323679  0.11176372  1  -0.011664  0  -0.071866  -0.056903  0  3.918263  0
C  C51  1  0.51791713  0.60675357  0.38823836  1  -0.010536  0  -0.0718  -0.056629  0  3.918339  0
C  C52  1  0.02458063  0.20177871  0.94462233  1  -0.012674  0  -0.085745  -0.081769  0  3.982205  0
C  C53  1  0.52459533  0.29822173  0.55537291  1  -0.012185  0  -0.0859  -0.082061  0  3.981974  0
C  C54  1  0.97539888  0.79820386  0.05538099  1  -0.011992  0  -0.08584  -0.081826  0  3.982213  0
C  C55  1  0.47541316  0.70178992  0.44462235  1  -0.01281  0  -0.085872  -0.082035  0  3.982171  0
C  C56  1  0.93228126  0.23624489  0.00254031  1  -0.130251  0  -0.070914  -0.070485  0  3.936758  0
C  C57  1  0.43230447  0.26374797  0.49746802  1  -0.130577  0  -0.070745  -0.069944  0  3.936876  0
C  C58  1  0.06769718  0.76375459  0.99746510  1  -0.130633  0  -0.070777  -0.070327  0  3.935848  0
C  C59  1  0.56770832  0.73625929  0.50253059  1  -0.130616  0  -0.07081  -0.070057  0  3.936755  0
C  C60  1  0.79738024  0.17438474  0.00467988  1  0.041657  0  -0.019467  -0.049121  0  3.984518  0
C  C61  1  0.29738939  0.32560008  0.49532797  1  0.041107  0  -0.019672  -0.049625  0  3.985091  0
C  C62  1  0.20262934  0.82562047  0.99531908  1  0.041828  0  -0.019622  -0.049542  0  3.984231  0
C  C63  1  0.70262018  0.67440835  0.50466914  1  0.041395  0  -0.019523  -0.049491  0  3.984817  0
C  C64  1  0.75551354  0.08121758  0.94722467  1  -0.027982  0  -0.072965  -0.091449  0  3.943167  0
C  C65  1  0.25553390  0.41879184  0.55276381  1  -0.026879  0  -0.072828  -0.091185  0  3.942923  0
C  C66  1  0.24448208  0.91877742  0.05277550  1  -0.028608  0  -0.072885  -0.091208  0  3.942828  0
C  C67  1  0.74448533  0.58121322  0.44722708  1  -0.027294  0  -0.073031  -0.091416  0  3.943055  0
C  C68  1  0.70014088  0.20253281  0.06757317  1  1.514063  0  0.221585  0.599436  0  4.150962  0
C  C69  1  0.20015230  0.29742372  0.43243403  1  1.513721  0  0.221518  0.599255  0  4.151522  0
C  C70  1  0.29984507  0.79746419  0.93242718  1  1.513843  0  0.221638  0.599902  0  4.151432  0
C  C71  1  0.79985190  0.70256024  0.56756567  1  1.513788  0  0.221561  0.59943  0  4.151435  0
C  C72  1  0.79631328  0.94783544  0.82765859  1  1.579479  0  0.238654  0.654414  0  4.151443  0
C  C73  1  0.29633415  0.55217666  0.67233741  1  1.580217  0  0.238775  0.654545  0  4.150996  0
C  C74  1  0.20367911  0.05214624  0.17234358  1  1.578426  0  0.238646  0.654615  0  4.15201  0
C  C75  1  0.70367757  0.44782096  0.32765709  1  1.579416  0  0.238858  0.654729  0  4.150985  0
C  C76  1  0.23949331  0.46343504  0.26193949  1  1.539394  0  0.222383  0.603091  0  4.210313  0
C  C77  1  0.73945709  0.03652588  0.23806283  1  1.538637  0  0.222313  0.602686  0  4.210473  0
C  C78  1  0.76051304  0.53656286  0.73805236  1  1.539329  0  0.222253  0.602777  0  4.210393  0
C  C79  1  0.26054389  0.96346230  0.76193511  1  1.538134  0  0.222292  0.602845  0  4.210176  0
C  C80  1  0.29989254  0.58915763  0.24281408  1  0.360824  0  0.072766  -0.015507  0  3.998346  0
C  C81  1  0.79985549  0.91079167  0.25718267  1  0.362364  0  0.072726  -0.015415  0  3.998317  0
C  C82  1  0.70012026  0.41084122  0.75717839  1  0.360656  0  0.072651  -0.015646  0  3.998895  0
C  C83  1  0.20015087  0.08920455  0.74281546  1  0.362226  0  0.072814  -0.015339  0  3.998452  0
C  C84  1  0.40071514  0.62290839  0.19257198  1  0.441281  0  0.081678  -0.00574  0  3.968231  0
C  C85  1  0.90069307  0.87705555  0.30742954  1  0.441416  0  0.081583  -0.005858  0  3.968526  0
C  C86  1  0.59928799  0.37709323  0.80742289  1  0.441889  0  0.081816  -0.005579  0  3.968824  0
C  C87  1  0.09930148  0.12293962  0.69256904  1  0.441119  0  0.081595  -0.005876  0  3.968326  0
C  C88  1  0.49038174  0.54546621  0.13642207  1  1.632498  0  0.222982  0.613356  0  4.210946  0
C  C89  1  0.99035488  0.95451238  0.36357776  1  1.632333  0  0.22317  0.613727  0  4.210287  0
C  C90  1  0.50962998  0.45455591  0.86357898  1  1.632945  0  0.223028  0.613448  0  4.210673  0
C  C91  1  0.00963751  0.04548108  0.63641798  1  1.632136  0  0.222977  0.613488  0  4.210006  0
C  C92  1  0.33127146  0.80525355  0.25832621  1  1.000022  0  0.149749  0.198562  0  3.936527  0
C  C93  1  0.83128467  0.69471894  0.24167112  1  0.999629  0  0.149814  0.198621  0  3.936824  0
C  C94  1  0.66872523  0.19475873  0.74168199  1  1.000149  0  0.149707  0.198718  0  3.936864  0
C  C95  1  0.16871416  0.30527318  0.75832771  1  0.999625  0  0.149791  0.198558  0  3.936793  0
N  N96  1  0.25737797  0.70577227  0.28334869  1  -1.239283  0  -0.361744  -0.338753  0  3.582457  0
N  N97  1  0.75737941  0.79419136  0.21665787  1  -1.240221  0  -0.361867  -0.338975  0  3.583359  0
N  N98  1  0.74261013  0.29422029  0.71665555  1  -1.239447  0  -0.361708  -0.338815  0  3.583315  0
N  N99  1  0.24261942  0.20579905  0.78333812  1  -1.239929  0  -0.361907  -0.338971  0  3.583862  0
N  N100  1  0.41776157  0.75939969  0.20318544  1  -1.254651  0  -0.360791  -0.339259  0  3.578818  0
N  N101  1  0.91776486  0.74059497  0.29681625  1  -1.25525  0  -0.360794  -0.339254  0  3.579739  0
N  N102  1  0.58223082  0.24063256  0.79682459  1  -1.255056  0  -0.360737  -0.33924  0  3.579485  0
N  N103  1  0.08223290  0.25939810  0.70318320  1  -1.254956  0  -0.360735  -0.339168  0  3.579547  0
O  O104  1  0.74162525  0.26948033  0.12576002  1  -1.178323  0  -0.3315  -0.592985  0  2.306861  0
O  O105  1  0.24164442  0.23050089  0.37424041  1  -1.178119  0  -0.331292  -0.592765  0  2.307274  0
O  O106  1  0.25836499  0.73053797  0.87423907  1  -1.178424  0  -0.331493  -0.593171  0  2.307191  0
O  O107  1  0.75835335  0.76948313  0.62575875  1  -1.177962  0  -0.331419  -0.592904  0  2.307083  0
O  O108  1  0.57129620  0.15382714  0.06462678  1  -1.198375  0  -0.347487  -0.643941  0  2.295661  0
O  O109  1  0.07130982  0.34614525  0.43538107  1  -1.198216  0  -0.347532  -0.64388  0  2.295736  0
O  O110  1  0.42867794  0.84617540  0.93537837  1  -1.19827  0  -0.347489  -0.644111  0  2.295857  0
O  O111  1  0.92869116  0.65385098  0.56461706  1  -1.198439  0  -0.347515  -0.643954  0  2.296019  0
O  O112  1  0.66925049  0.90335363  0.83273846  1  -1.194885  0  -0.405037  -0.657741  0  2.305048  0
O  O113  1  0.16927857  0.59669557  0.66725693  1  -1.19566  0  -0.405098  -0.657699  0  2.304728  0
O  O114  1  0.33073010  0.09663747  0.16726994  1  -1.194862  0  -0.404967  -0.657761  0  2.305298  0
O  O115  1  0.83073207  0.40331254  0.33273371  1  -1.195335  0  -0.405088  -0.657748  0  2.304921  0
O  O116  1  0.88145133  0.91506242  0.77520985  1  -1.21006  0  -0.398551  -0.69146  0  2.314605  0
O  O117  1  0.38149733  0.58494535  0.72477465  1  -1.209762  0  -0.398652  -0.691627  0  2.314372  0
O  O118  1  0.11852066  0.08492616  0.22478436  1  -1.209431  0  -0.398662  -0.691646  0  2.314568  0
O  O119  1  0.61850473  0.41504155  0.27522585  1  -1.209841  0  -0.398654  -0.691609  0  2.31434  0
O  O120  1  0.28736691  0.34968768  0.23671334  1  -1.206373  0  -0.368642  -0.677737  0  2.359634  0
O  O121  1  0.78734277  0.15027872  0.26328099  1  -1.205344  0  -0.36838  -0.677333  0  2.359246  0
O  O122  1  0.71264910  0.65032751  0.76328654  1  -1.206168  0  -0.368554  -0.677567  0  2.359359  0
O  O123  1  0.21265929  0.84970941  0.73671747  1  -1.20563  0  -0.368412  -0.677414  0  2.359235  0
O  O124  1  0.13352943  0.47389378  0.30694181  1  -1.167055  0  -0.356939  -0.627674  0  2.3406  0
O  O125  1  0.63350857  0.02606249  0.19304859  1  -1.167346  0  -0.357092  -0.627812  0  2.341024  0
O  O126  1  0.86648014  0.52609947  0.69304639  1  -1.167016  0  -0.356887  -0.627582  0  2.340725  0
O  O127  1  0.36650637  0.97393667  0.80695035  1  -1.166639  0  -0.357085  -0.627937  0  2.340725  0
O  O128  1  0.47631770  0.41897519  0.12568964  1  -1.199183  0  -0.425737  -0.667606  0  2.292663  0
O  O129  1  0.97626486  0.08101739  0.37430909  1  -1.198649  0  -0.425923  -0.667883  0  2.29241  0
O  O130  1  0.52372838  0.58105503  0.87431108  1  -1.199228  0  -0.426013  -0.667866  0  2.292304  0
O  O131  1  0.02367600  0.91898093  0.62569782  1  -1.198758  0  -0.42573  -0.667643  0  2.292749  0
O  O132  1  0.57846758  0.61200322  0.10255842  1  -1.155284  0  -0.315909  -0.517927  0  2.175936  0
O  O133  1  0.07846398  0.88799979  0.39743100  1  -1.155839  0  -0.315842  -0.517929  0  2.175751  0
O  O134  1  0.42154628  0.38803315  0.89744126  1  -1.15552  0  -0.31574  -0.517846  0  2.176196  0
O  O135  1  0.92153808  0.11203222  0.60256237  1  -1.155209  0  -0.315836  -0.517904  0  2.175325  0
O  O136  1  0.48629659  0.17035342  0.31220132  1  -1.240841  0  -0.630246  -0.844791  0  2.057321  0
O  O137  1  0.98627828  0.32960423  0.18781034  1  -1.244561  0  -0.630284  -0.844984  0  2.057104  0
O  O138  1  0.51371083  0.82964281  0.68779682  1  -1.240806  0  -0.630245  -0.844822  0  2.05725  0
O  O139  1  0.01371734  0.67038284  0.81218857  1  -1.244043  0  -0.630334  -0.845088  0  2.057037  0
O  O140  1  0.10437557  0.61793767  0.44671789  1  -1.245653  0  -0.56211  -0.717246  0  2.181282  0
O  O141  1  0.60437429  0.88203345  0.05327992  1  -1.245103  0  -0.562077  -0.717191  0  2.181217  0
O  O142  1  0.89562327  0.38205839  0.55328184  1  -1.24562  0  -0.562099  -0.717144  0  2.181377  0
O  O143  1  0.39561274  0.11796455  0.94672052  1  -1.245076  0  -0.56219  -0.717389  0  2.181064  0
