# generated using pymatgen
data_CdH9C14NO5
_symmetry_space_group_name_H-M   'P 1'
_cell_length_a   6.78884354
_cell_length_b   7.62636310
_cell_length_c   11.94807421
_cell_angle_alpha   102.29260884
_cell_angle_beta   93.85103937
_cell_angle_gamma   104.67973242
_symmetry_Int_Tables_number   1
_chemical_formula_structural   CdH9C14NO5
_chemical_formula_sum   'Cd2 H18 C28 N2 O10'
_cell_volume   579.86918896
_cell_formula_units_Z   2
loop_
 _symmetry_equiv_pos_site_id
 _symmetry_equiv_pos_as_xyz
  1  'x, y, z'
loop_
 _atom_site_type_symbol
 _atom_site_label
 _atom_site_symmetry_multiplicity
 _atom_site_fract_x
 _atom_site_fract_y
 _atom_site_fract_z
 _atom_site_occupancy
 _atom_site_hle17_bader_spin_density
 _atom_site_hle17_ddec_charge
 _atom_site_hle17_ddec_spin_density
 _atom_site_hle17_ddec_sum_bond_order
 _atom_site_hle17_magmom
 _atom_site_hse06_10hf_bader_spin_density
 _atom_site_hse06_10hf_ddec_charge
 _atom_site_hse06_10hf_ddec_spin_density
 _atom_site_hse06_10hf_ddec_sum_bond_order
 _atom_site_hse06_10hf_magmom
 _atom_site_hse06_bader_spin_density
 _atom_site_hse06_ddec_charge
 _atom_site_hse06_ddec_spin_density
 _atom_site_hse06_ddec_sum_bond_order
 _atom_site_hse06_magmom
 _atom_site_pbe_bader_spin_density
 _atom_site_pbe_cm5_charge
 _atom_site_pbe_ddec_charge
 _atom_site_pbe_ddec_spin_density
 _atom_site_pbe_ddec_sum_bond_order
 _atom_site_pbe_magmom
Cd  Cd0  1  0.20794556  0.07707956  0.12785002  1  0  1.200596  0  1.578092  0  0  1.006659  0  2.017701  0  0  1.067593  0  1.962092  0  0  0.780123  0.963006  0  2.055887  0
Cd  Cd1  1  0.79205164  0.92292191  0.87214784  1  0  1.200566  0  1.578115  0  0  1.006651  0  2.017733  0  0  1.067583  0  1.962121  0  0  0.780114  0.962992  0  2.055931  0
H  H2  1  0.17719730  0.29748328  0.97198451  1  0  0.382261  0  0.908273  0  0  0.351703  0  0.987886  0  0  0.362947  0  0.975539  0  0  0.296801  0.343737  0  0.996584  0
H  H3  1  0.82280440  0.70251820  0.02801513  1  0  0.382252  0  0.908274  0  0  0.351698  0  0.987876  0  0  0.362941  0  0.975531  0  0  0.29679  0.343738  0  0.996564  0
H  H4  1  0.21673396  0.57743903  0.08093472  1  0  0.08005  0  0.948285  0  0  0.092519  0  1.014442  0  0  0.09345  0  1.013168  0  0  0.108187  0.091792  0  1.015455  0
H  H5  1  0.78327036  0.42256105  0.91906646  1  0  0.079991  0  0.948262  0  0  0.092444  0  1.014445  0  0  0.093376  0  1.013174  0  0  0.108158  0.091717  0  1.015457  0
H  H6  1  0.48183591  0.59919701  0.08744763  1  0  0.086775  0  0.949102  0  0  0.09857  0  1.013159  0  0  0.099937  0  1.011963  0  0  0.106942  0.097494  0  1.014204  0
H  H7  1  0.51816686  0.40080309  0.91255184  1  0  0.086752  0  0.949135  0  0  0.098551  0  1.013192  0  0  0.099921  0  1.012  0  0  0.106933  0.097477  0  1.01424  0
H  H8  1  0.47362538  0.81474367  0.28018966  1  0  0.118354  0  0.947513  0  0  0.128706  0  1.006431  0  0  0.131871  0  1.005756  0  0  0.109055  0.126345  0  1.007211  0
H  H9  1  0.52638523  0.18525784  0.71981103  1  0  0.118297  0  0.947598  0  0  0.128678  0  1.006505  0  0  0.13182  0  1.005849  0  0  0.10903  0.126321  0  1.007284  0
H  H10  1  0.42591743  0.83429751  0.48643322  1  0  0.090542  0  0.947718  0  0  0.107419  0  0.999917  0  0  0.109759  0  0.997874  0  0  0.10829  0.105662  0  1.001496  0
H  H11  1  0.57409105  0.16570678  0.51356782  1  0  0.090573  0  0.947739  0  0  0.107411  0  0.999974  0  0  0.109729  0  0.997966  0  0  0.108294  0.105655  0  1.001553  0
H  H12  1  0.18220354  0.23326083  0.39556584  1  0  0.094307  0  0.979116  0  0  0.10261  0  1.045276  0  0  0.105531  0  1.041997  0  0  0.115387  0.100392  0  1.047745  0
H  H13  1  0.81778397  0.76673220  0.60443477  1  0  0.094329  0  0.979117  0  0  0.102637  0  1.045268  0  0  0.105535  0  1.04202  0  0  0.115404  0.100418  0  1.047737  0
H  H14  1  0.38155169  0.83847231  0.64583780  1  0  0.090557  0  0.96225  0  0  0.102538  0  1.02442  0  0  0.105576  0  1.022039  0  0  0.103319  0.10027  0  1.026241  0
H  H15  1  0.61845073  0.16153198  0.35415975  1  0  0.090568  0  0.962309  0  0  0.102552  0  1.024458  0  0  0.105626  0  1.022033  0  0  0.103338  0.100285  0  1.026277  0
H  H16  1  0.11871800  0.56020308  0.89703710  1  0  0.104772  0  0.955023  0  0  0.113773  0  1.021461  0  0  0.11747  0  1.018392  0  0  0.109005  0.111073  0  1.023726  0
H  H17  1  0.88129219  0.43979704  0.10296338  1  0  0.104738  0  0.954887  0  0  0.113709  0  1.02137  0  0  0.117406  0  1.018301  0  0  0.108961  0.111009  0  1.023632  0
H  H18  1  0.09505871  0.24166316  0.55231294  1  0  0.107795  0  0.947097  0  0  0.119223  0  1.006964  0  0  0.12318  0  1.00327  0  0  0.10763  0.116286  0  1.009748  0
H  H19  1  0.90493757  0.75833967  0.44768844  1  0  0.107821  0  0.947059  0  0  0.119226  0  1.006957  0  0  0.123174  0  1.003275  0  0  0.107628  0.116286  0  1.009739  0
C  C20  1  0.33578880  0.51124641  0.10348137  1  0  0.046781  0  3.649975  0  0  -0.014793  0  3.91137  0  0  -0.008891  0  3.916228  0  0  -0.07445  -0.018729  0  3.907836  0
C  C21  1  0.66421240  0.48875782  0.89652200  1  0  0.046846  0  3.649831  0  0  -0.01471  0  3.911239  0  0  -0.008817  0  3.916103  0  0  -0.074454  -0.018648  0  3.90771  0
C  C22  1  0.34009654  0.51787856  0.23021518  1  0  0.235219  0  3.721502  0  0  0.231977  0  3.969033  0  0  0.240344  0  3.990401  0  0  0.120969  0.226316  0  3.954506  0
C  C23  1  0.65990430  0.48212014  0.76978320  1  0  0.235143  0  3.721671  0  0  0.231903  0  3.969208  0  0  0.240273  0  3.990579  0  0  0.120941  0.226242  0  3.954682  0
C  C24  1  0.40745887  0.69009419  0.31053624  1  0  -0.145908  0  3.708063  0  0  -0.164283  0  3.962445  0  0  -0.172205  0  3.984044  0  0  -0.081203  -0.159291  0  3.948273  0
C  C25  1  0.59254253  0.30990587  0.68946570  1  0  -0.1458  0  3.708193  0  0  -0.164192  0  3.962551  0  0  -0.17209  0  3.984145  0  0  -0.081164  -0.159205  0  3.948383  0
C  C26  1  0.37936790  0.69900757  0.42501447  1  0  -0.032671  0  3.698577  0  0  -0.061988  0  3.952977  0  0  -0.05882  0  3.970696  0  0  -0.065963  -0.063733  0  3.940881  0
C  C27  1  0.62063543  0.30099389  0.57498856  1  0  -0.032753  0  3.698681  0  0  -0.062035  0  3.953068  0  0  -0.058856  0  3.970783  0  0  -0.065966  -0.063777  0  3.940966  0
C  C28  1  0.28828971  0.53616030  0.46074389  1  0  -0.004435  0  3.774302  0  0  0.012301  0  4.009238  0  0  0.007455  0  4.034912  0  0  -0.00543  0.015289  0  3.991918  0
C  C29  1  0.71170609  0.46384115  0.53925561  1  0  -0.004345  0  3.774217  0  0  0.0124  0  4.009122  0  0  0.007559  0  4.034776  0  0  -0.00542  0.015391  0  3.9918  0
C  C30  1  0.24247549  0.36835009  0.37611477  1  0  0.090789  0  3.673138  0  0  0.04952  0  3.931004  0  0  0.05651  0  3.948815  0  0  0.045786  0.045132  0  3.918571  0
C  C31  1  0.75752050  0.63164719  0.62388330  1  0  0.090744  0  3.673179  0  0  0.049433  0  3.931132  0  0  0.056434  0  3.948957  0  0  0.045735  0.045045  0  3.918697  0
C  C32  1  0.24468125  0.53985496  0.58089443  1  0  0.046131  0  3.780699  0  0  0.063299  0  4.016836  0  0  0.061837  0  4.042554  0  0  -0.007499  0.06415  0  3.999316  0
C  C33  1  0.75531934  0.46013817  0.41910147  1  0  0.046142  0  3.78065  0  0  0.063335  0  4.016754  0  0  0.061872  0  4.042479  0  0  -0.007533  0.064181  0  3.999233  0
C  C34  1  0.30056039  0.70844571  0.66582756  1  0  -0.098187  0  3.698836  0  0  -0.133998  0  3.950578  0  0  -0.133634  0  3.969967  0  0  -0.078938  -0.133904  0  3.937271  0
C  C35  1  0.69943560  0.29155157  0.33417051  1  0  -0.098231  0  3.698949  0  0  -0.134039  0  3.95068  0  0  -0.133704  0  3.970057  0  0  -0.078933  -0.133947  0  3.937377  0
C  C36  1  0.25277848  0.71608369  0.77814651  1  0  -0.069128  0  3.785921  0  0  -0.044666  0  4.028054  0  0  -0.053194  0  4.050438  0  0  -0.020472  -0.039133  0  4.012957  0
C  C37  1  0.74722099  0.28391498  0.22185434  1  0  -0.069209  0  3.785724  0  0  -0.044739  0  4.027911  0  0  -0.053275  0  4.050302  0  0  -0.020512  -0.039202  0  4.012809  0
C  C38  1  0.15572969  0.55264875  0.80932460  1  0  -0.059037  0  3.685104  0  0  -0.099703  0  3.939087  0  0  -0.096828  0  3.957089  0  0  -0.080316  -0.101378  0  3.926982  0
C  C39  1  0.84427405  0.44735410  0.19067864  1  0  -0.058972  0  3.684939  0  0  -0.099612  0  3.938919  0  0  -0.096735  0  3.956921  0  0  -0.080273  -0.101292  0  3.926827  0
C  C40  1  0.10394095  0.38200499  0.72767081  1  0  -0.068557  0  3.77121  0  0  -0.042295  0  4.007269  0  0  -0.051046  0  4.030748  0  0  -0.019999  -0.036773  0  3.991584  0
C  C41  1  0.89606503  0.61800068  0.27233121  1  0  -0.068582  0  3.771419  0  0  -0.042281  0  4.007456  0  0  -0.051031  0  4.030929  0  0  -0.019965  -0.036759  0  3.991768  0
C  C42  1  0.14492795  0.37687369  0.61396848  1  0  -0.09486  0  3.6756  0  0  -0.128429  0  3.922483  0  0  -0.127801  0  3.941868  0  0  -0.074578  -0.128469  0  3.90925  0
C  C43  1  0.85506890  0.62312637  0.38603085  1  0  -0.094894  0  3.675578  0  0  -0.128469  0  3.92247  0  0  -0.127829  0  3.941853  0  0  -0.074559  -0.1285  0  3.909227  0
C  C44  1  0.30605532  0.89911658  0.86612430  1  0  0.685614  0  3.863484  0  0  0.630395  0  4.157122  0  0  0.667166  0  4.147716  0  0  0.215392  0.605216  0  4.162875  0
C  C45  1  0.69394377  0.10088630  0.13387380  1  0  0.685735  0  3.863381  0  0  0.630428  0  4.157148  0  0  0.667216  0  4.147722  0  0  0.215386  0.605243  0  4.162907  0
C  C46  1  0.99547282  0.20661770  0.76032340  1  0  0.638175  0  3.915099  0  0  0.587349  0  4.203682  0  0  0.621374  0  4.198531  0  0  0.200901  0.564308  0  4.206355  0
C  C47  1  0.00452362  0.79338097  0.23967571  1  0  0.638278  0  3.915241  0  0  0.5874  0  4.203876  0  0  0.621422  0  4.198713  0  0  0.200893  0.564346  0  4.206561  0
N  N48  1  0.26704984  0.35987268  0.26457602  1  0  -0.386687  0  3.291285  0  0  -0.309261  0  3.553401  0  0  -0.332222  0  3.574988  0  0  -0.328167  -0.293504  0  3.538213  0
N  N49  1  0.73294742  0.64011904  0.73542044  1  0  -0.386656  0  3.291405  0  0  -0.309226  0  3.553529  0  0  -0.332189  0  3.575117  0  0  -0.328077  -0.293466  0  3.538342  0
O  O50  1  0.29539392  0.32625562  0.03444886  1  0  -0.552315  0  2.201228  0  0  -0.48459  0  2.450082  0  0  -0.505948  0  2.437986  0  0  -0.397864  -0.46933  0  2.458021  0
O  O51  1  0.70460608  0.67375003  0.96555133  1  0  -0.552274  0  2.201181  0  0  -0.484566  0  2.450052  0  0  -0.505914  0  2.437962  0  0  -0.397839  -0.469309  0  2.457991  0
O  O52  1  0.48191069  0.01190318  0.87238552  1  0  -0.634363  0  1.97233  0  0  -0.571616  0  2.224241  0  0  -0.599771  0  2.211801  0  0  -0.320697  -0.551775  0  2.232165  0
O  O53  1  0.51808999  0.98809968  0.12761513  1  0  -0.63445  0  1.97231  0  0  -0.571648  0  2.224234  0  0  -0.599804  0  2.21178  0  0  -0.320732  -0.551804  0  2.232155  0
O  O54  1  0.16623710  0.92749581  0.92892280  1  0  -0.66734  0  2.051278  0  0  -0.589653  0  2.31607  0  0  -0.621329  0  2.302755  0  0  -0.325371  -0.56724  0  2.324498  0
O  O55  1  0.83376147  0.07250008  0.07107596  1  0  -0.667348  0  2.051252  0  0  -0.589642  0  2.316101  0  0  -0.62132  0  2.302776  0  0  -0.325334  -0.567226  0  2.324533  0
O  O56  1  0.92021818  0.05751540  0.68485790  1  0  -0.615342  0  1.917813  0  0  -0.566015  0  2.143655  0  0  -0.591461  0  2.13526  0  0  -0.321784  -0.548119  0  2.148745  0
O  O57  1  0.07977925  0.94248190  0.31513937  1  0  -0.61538  0  1.917942  0  0  -0.566045  0  2.143815  0  0  -0.59149  0  2.135419  0  0  -0.321813  -0.548144  0  2.148907  0
O  O58  1  0.97875817  0.21922086  0.86944536  1  0  -0.669859  0  2.076619  0  0  -0.587264  0  2.315179  0  0  -0.618827  0  2.30587  0  0  -0.32506  -0.56508  0  2.320774  0
O  O59  1  0.02124619  0.78077922  0.13055665  1  0  -0.669911  0  2.076623  0  0  -0.58726  0  2.315138  0  0  -0.618853  0  2.305903  0  0  -0.325028  -0.565074  0  2.320735  0
