# generated using pymatgen
data_CdH12C17N3O4
_symmetry_space_group_name_H-M   'P 1'
_cell_length_a   16.10636233
_cell_length_b   17.64405238
_cell_length_c   17.64137246
_cell_angle_alpha   77.96235869
_cell_angle_beta   62.83600442
_cell_angle_gamma   62.83410917
_symmetry_Int_Tables_number   1
_chemical_formula_structural   CdH12C17N3O4
_chemical_formula_sum   'Cd8 H96 C136 N24 O32'
_cell_volume   3968.36245281
_cell_formula_units_Z   8
loop_
 _symmetry_equiv_pos_site_id
 _symmetry_equiv_pos_as_xyz
  1  'x, y, z'
loop_
 _atom_site_type_symbol
 _atom_site_label
 _atom_site_symmetry_multiplicity
 _atom_site_fract_x
 _atom_site_fract_y
 _atom_site_fract_z
 _atom_site_occupancy
 _atom_site_pbe_bader_charge
 _atom_site_pbe_bader_spin_density
 _atom_site_pbe_cm5_charge
 _atom_site_pbe_ddec_charge
 _atom_site_pbe_ddec_spin_density
 _atom_site_pbe_ddec_sum_bond_order
 _atom_site_pbe_magmom
Cd  Cd0  1  0.46205320  0.40706920  0.56723780  1  1.255792  0  0.802961  0.848959  0  2.242691  0
Cd  Cd1  1  0.93631388  0.09299187  0.93270992  1  1.254221  0  0.803417  0.850883  0  2.240617  0
Cd  Cd2  1  0.02945688  0.43264482  0.90713905  1  1.253865  0  0.802885  0.85004  0  2.241404  0
Cd  Cd3  1  0.86908973  0.06729665  0.59289653  1  1.254309  0  0.803092  0.84964  0  2.241718  0
Cd  Cd4  1  0.53795029  0.59293180  0.43275694  1  1.255929  0  0.802944  0.848964  0  2.242806  0
Cd  Cd5  1  0.06368866  0.90700530  0.06729253  1  1.254179  0  0.803421  0.850819  0  2.240692  0
Cd  Cd6  1  0.97054553  0.56735363  0.09285594  1  1.253787  0  0.80289  0.850048  0  2.241438  0
Cd  Cd7  1  0.13092041  0.93270308  0.40709084  1  1.254235  0  0.803137  0.849624  0  2.241768  0
H  H8  1  0.31813476  0.52396655  0.86521493  1  0.644298  0  0.288702  0.34183  0  1.019894  0
H  H9  1  0.20726009  0.97581656  0.63489145  1  0.64869  0  0.288583  0.342455  0  1.018969  0
H  H10  1  0.18312679  0.13480724  0.02417433  1  0.64322  0  0.288987  0.342531  0  1.019675  0
H  H11  1  0.84204714  0.36519540  0.47599129  1  0.646505  0  0.289034  0.342462  0  1.019272  0
H  H12  1  0.68186953  0.47603509  0.13478356  1  0.64428  0  0.288706  0.341893  0  1.019828  0
H  H13  1  0.79273883  0.02418507  0.36511098  1  0.648677  0  0.288516  0.342351  0  1.019091  0
H  H14  1  0.81687275  0.86519121  0.97582837  1  0.64339  0  0.288941  0.342463  0  1.019789  0
H  H15  1  0.15795486  0.63480178  0.52400196  1  0.646498  0  0.288989  0.342458  0  1.019385  0
H  H16  1  0.49255993  0.39688871  0.25780169  1  0.096487  0  0.112153  0.119999  0  1.016233  0
H  H17  1  0.64733194  0.10317498  0.24206811  1  0.094517  0  0.112073  0.119347  0  1.016437  0
H  H18  1  0.75053735  0.74220958  0.89699683  1  0.098145  0  0.111828  0.118875  0  1.016915  0
H  H19  1  0.88966118  0.75780809  0.60311993  1  0.087704  0  0.112189  0.119897  0  1.015869  0
H  H20  1  0.50743495  0.60311356  0.74220097  1  0.096511  0  0.112137  0.119954  0  1.016229  0
H  H21  1  0.35266448  0.89682538  0.75792910  1  0.094673  0  0.112067  0.119305  0  1.016532  0
H  H22  1  0.24946100  0.25779078  0.10300472  1  0.098164  0  0.111847  0.118916  0  1.016924  0
H  H23  1  0.11033868  0.24218845  0.39688133  1  0.08775  0  0.112219  0.119976  0  1.015854  0
H  H24  1  0.41197772  0.45440599  0.40275907  1  0.148542  0  0.119166  0.094985  0  1.012506  0
H  H25  1  0.76929764  0.04565357  0.09712567  1  0.111097  0  0.119567  0.094536  0  1.013025  0
H  H26  1  0.81477145  0.59720357  0.95456553  1  0.130912  0  0.119356  0.094652  0  1.013479  0
H  H27  1  0.86671938  0.90271188  0.54557480  1  0.116293  0  0.119457  0.094903  0  1.013649  0
H  H28  1  0.58802590  0.54559437  0.59724141  1  0.148544  0  0.119171  0.094982  0  1.012437  0
H  H29  1  0.23070423  0.95434934  0.90287251  1  0.111041  0  0.119558  0.094503  0  1.012955  0
H  H30  1  0.18522844  0.40279743  0.04543834  1  0.130979  0  0.119354  0.094681  0  1.01342  0
H  H31  1  0.13328133  0.09728785  0.45442333  1  0.116294  0  0.119446  0.09491  0  1.013701  0
H  H32  1  0.64048104  0.14999683  0.35520050  1  0.134817  0  0.111372  0.128522  0  1.023357  0
H  H33  1  0.64560443  0.35008128  0.14461364  1  0.118766  0  0.111641  0.129034  0  1.023607  0
H  H34  1  0.99557659  0.64464447  0.65009359  1  0.125297  0  0.111498  0.129136  0  1.023502  0
H  H35  1  0.79021854  0.85527427  0.85007952  1  0.117037  0  0.11179  0.129347  0  1.023222  0
H  H36  1  0.35951554  0.85000289  0.64479757  1  0.134956  0  0.111355  0.128494  0  1.023373  0
H  H37  1  0.35439394  0.64992099  0.85538763  1  0.119127  0  0.111658  0.129048  0  1.023621  0
H  H38  1  0.00442109  0.35535334  0.34990850  1  0.125633  0  0.1115  0.12916  0  1.023434  0
H  H39  1  0.20978099  0.14472227  0.14992346  1  0.11709  0  0.111759  0.129319  0  1.02333  0
H  H40  1  0.55498254  0.21847404  0.49647775  1  0.12373  0  0.116571  0.087539  0  1.012015  0
H  H41  1  0.76974857  0.28162948  0.00328555  1  0.136455  0  0.116734  0.087541  0  1.011559  0
H  H42  1  0.05110048  0.50328327  0.71856745  1  0.087899  0  0.116448  0.087545  0  1.01174  0
H  H43  1  0.77302894  0.99657971  0.78160967  1  0.12243  0  0.116626  0.086966  0  1.011159  0
H  H44  1  0.44502132  0.78152441  0.50351927  1  0.123715  0  0.116593  0.087551  0  1.012054  0
H  H45  1  0.23025732  0.71837280  0.99671728  1  0.136473  0  0.116712  0.087543  0  1.011494  0
H  H46  1  0.94889873  0.49671391  0.28143552  1  0.087947  0  0.116442  0.087491  0  1.011726  0
H  H47  1  0.22697132  0.00341619  0.21839360  1  0.122439  0  0.116629  0.086976  0  1.011153  0
H  H48  1  0.25310097  0.42778128  0.56219859  1  0.110248  0  0.095482  0.100757  0  1.054956  0
H  H49  1  0.74300013  0.07227106  0.93782376  1  0.100493  0  0.096303  0.102288  0  1.053722  0
H  H50  1  0.81553299  0.43776774  0.92753128  1  0.106512  0  0.095509  0.100995  0  1.054959  0
H  H51  1  0.68095259  0.06220542  0.57237893  1  0.108376  0  0.096011  0.101427  0  1.055004  0
H  H52  1  0.74690756  0.57221589  0.43780137  1  0.110492  0  0.095466  0.100741  0  1.054965  0
H  H53  1  0.25699970  0.92772866  0.06217177  1  0.100439  0  0.096311  0.102344  0  1.05371  0
H  H54  1  0.18446570  0.56223389  0.07247000  1  0.106156  0  0.095511  0.101  0  1.054953  0
H  H55  1  0.31904547  0.93779812  0.42762062  1  0.108176  0  0.09603  0.10141  0  1.055013  0
H  H56  1  0.19836748  0.26818738  0.78407468  1  0.074678  0  0.097083  0.092657  0  1.041352  0
H  H57  1  0.75031753  0.23182757  0.71593029  1  0.059954  0  0.097447  0.092888  0  1.041915  0
H  H58  1  0.98253857  0.21592840  0.76806028  1  0.053135  0  0.097479  0.094005  0  1.040799  0
H  H59  1  0.46637077  0.28400801  0.73190233  1  0.079286  0  0.09744  0.092674  0  1.041477  0
H  H60  1  0.80163757  0.73180980  0.21592666  1  0.074714  0  0.097076  0.092682  0  1.041372  0
H  H61  1  0.24967918  0.76817789  0.28406897  1  0.060026  0  0.097428  0.092849  0  1.041927  0
H  H62  1  0.01745936  0.78407005  0.23194124  1  0.053143  0  0.097494  0.09402  0  1.040869  0
H  H63  1  0.53362933  0.71599681  0.26809526  1  0.079348  0  0.097427  0.092675  0  1.041552  0
H  H64  1  0.17521111  0.18003639  0.71000531  1  0.055382  0  0.099702  0.107394  0  1.001306  0
H  H65  1  0.56493396  0.31991972  0.79005521  1  0.076475  0  0.099977  0.108217  0  1.001002  0
H  H66  1  0.88513574  0.28991867  0.67995501  1  0.060282  0  0.099594  0.107404  0  1.001899  0
H  H67  1  0.35516131  0.20984488  0.82004638  1  0.05902  0  0.100115  0.107969  0  1.000869  0
H  H68  1  0.82479151  0.81996142  0.28999744  1  0.05498  0  0.099683  0.107321  0  1.001314  0
H  H69  1  0.43506381  0.68008001  0.20994863  1  0.076367  0  0.099975  0.108184  0  1.000994  0
H  H70  1  0.11485636  0.71008105  0.32004959  1  0.060392  0  0.099591  0.107392  0  1.001852  0
H  H71  1  0.64484007  0.79015739  0.17995121  1  0.059054  0  0.100097  0.107974  0  1.000835  0
H  H72  1  0.22990575  0.33908508  0.48761566  1  0.053905  0  0.09574  0.096141  0  1.002713  0
H  H73  1  0.55649876  0.16085173  0.01245049  1  0.058495  0  0.095804  0.096685  0  1.002145  0
H  H74  1  0.71750191  0.51231423  0.83895770  1  0.041572  0  0.096321  0.097557  0  1.002336  0
H  H75  1  0.56915988  0.98752883  0.66098676  1  0.057941  0  0.096095  0.09719  0  1.002089  0
H  H76  1  0.77009858  0.66091401  0.51238684  1  0.053956  0  0.095782  0.096227  0  1.002557  0
H  H77  1  0.44350244  0.83914863  0.98754823  1  0.058162  0  0.095801  0.09667  0  1.002133  0
H  H78  1  0.28249513  0.48768486  0.16104439  1  0.041594  0  0.096323  0.097563  0  1.002306  0
H  H79  1  0.43083859  0.01247407  0.33900992  1  0.058268  0  0.096109  0.097188  0  1.002016  0
H  H80  1  0.11187229  0.19447835  0.58631246  1  0.044845  0  0.093176  0.134508  0  0.997238  0
H  H81  1  0.39241122  0.30539576  0.91372444  1  0.049844  0  0.092986  0.134738  0  0.997445  0
H  H82  1  0.69803800  0.41365840  0.69443495  1  0.044794  0  0.093036  0.134354  0  0.998591  0
H  H83  1  0.30630427  0.08636014  0.80551042  1  0.048192  0  0.092731  0.134006  0  0.998275  0
H  H84  1  0.88813405  0.80551819  0.41368861  1  0.044755  0  0.093154  0.134496  0  0.997306  0
H  H85  1  0.60759278  0.69460014  0.08627372  1  0.050005  0  0.092965  0.134649  0  0.997411  0
H  H86  1  0.30196007  0.58634642  0.30556605  1  0.044746  0  0.093001  0.134304  0  0.998491  0
H  H87  1  0.69369708  0.91363831  0.19448771  1  0.0482  0  0.092718  0.133949  0  0.998262  0
H  H88  1  0.24613150  0.13440069  0.53786446  1  0.028917  0  0.093476  0.133431  0  0.990203  0
H  H89  1  0.41802482  0.36551852  0.96220853  1  0.036855  0  0.09374  0.134078  0  0.98938  0
H  H90  1  0.78387295  0.46207130  0.63437786  1  0.043393  0  0.093414  0.133218  0  0.989898  0
H  H91  1  0.38040284  0.03784200  0.86563815  1  0.040227  0  0.093664  0.133674  0  0.989886  0
H  H92  1  0.75387404  0.86559712  0.46213747  1  0.029103  0  0.093472  0.13342  0  0.99028  0
H  H93  1  0.58197174  0.63448057  0.03779126  1  0.036854  0  0.093727  0.134044  0  0.989457  0
H  H94  1  0.21612793  0.53793033  0.36562403  1  0.043327  0  0.093384  0.133169  0  0.989936  0
H  H95  1  0.61959967  0.96215900  0.13435686  1  0.040285  0  0.093648  0.13369  0  0.989763  0
H  H96  1  0.18656535  0.22703139  0.48641547  1  0.020543  0  0.087357  0.118846  0  1.022607  0
H  H97  1  0.39976217  0.27282613  0.01364073  1  0.012626  0  0.087484  0.119225  0  1.02169  0
H  H98  1  0.67287895  0.51347991  0.72703291  1  0.032706  0  0.08746  0.118495  0  1.023141  0
H  H99  1  0.41341897  0.98639471  0.77302308  1  -0.001065  0  0.08747  0.119023  0  1.022692  0
H  H100  1  0.81344042  0.77296515  0.51358617  1  0.020638  0  0.087324  0.118848  0  1.022583  0
H  H101  1  0.60023747  0.72717104  0.98635765  1  0.012818  0  0.087481  0.119203  0  1.02171  0
H  H102  1  0.32711780  0.48652300  0.27297036  1  0.032723  0  0.087461  0.118503  0  1.023012  0
H  H103  1  0.58658315  0.01360756  0.22697309  1  -0.001193  0  0.087461  0.119028  0  1.022676  0
C  C104  1  0.17430790  0.50999067  0.90945333  1  1.601588  0  0.214694  0.56784  0  4.221281  0
C  C105  1  0.09369910  0.98985367  0.59060472  1  1.55903  0  0.214308  0.566133  0  4.224456  0
C  C106  1  0.08368353  0.09051647  0.01007713  1  1.583758  0  0.213018  0.565487  0  4.22567  0
C  C107  1  0.68425597  0.40946841  0.48994579  1  1.554118  0  0.211639  0.560596  0  4.229555  0
C  C108  1  0.82569651  0.49000778  0.09054802  1  1.6014  0  0.214731  0.567846  0  4.221222  0
C  C109  1  0.90630415  0.01014160  0.40939657  1  1.559008  0  0.214274  0.566087  0  4.22471  0
C  C110  1  0.91631683  0.90948134  0.98992300  1  1.583667  0  0.213066  0.565666  0  4.225492  0
C  C111  1  0.31574611  0.59053195  0.51005553  1  1.554273  0  0.211672  0.560689  0  4.229468  0
C  C112  1  0.40030383  0.48305306  0.74567645  1  1.553508  0  0.216334  0.555898  0  4.197661  0
C  C113  1  0.12882196  0.01690749  0.75440475  1  1.537997  0  0.217087  0.556579  0  4.199583  0
C  C114  1  0.14573463  0.25427917  0.98315488  1  1.533266  0  0.217486  0.555924  0  4.197897  0
C  C115  1  0.88320013  0.24568378  0.51687266  1  1.55341  0  0.216313  0.555352  0  4.200372  0
C  C116  1  0.59969990  0.51694921  0.25432089  1  1.553649  0  0.216327  0.555857  0  4.197558  0
C  C117  1  0.87117398  0.98309414  0.24559648  1  1.5379  0  0.217004  0.556515  0  4.199737  0
C  C118  1  0.85426176  0.74571992  0.01685065  1  1.532614  0  0.217489  0.555918  0  4.198138  0
C  C119  1  0.11680883  0.75430958  0.48311349  1  1.553992  0  0.216129  0.555246  0  4.200292  0
C  C120  1  0.57445050  0.26787263  0.29347333  1  -0.060935  0  0.013605  0.105895  0  3.973772  0
C  C121  1  0.63585679  0.23217684  0.20638123  1  -0.054053  0  0.013573  0.104316  0  3.975387  0
C  C122  1  0.86800746  0.70643995  0.76796960  1  -0.02  0  0.013426  0.104491  0  3.97593  0
C  C123  1  0.84236570  0.79348452  0.73218164  1  -0.050023  0  0.014012  0.105829  0  3.974218  0
C  C124  1  0.42554624  0.73212773  0.70652705  1  -0.060715  0  0.013607  0.105913  0  3.973599  0
C  C125  1  0.36413373  0.76782607  0.79361849  1  -0.056077  0  0.013484  0.104262  0  3.975353  0
C  C126  1  0.13198675  0.29355977  0.23203360  1  -0.020312  0  0.013363  0.104457  0  3.976101  0
C  C127  1  0.15763475  0.20651392  0.26781878  1  -0.050013  0  0.014034  0.105794  0  3.974218  0
C  C128  1  0.31712656  0.46228798  0.75581928  1  0.404235  0  0.063592  -0.032644  0  4.05416  0
C  C129  1  0.03505255  0.03758687  0.74423220  1  0.409859  0  0.063838  -0.032318  0  4.056373  0
C  C130  1  0.07274146  0.24413569  0.96238772  1  0.423231  0  0.064051  -0.031125  0  4.057944  0
C  C131  1  0.77926144  0.25585940  0.53764319  1  0.405389  0  0.063043  -0.034707  0  4.056002  0
C  C132  1  0.68287721  0.53771174  0.24418207  1  0.40168  0  0.06367  -0.032406  0  4.054006  0
C  C133  1  0.96494483  0.96241349  0.25576962  1  0.409993  0  0.063826  -0.032379  0  4.056334  0
C  C134  1  0.92725939  0.75586276  0.03761299  1  0.423544  0  0.064043  -0.031135  0  4.057887  0
C  C135  1  0.22074187  0.74413778  0.46234807  1  0.405175  0  0.06312  -0.03462  0  4.055907  0
C  C136  1  0.24447965  0.40343124  0.72292066  1  1.026401  0  0.216158  0.311786  0  4.01534  0
C  C137  1  0.87063988  0.09654099  0.77706121  1  0.978763  0  0.217133  0.314085  0  4.015515  0
C  C138  1  0.96743361  0.27702507  0.90331638  1  0.982563  0  0.215245  0.310405  0  4.017241  0
C  C139  1  0.64773716  0.22299922  0.59662107  1  0.997044  0  0.216536  0.313052  0  4.013589  0
C  C140  1  0.75552287  0.59656530  0.27708351  1  1.026304  0  0.216095  0.31168  0  4.015437  0
C  C141  1  0.12936214  0.90346000  0.22293638  1  0.978902  0  0.217112  0.31403  0  4.015412  0
C  C142  1  0.03256838  0.72297338  0.09668320  1  0.982538  0  0.215238  0.310516  0  4.017251  0
C  C143  1  0.35226057  0.77700177  0.40337731  1  0.997135  0  0.216498  0.313068  0  4.01361  0
C  C144  1  0.22823600  0.35363893  0.67798169  1  0.019585  0  -0.018396  -0.006733  0  4.043147  0
C  C145  1  0.75967307  0.14638099  0.82201764  1  -0.023637  0  -0.018857  -0.007397  0  4.040154  0
C  C146  1  0.90630102  0.32199408  0.85346915  1  0.0104  0  -0.017305  -0.003574  0  4.040628  0
C  C147  1  0.58179939  0.17798553  0.64643072  1  -0.030821  0  -0.01822  -0.007822  0  4.043328  0
C  C148  1  0.77177024  0.64635633  0.32202081  1  0.019561  0  -0.018384  -0.006539  0  4.043051  0
C  C149  1  0.24032797  0.85361874  0.17797877  1  -0.023851  0  -0.018827  -0.007374  0  4.040285  0
C  C150  1  0.09370228  0.67800564  0.14652989  1  0.010373  0  -0.017299  -0.003638  0  4.040616  0
C  C151  1  0.41820053  0.82201611  0.35356656  1  -0.03078  0  -0.018263  -0.007845  0  4.043236  0
C  C152  1  0.50690612  0.35407023  0.30891504  1  0.029663  0  -0.077856  -0.167591  0  3.922604  0
C  C153  1  0.66995006  0.14599098  0.19094745  1  0.034991  0  -0.078886  -0.168374  0  3.925052  0
C  C154  1  0.81592641  0.69104503  0.85419793  1  -0.013238  0  -0.077755  -0.165796  0  3.925512  0
C  C155  1  0.86113963  0.80891156  0.64595199  1  0.009523  0  -0.078209  -0.167099  0  3.925341  0
C  C156  1  0.49309152  0.64593140  0.69108449  1  0.029714  0  -0.077827  -0.167599  0  3.922535  0
C  C157  1  0.33004444  0.85401129  0.80905003  1  0.034832  0  -0.078844  -0.168254  0  3.925115  0
C  C158  1  0.18407354  0.30895342  0.14580507  1  -0.012617  0  -0.077727  -0.16579  0  3.925375  0
C  C159  1  0.13885839  0.19108753  0.35404983  1  0.009324  0  -0.078204  -0.167109  0  3.925351  0
C  C160  1  0.46168884  0.38701343  0.39023529  1  0.433325  0  0.052211  0.111694  0  3.935957  0
C  C161  1  0.73898870  0.11306233  0.10962722  1  0.483744  0  0.05277  0.11363  0  3.935307  0
C  C162  1  0.85194649  0.60972788  0.88715868  1  0.505875  0  0.05233  0.111382  0  3.935912  0
C  C163  1  0.84890328  0.89021205  0.61299758  1  0.503677  0  0.052115  0.111572  0  3.93994  0
C  C164  1  0.53831196  0.61298821  0.60976458  1  0.433286  0  0.052234  0.111801  0  3.935802  0
C  C165  1  0.26101058  0.88694057  0.89037005  1  0.48397  0  0.052755  0.113624  0  3.93521  0
C  C166  1  0.14805170  0.39027248  0.11284373  1  0.505619  0  0.052252  0.111211  0  3.935517  0
C  C167  1  0.15109660  0.10978640  0.38700340  1  0.503797  0  0.052126  0.111543  0  3.939925  0
C  C168  1  0.58854895  0.21737671  0.36332414  1  -0.070807  0  -0.079476  -0.167416  0  3.908228  0
C  C169  1  0.66917588  0.28271207  0.13651135  1  0.016353  0  -0.078819  -0.166726  0  3.907082  0
C  C170  1  0.95178126  0.63653201  0.71748973  1  -0.057486  0  -0.079431  -0.168174  0  3.909802  0
C  C171  1  0.80574198  0.86337192  0.78268068  1  0.03399  0  -0.080094  -0.169243  0  3.908806  0
C  C172  1  0.41145112  0.78262429  0.63667399  1  -0.070826  0  -0.079478  -0.167388  0  3.908069  0
C  C173  1  0.33082102  0.71728956  0.86348961  1  0.017703  0  -0.078805  -0.166706  0  3.907004  0
C  C174  1  0.04821757  0.36346708  0.28251268  1  -0.05797  0  -0.079367  -0.168103  0  3.909757  0
C  C175  1  0.19425658  0.13662334  0.21732112  1  0.034078  0  -0.080066  -0.1692  0  3.908848  0
C  C176  1  0.54153771  0.25554508  0.44224298  1  0.49133  0  0.04832  0.103638  0  3.952258  0
C  C177  1  0.73920340  0.24457616  0.05757147  1  0.451354  0  0.048571  0.10414  0  3.951117  0
C  C178  1  0.98356872  0.55757793  0.75565878  1  0.518908  0  0.047834  0.10269  0  3.951169  0
C  C179  1  0.79686304  0.94229604  0.74452854  1  0.41545  0  0.048728  0.105724  0  3.949826  0
C  C180  1  0.45846340  0.74445465  0.55775544  1  0.490982  0  0.048261  0.103572  0  3.952158  0
C  C181  1  0.26079700  0.75542674  0.94242956  1  0.451669  0  0.048571  0.104094  0  3.950963  0
C  C182  1  0.01643278  0.44242052  0.24434337  1  0.518894  0  0.047833  0.10269  0  3.951166  0
C  C183  1  0.20313636  0.05770305  0.25547330  1  0.415352  0  0.048727  0.105731  0  3.949829  0
C  C184  1  0.22478773  0.46971410  0.82537810  1  0.411121  0  0.069334  -0.006078  0  4.033257  0
C  C185  1  0.01974567  0.03010996  0.67466489  1  0.42201  0  0.069896  -0.003739  0  4.032724  0
C  C186  1  0.05006869  0.17455757  0.96973037  1  0.39447  0  0.068682  -0.007046  0  4.035583  0
C  C187  1  0.69432996  0.32546507  0.53032525  1  0.437914  0  0.069563  -0.003203  0  4.034179  0
C  C188  1  0.77521629  0.53028562  0.17462440  1  0.413399  0  0.069285  -0.006176  0  4.033244  0
C  C189  1  0.98025575  0.96988849  0.32533525  1  0.421786  0  0.069891  -0.003696  0  4.03277  0
C  C190  1  0.94993265  0.82544152  0.03027093  1  0.394647  0  0.068716  -0.007039  0  4.035534  0
C  C191  1  0.30567115  0.67453338  0.46967173  1  0.437783  0  0.069543  -0.003217  0  4.034122  0
C  C192  1  0.23750007  0.37266052  0.59397777  1  -0.056304  0  -0.095608  -0.122669  0  4.009633  0
C  C193  1  0.70399834  0.12736777  0.90605317  1  -0.021124  0  -0.096305  -0.123358  0  4.009188  0
C  C194  1  0.83156716  0.40598847  0.87248070  1  -0.055934  0  -0.095318  -0.121907  0  4.011815  0
C  C195  1  0.61018936  0.09395428  0.62747016  1  -0.022354  0  -0.095097  -0.120862  0  4.010832  0
C  C196  1  0.76250717  0.62733729  0.40602246  1  -0.05614  0  -0.095534  -0.122606  0  4.009611  0
C  C197  1  0.29600046  0.87263577  0.09394497  1  -0.020955  0  -0.096362  -0.123485  0  4.009354  0
C  C198  1  0.16843037  0.59401125  0.12752198  1  -0.055578  0  -0.095268  -0.12183  0  4.011774  0
C  C199  1  0.38980832  0.90605054  0.37252566  1  -0.022188  0  -0.095063  -0.120846  0  4.010893  0
C  C200  1  0.20468351  0.28412392  0.71919661  1  -0.082972  0  -0.091455  -0.111083  0  4.003007  0
C  C201  1  0.70773726  0.21591320  0.78084451  1  -0.023385  0  -0.091144  -0.110311  0  4.001499  0
C  C202  1  0.92394156  0.28079751  0.78395378  1  -0.06056  0  -0.092482  -0.115948  0  4.006503  0
C  C203  1  0.48870625  0.21911458  0.71597225  1  -0.075204  0  -0.090081  -0.108137  0  4.001648  0
C  C204  1  0.79532113  0.71587326  0.28080444  1  -0.082627  0  -0.091484  -0.1112  0  4.002871  0
C  C205  1  0.29226153  0.78409034  0.21915362  1  -0.022688  0  -0.091089  -0.110193  0  4.001451  0
C  C206  1  0.07605858  0.71920349  0.21604637  1  -0.060569  0  -0.092544  -0.116038  0  4.006683  0
C  C207  1  0.51129237  0.78088770  0.28402529  1  -0.075425  0  -0.090093  -0.108216  0  4.001789  0
C  C208  1  0.20050529  0.25322905  0.59319302  1  0.015238  0  -0.007353  0.172486  0  3.976492  0
C  C209  1  0.54666551  0.24671182  0.90688341  1  0.019546  0  -0.00666  0.175039  0  3.974388  0
C  C210  1  0.79360254  0.40671298  0.75318234  1  0.02313  0  -0.007815  0.173263  0  3.975626  0
C  C211  1  0.45373239  0.09307991  0.74682577  1  0.053174  0  -0.006861  0.17612  0  3.97287  0
C  C212  1  0.79949853  0.74676622  0.40680772  1  0.015128  0  -0.007397  0.172354  0  3.97654  0
C  C213  1  0.45333398  0.75328854  0.09311700  1  0.01962  0  -0.00662  0.175033  0  3.974387  0
C  C214  1  0.20639266  0.59328865  0.24682032  1  0.022929  0  -0.007788  0.173256  0  3.975592  0
C  C215  1  0.54626512  0.90692491  0.25317092  1  0.053256  0  -0.00689  0.176014  0  3.972714  0
C  C216  1  0.19168893  0.23459918  0.67722352  1  -0.044969  0  -0.092861  -0.137881  0  3.958502  0
C  C217  1  0.60322746  0.26538925  0.82285422  1  -0.084109  0  -0.093944  -0.140397  0  3.960087  0
C  C218  1  0.86885549  0.32271597  0.73448780  1  -0.054817  0  -0.091824  -0.135371  0  3.959538  0
C  C219  1  0.42621554  0.17711304  0.76547626  1  -0.032367  0  -0.094665  -0.141413  0  3.957066  0
C  C220  1  0.80831572  0.76539800  0.32277753  1  -0.04457  0  -0.092815  -0.137754  0  3.958383  0
C  C221  1  0.39677123  0.73461238  0.17714706  1  -0.084636  0  -0.093936  -0.14037  0  3.96  0
C  C222  1  0.13113759  0.67728440  0.26551481  1  -0.054792  0  -0.091807  -0.135275  0  3.959529  0
C  C223  1  0.57378407  0.82289115  0.23452075  1  -0.03217  0  -0.094618  -0.141348  0  3.956895  0
C  C224  1  0.22345199  0.32292430  0.55273012  1  -0.09222  0  -0.098451  -0.147386  0  3.987266  0
C  C225  1  0.59892987  0.17705226  0.94732771  1  -0.081284  0  -0.098561  -0.14933  0  3.98761  0
C  C226  1  0.77616902  0.44721774  0.82280724  1  -0.07025  0  -0.099049  -0.150681  0  3.988489  0
C  C227  1  0.54643811  0.05265098  0.67717182  1  -0.111136  0  -0.099847  -0.151772  0  3.986808  0
C  C228  1  0.77655072  0.67707415  0.44727292  1  -0.092714  0  -0.098483  -0.147475  0  3.98724  0
C  C229  1  0.40106874  0.82294810  0.05267010  1  -0.081  0  -0.098582  -0.149312  0  3.987619  0
C  C230  1  0.22382901  0.55278326  0.17719431  1  -0.070227  0  -0.099087  -0.150735  0  3.98845  0
C  C231  1  0.45355827  0.94735256  0.32282455  1  -0.111618  0  -0.099813  -0.151597  0  3.986748  0
C  C232  1  0.18547952  0.19970819  0.54854483  1  -0.036632  0  -0.23727  -0.41124  0  3.96355  0
C  C233  1  0.43342612  0.30020656  0.95152261  1  -0.047289  0  -0.237658  -0.413131  0  3.962117  0
C  C234  1  0.73388461  0.45137844  0.69968530  1  -0.057798  0  -0.237566  -0.411245  0  3.965183  0
C  C235  1  0.38509682  0.04849855  0.80031901  1  -0.040836  0  -0.237718  -0.412419  0  3.965156  0
C  C236  1  0.81452588  0.80029090  0.45145453  1  -0.036961  0  -0.2372  -0.411167  0  3.96352  0
C  C237  1  0.56657263  0.69979125  0.04847634  1  -0.047618  0  -0.237626  -0.412979  0  3.962131  0
C  C238  1  0.26610979  0.54862447  0.30031822  1  -0.057677  0  -0.237511  -0.411158  0  3.964922  0
C  C239  1  0.61490392  0.95150372  0.19967713  1  -0.040855  0  -0.237703  -0.412403  0  3.964934  0
N  N240  1  0.48074826  0.33948798  0.45553913  1  -1.22646  0  -0.329409  -0.255118  0  3.515969  0
N  N241  1  0.77572649  0.16062002  0.04431630  1  -1.262607  0  -0.330426  -0.256555  0  3.516156  0
N  N242  1  0.93616311  0.54435125  0.83963565  1  -1.248609  0  -0.329228  -0.253748  0  3.509936  0
N  N243  1  0.82022968  0.95554832  0.66054210  1  -1.254255  0  -0.330237  -0.256455  0  3.51378  0
N  N244  1  0.51925429  0.66051047  0.54445988  1  -1.226295  0  -0.329365  -0.255127  0  3.515783  0
N  N245  1  0.22427346  0.83938480  0.95568215  1  -1.262934  0  -0.330395  -0.256525  0  3.515944  0
N  N246  1  0.06383411  0.45565039  0.16036847  1  -1.248572  0  -0.329217  -0.253652  0  3.50971  0
N  N247  1  0.17976809  0.04445013  0.33946029  1  -1.254344  0  -0.330267  -0.256454  0  3.51377  0
N  N248  1  0.32717705  0.42173036  0.69161515  1  -1.217664  0  -0.3582  -0.360111  0  3.494936  0
N  N249  1  0.94032684  0.07821499  0.80839845  1  -1.212574  0  -0.359547  -0.363383  0  3.495957  0
N  N250  1  0.01869219  0.30834645  0.92176119  1  -1.200465  0  -0.358379  -0.361465  0  3.496692  0
N  N251  1  0.74878002  0.19164559  0.57818734  1  -1.226969  0  -0.358617  -0.361019  0  3.492561  0
N  N252  1  0.67282568  0.57826936  0.30838445  1  -1.217845  0  -0.358264  -0.360289  0  3.495129  0
N  N253  1  0.05967193  0.92178601  0.19160168  1  -1.212799  0  -0.359524  -0.363251  0  3.495765  0
N  N254  1  0.98130715  0.69165583  0.07823981  1  -1.200469  0  -0.358353  -0.361447  0  3.496764  0
N  N255  1  0.25121940  0.80835286  0.42180646  1  -1.227037  0  -0.358676  -0.361053  0  3.492581  0
N  N256  1  0.18058608  0.43242536  0.80355649  1  -1.218788  0  -0.355621  -0.365923  0  3.467993  0
N  N257  1  0.91640413  0.06751846  0.69644188  1  -1.190618  0  -0.357079  -0.368233  0  3.469701  0
N  N258  1  0.98417280  0.19639033  0.93227769  1  -1.189917  0  -0.355628  -0.365513  0  3.467661  0
N  N259  1  0.61280898  0.30364441  0.56768911  1  -1.199281  0  -0.356878  -0.368058  0  3.469481  0
N  N260  1  0.81941727  0.56757308  0.19644799  1  -1.21846  0  -0.355533  -0.365841  0  3.467979  0
N  N261  1  0.08359830  0.93248254  0.30355600  1  -1.1904  0  -0.357097  -0.368266  0  3.469736  0
N  N262  1  0.01582912  0.80360939  0.06772133  1  -1.189959  0  -0.355663  -0.365609  0  3.46774  0
N  N263  1  0.38719094  0.69635722  0.43230816  1  -1.199247  0  -0.356854  -0.368102  0  3.46949  0
O  O264  1  0.47876683  0.46756723  0.67761988  1  -1.165702  0  -0.297503  -0.504232  0  2.222085  0
O  O265  1  0.12364613  0.03251581  0.82245334  1  -1.150583  0  -0.298138  -0.504072  0  2.223693  0
O  O266  1  0.15614370  0.32233489  0.96760799  1  -1.151647  0  -0.297563  -0.503209  0  2.223122  0
O  O267  1  0.94613316  0.17763142  0.53239743  1  -1.164741  0  -0.29753  -0.50318  0  2.22242  0
O  O268  1  0.52123455  0.53243504  0.32237771  1  -1.16589  0  -0.297504  -0.504268  0  2.222094  0
O  O269  1  0.87634739  0.96748837  0.17754902  1  -1.150574  0  -0.29805  -0.504003  0  2.22368  0
O  O270  1  0.84385130  0.67766483  0.03240068  1  -1.151368  0  -0.297527  -0.503152  0  2.223299  0
O  O271  1  0.05387683  0.82235812  0.46758612  1  -1.164836  0  -0.297479  -0.503169  0  2.222349  0
O  O272  1  0.22230393  0.53548417  0.93181539  1  -1.173082  0  -0.31203  -0.520153  0  2.200203  0
O  O273  1  0.18956724  0.96426456  0.56832357  1  -1.159186  0  -0.311201  -0.51907  0  2.200512  0
O  O274  1  0.15395461  0.06819702  0.03568960  1  -1.164136  0  -0.3109  -0.519311  0  2.203613  0
O  O275  1  0.75773034  0.43185023  0.46448911  1  -1.164079  0  -0.31024  -0.517363  0  2.204251  0
O  O276  1  0.77770147  0.46451492  0.06818397  1  -1.173045  0  -0.312034  -0.520171  0  2.200028  0
O  O277  1  0.81043601  0.03573070  0.43167773  1  -1.159132  0  -0.311153  -0.519026  0  2.200689  0
O  O278  1  0.84604259  0.93180143  0.96431334  1  -1.164132  0  -0.310882  -0.519311  0  2.203555  0
O  O279  1  0.24227264  0.56815013  0.53550993  1  -1.163948  0  -0.31024  -0.517392  0  2.204126  0
O  O280  1  0.08311548  0.51637014  0.95617816  1  -1.167112  0  -0.321407  -0.525683  0  2.38117  0
O  O281  1  0.05564650  0.98357239  0.54380446  1  -1.163545  0  -0.321816  -0.525349  0  2.383235  0
O  O282  1  0.03926127  0.04378025  0.01641126  1  -1.166764  0  -0.321188  -0.524389  0  2.380741  0
O  O283  1  0.59951111  0.45612574  0.48343349  1  -1.162199  0  -0.319823  -0.521193  0  2.382533  0
O  O284  1  0.91688717  0.48363022  0.04382260  1  -1.166977  0  -0.32144  -0.525704  0  2.381148  0
O  O285  1  0.94435594  0.01642288  0.45619625  1  -1.163617  0  -0.32179  -0.525304  0  2.383334  0
O  O286  1  0.96073901  0.95621820  0.98359002  1  -1.166774  0  -0.321218  -0.524513  0  2.38071  0
O  O287  1  0.40049043  0.54388036  0.51657246  1  -1.162355  0  -0.319799  -0.521203  0  2.382504  0
O  O288  1  0.39023857  0.51597972  0.81188097  1  -1.17939  0  -0.334134  -0.493236  0  2.302861  0
O  O289  1  0.21793158  0.98391870  0.68826419  1  -1.181948  0  -0.333533  -0.493925  0  2.301986  0
O  O290  1  0.20188812  0.18814141  0.01612670  1  -1.17269  0  -0.335098  -0.494583  0  2.302828  0
O  O291  1  0.90613613  0.31185360  0.48396416  1  -1.179996  0  -0.333475  -0.492699  0  2.303867  0
O  O292  1  0.60976509  0.48402383  0.18811580  1  -1.179225  0  -0.334129  -0.493253  0  2.302824  0
O  O293  1  0.78206835  0.01608548  0.31173598  1  -1.181877  0  -0.333495  -0.493847  0  2.302159  0
O  O294  1  0.79811118  0.81185640  0.98387657  1  -1.172775  0  -0.335116  -0.494614  0  2.302975  0
O  O295  1  0.09387151  0.68813784  0.51602425  1  -1.18031  0  -0.333342  -0.492629  0  2.303792  0
