# generated using pymatgen
data_ZnH9C21I3N(ClO2)2
_symmetry_space_group_name_H-M   'P 1'
_cell_length_a   11.42313305
_cell_length_b   18.33401193
_cell_length_c   19.57663376
_cell_angle_alpha   94.47482565
_cell_angle_beta   83.85164610
_cell_angle_gamma   104.45829498
_symmetry_Int_Tables_number   1
_chemical_formula_structural   ZnH9C21I3N(ClO2)2
_chemical_formula_sum   'Zn2 H18 C42 I6 N2 Cl4 O8'
_cell_volume   3941.68346241
_cell_formula_units_Z   2
loop_
 _symmetry_equiv_pos_site_id
 _symmetry_equiv_pos_as_xyz
  1  'x, y, z'
loop_
 _atom_site_type_symbol
 _atom_site_label
 _atom_site_symmetry_multiplicity
 _atom_site_fract_x
 _atom_site_fract_y
 _atom_site_fract_z
 _atom_site_occupancy
 _atom_site_pbe_bader_charge
 _atom_site_pbe_bader_spin_density
 _atom_site_pbe_cm5_charge
 _atom_site_pbe_ddec_charge
 _atom_site_pbe_ddec_spin_density
 _atom_site_pbe_ddec_sum_bond_order
 _atom_site_pbe_magmom
Zn  Zn0  1  0.47396225  0.41910106  0.49340692  1  1.298946  0  0.665743  0.849528  0  2.374939  0
Zn  Zn1  1  0.52603886  0.58089606  0.50659368  1  1.297426  0  0.665732  0.849438  0  2.374858  0
H  H2  1  0.34383692  0.12723431  0.42502583  1  0.091145  0  0.112937  0.136497  0  0.98074  0
H  H3  1  0.53968470  0.37713798  0.70655075  1  0.079603  0  0.099314  0.104761  0  1.002464  0
H  H4  1  0.45658864  0.62042758  0.16610826  1  0.06584  0  0.097076  0.101831  0  1.00478  0
H  H5  1  0.54345783  0.37959523  0.83389776  1  0.0662  0  0.097069  0.101947  0  1.004842  0
H  H6  1  0.49504371  0.39174450  0.15048444  1  0.06772  0  0.101054  0.104135  0  0.994935  0
H  H7  1  0.50495574  0.60826882  0.84950462  1  0.06762  0  0.101147  0.104159  0  0.994844  0
H  H8  1  0.49252611  0.39378928  0.27848901  1  0.074422  0  0.09983  0.10527  0  1.01193  0
H  H9  1  0.50745452  0.60619925  0.72149594  1  0.074377  0  0.099875  0.105421  0  1.011916  0
H  H10  1  0.65367554  0.46975266  0.06540465  1  0.086378  0  0.10824  0.124847  0  0.991567  0
H  H11  1  0.34634943  0.53027528  0.93459249  1  0.08633  0  0.108179  0.124619  0  0.99178  0
H  H12  1  0.65612892  0.87276551  0.57497948  1  0.090968  0  0.112916  0.136498  0  0.980693  0
H  H13  1  0.61842528  0.33735048  0.54305328  1  0.151491  0  0.116341  0.103778  0  1.035239  0
H  H14  1  0.38159888  0.66263327  0.45694096  1  0.151318  0  0.116282  0.103801  0  1.035144  0
H  H15  1  0.39747147  0.06644860  0.59429777  1  0.10183  0  0.114359  0.138  0  0.970042  0
H  H16  1  0.60250155  0.93353700  0.40570724  1  0.102145  0  0.114363  0.13799  0  0.970098  0
H  H17  1  0.08876952  0.45489094  0.58372345  1  0.128205  0  0.099488  0.132062  0  1.029137  0
H  H18  1  0.91124441  0.54512208  0.41628615  1  0.128384  0  0.099521  0.132096  0  1.029296  0
H  H19  1  0.46032672  0.62286486  0.29345849  1  0.079541  0  0.099267  0.104691  0  1.002463  0
C  C20  1  0.51729004  0.49037179  0.63035085  1  1.573945  0  0.211065  0.590085  0  4.179014  0
C  C21  1  0.48565504  0.50426570  0.07360927  1  0.062122  0  -0.008492  0.026187  0  3.984791  0
C  C22  1  0.39827796  0.24696824  0.45047320  1  0.323266  0  0.087575  0.192965  0  3.921116  0
C  C23  1  0.60170414  0.75302817  0.54953918  1  0.323041  0  0.087563  0.193075  0  3.921396  0
C  C24  1  0.40576297  0.17221573  0.45224929  1  0.042353  0  -0.08515  -0.197931  0  3.940503  0
C  C25  1  0.59422436  0.82777711  0.54775715  1  0.042632  0  -0.085285  -0.198047  0  3.940711  0
C  C26  1  0.49276747  0.15540367  0.48940321  1  0.073904  0  0.007563  0.100814  0  3.992215  0
C  C27  1  0.50721944  0.84457559  0.51060266  1  0.074674  0  0.007639  0.10078  0  3.992061  0
C  C28  1  0.57179016  0.21583694  0.52247439  1  -0.193934  0  -0.044737  -0.037043  0  3.870607  0
C  C29  1  0.42819298  0.78414555  0.47752149  1  -0.194196  0  -0.044702  -0.036944  0  3.870646  0
C  C30  1  0.55898169  0.28885305  0.51829022  1  0.506713  0  0.054691  0.100027  0  3.861665  0
C  C31  1  0.48269103  0.50962675  0.36965448  1  1.57432  0  0.211056  0.5899  0  4.178891  0
C  C32  1  0.44102617  0.71113783  0.48171299  1  0.505581  0  0.054724  0.100017  0  3.861415  0
C  C33  1  0.44232983  0.03743551  0.55272832  1  0.047168  0  -0.089916  -0.179823  0  3.968217  0
C  C34  1  0.55766115  0.96255061  0.44728335  1  0.047113  0  -0.089826  -0.17969  0  3.967966  0
C  C35  1  0.73383954  0.51511387  0.47593608  1  1.584815  0  0.208499  0.657828  0  4.168778  0
C  C36  1  0.26616281  0.48489561  0.52406040  1  1.584871  0  0.208467  0.657873  0  4.168661  0
C  C37  1  0.44478954  0.96257628  0.55868213  1  0.061506  0  0.012354  0.104055  0  4.046454  0
C  C38  1  0.55520179  0.03743009  0.44132375  1  0.061954  0  0.01235  0.103908  0  4.047364  0
C  C39  1  0.50268461  0.92422925  0.50590910  1  -0.014453  0  -0.014556  0.018144  0  4.00717  0
C  C40  1  0.49732120  0.07575802  0.49408172  1  -0.01369  0  -0.014597  0.018138  0  4.007716  0
C  C41  1  0.86657214  0.51981469  0.46402528  1  0.008231  0  -0.102875  -0.246709  0  3.882295  0
C  C42  1  0.47716360  0.50849262  0.29350347  1  0.007479  0  -0.020353  -0.030888  0  3.964819  0
C  C43  1  0.13343095  0.48018174  0.53597011  1  0.008621  0  -0.102919  -0.246754  0  3.882229  0
C  C44  1  0.93519562  0.49778412  0.50617332  1  -0.239059  0  -0.052926  0.043668  0  3.946269  0
C  C45  1  0.06479182  0.50218570  0.49381370  1  -0.196255  0  -0.052823  0.043741  0  3.946134  0
C  C46  1  0.46629793  0.57211726  0.26169187  1  -0.080377  0  -0.087357  -0.086983  0  3.981039  0
C  C47  1  0.53371675  0.42788314  0.73830950  1  -0.080597  0  -0.087367  -0.086831  0  3.980933  0
C  C48  1  0.46452172  0.57066549  0.19055820  1  0.029816  0  -0.094957  -0.134993  0  3.99363  0
C  C49  1  0.53550923  0.42934831  0.80944225  1  0.030167  0  -0.094879  -0.135314  0  3.99395  0
C  C50  1  0.47664386  0.50603118  0.14968353  1  -0.037142  0  -0.009022  0.08023  0  4.008839  0
C  C51  1  0.52338542  0.49398594  0.85031251  1  -0.037518  0  -0.009057  0.080352  0  4.008984  0
C  C52  1  0.48690865  0.44237077  0.18193620  1  -0.103733  0  -0.09206  -0.13625  0  3.987114  0
C  C53  1  0.52283430  0.49150614  0.70649217  1  0.007848  0  -0.020354  -0.031041  0  3.96475  0
C  C54  1  0.51310700  0.55764185  0.81805440  1  -0.103562  0  -0.092167  -0.136262  0  3.986993  0
C  C55  1  0.48573690  0.44320275  0.25308583  1  -0.017472  0  -0.085673  -0.084128  0  3.982556  0
C  C56  1  0.51426301  0.55680153  0.74690435  1  -0.017869  0  -0.085688  -0.084193  0  3.982323  0
C  C57  1  0.58477500  0.48218831  0.03687211  1  -0.026064  0  -0.094425  -0.189917  0  3.977311  0
C  C58  1  0.41525252  0.51784190  0.96312658  1  -0.02653  0  -0.094354  -0.189727  0  3.977546  0
C  C59  1  0.59931180  0.47793460  0.96522148  1  0.064798  0  0.011361  0.106531  0  4.03317  0
C  C60  1  0.40071135  0.52209565  0.03477734  1  0.065477  0  0.011366  0.106581  0  4.033418  0
C  C61  1  0.51436292  0.49576502  0.92638205  1  0.062169  0  -0.008581  0.026066  0  3.985086  0
I  I62  1  0.15029190  0.54302042  0.39690846  1  0.092579  0  0.082952  -0.019222  0  1.49289  0
I  I63  1  0.84967088  0.45689891  0.60305971  1  0.092775  0  0.082944  -0.01925  0  1.492971  0
I  I64  1  0.71062968  0.20010586  0.57742377  1  0.148885  0  0.089022  -0.007702  0  1.355993  0
I  I65  1  0.28933874  0.79986073  0.42259079  1  0.148999  0  0.089176  -0.007532  0  1.356148  0
I  I66  1  0.26594430  0.26964885  0.39457366  1  0.197562  0  0.123674  0.022296  0  1.369678  0
I  I67  1  0.73404324  0.73035905  0.60545030  1  0.197387  0  0.123549  0.022102  0  1.369417  0
N  N68  1  0.47279447  0.30396461  0.48337810  1  -1.222962  0  -0.311293  -0.210669  0  3.462891  0
N  N69  1  0.52721462  0.69603216  0.51663760  1  -1.221956  0  -0.311091  -0.210517  0  3.462972  0
Cl  Cl70  1  0.37392888  0.91694943  0.63146641  1  -0.188774  0  -0.008366  -0.071362  0  1.436005  0
Cl  Cl71  1  0.62602706  0.08302898  0.36853878  1  -0.188847  0  -0.008215  -0.071123  0  1.436787  0
Cl  Cl72  1  0.72860929  0.45369009  0.92558990  1  -0.218921  0  -0.025474  -0.102334  0  1.446136  0
Cl  Cl73  1  0.27144233  0.54635345  0.07440816  1  -0.218941  0  -0.025372  -0.10224  0  1.446306  0
O  O74  1  0.49852008  0.42658284  0.59710214  1  -1.166482  0  -0.319602  -0.552898  0  2.338478  0
O  O75  1  0.50148759  0.57341701  0.40289685  1  -1.16648  0  -0.319548  -0.552785  0  2.338654  0
O  O76  1  0.53026017  0.55406904  0.60479762  1  -1.170433  0  -0.322123  -0.562792  0  2.403152  0
O  O77  1  0.46967941  0.44591799  0.39520585  1  -1.170582  0  -0.322157  -0.562747  0  2.402868  0
O  O78  1  0.66349839  0.44962278  0.47701189  1  -1.164959  0  -0.313285  -0.548454  0  2.333167  0
O  O79  1  0.33648303  0.55038053  0.52294860  1  -1.165641  0  -0.313233  -0.548433  0  2.33355  0
O  O80  1  0.70378515  0.57775103  0.48175000  1  -1.147849  0  -0.320706  -0.543556  0  2.294187  0
O  O81  1  0.29623043  0.42225552  0.51827720  1  -1.147379  0  -0.32076  -0.543652  0  2.293676  0
