# generated using pymatgen
data_CuP2H18C20(NO3)2
_symmetry_space_group_name_H-M   'P 1'
_cell_length_a   9.72329563
_cell_length_b   11.29638277
_cell_length_c   11.28270383
_cell_angle_alpha   116.23402394
_cell_angle_beta   111.63305905
_cell_angle_gamma   92.96405535
_symmetry_Int_Tables_number   1
_chemical_formula_structural   CuP2H18C20(NO3)2
_chemical_formula_sum   'Cu2 P4 H36 C40 N4 O12'
_cell_volume   998.48880073
_cell_formula_units_Z   2
loop_
 _symmetry_equiv_pos_site_id
 _symmetry_equiv_pos_as_xyz
  1  'x, y, z'
loop_
 _atom_site_type_symbol
 _atom_site_label
 _atom_site_symmetry_multiplicity
 _atom_site_fract_x
 _atom_site_fract_y
 _atom_site_fract_z
 _atom_site_occupancy
 _atom_site_hle17_ddec_charge
 _atom_site_hle17_ddec_spin_density
 _atom_site_hle17_ddec_sum_bond_order
 _atom_site_hle17_magmom
 _atom_site_hse06_10hf_ddec_charge
 _atom_site_hse06_10hf_ddec_spin_density
 _atom_site_hse06_10hf_ddec_sum_bond_order
 _atom_site_hse06_10hf_magmom
 _atom_site_hse06_ddec_charge
 _atom_site_hse06_ddec_spin_density
 _atom_site_hse06_ddec_sum_bond_order
 _atom_site_hse06_magmom
 _atom_site_pbe_cm5_charge
 _atom_site_pbe_ddec_charge
 _atom_site_pbe_ddec_spin_density
 _atom_site_pbe_ddec_sum_bond_order
 _atom_site_pbe_magmom
Cu  Cu0  1  0.63569349  0.87462078  0.88771078  1  0.951445  0.761299  1.841055  0.541  0.934822  0.83198  2.235105  0.655  1.014371  0.900868  2.173236  0.736  0.783499  0.884945  0.779533  2.278961  0.598
Cu  Cu1  1  0.36430475  0.12538046  0.11229067  1  0.951445  -0.761316  1.841104  -0.541  0.934821  -0.831978  2.23514  -0.655  1.014361  -0.900867  2.173314  -0.736  0.783509  0.884923  -0.77953  2.279032  -0.598
P  P2  1  0.67193819  0.02336894  0.21395747  1  1.491832  0.003373  4.753166  0.0  1.349638  0.004969  5.257205  0.003  1.400588  0.003902  5.219613  0.002  0.346854  1.313883  0.005526  5.282431  0.002
P  P3  1  0.32806195  0.97663128  0.78604146  1  1.49177  -0.00339  4.753195  0.0  1.349565  -0.004969  5.257233  -0.003  1.400515  -0.0039  5.219642  -0.002  0.346828  1.313805  -0.005526  5.28246  -0.002
P  P4  1  0.25449770  0.79931159  0.00644989  1  1.509069  -0.004002  4.7665  -0.001  1.367158  -0.00475  5.26726  -0.003  1.417927  -0.003444  5.227877  -0.003  0.35476  1.331413  -0.00577  5.294186  -0.003
P  P5  1  0.74550103  0.20068760  0.99354726  1  1.509214  0.004002  4.766281  0.001  1.367312  0.004752  5.267033  0.003  1.418081  0.00345  5.227645  0.003  0.354807  1.331567  0.00577  5.293963  0.003
H  H6  1  0.51734026  0.89609904  0.23696244  1  0.43681  -5e-06  0.872651  0.0  0.402264  7.8e-05  0.942165  0.0  0.414336  5.7e-05  0.924981  0.0  0.299077  0.393497  8.2e-05  0.954627  0.0
H  H7  1  0.48265849  0.10390016  0.76303649  1  0.436883  5e-06  0.87255  0.0  0.402332  -7.8e-05  0.942074  0.0  0.414404  -5.6e-05  0.924887  0.0  0.299117  0.393563  -8.2e-05  0.954537  0.0
H  H8  1  0.32133749  0.76668159  0.82943456  1  0.438098  -0.00014  0.870234  0.0  0.404069  -9.8e-05  0.93932  0.0  0.415449  -6.3e-05  0.922999  0.0  0.301672  0.395972  -0.000124  0.950897  0.0
H  H9  1  0.67866043  0.23331862  0.17056278  1  0.438099  0.000141  0.870241  0.0  0.40407  9.8e-05  0.939325  0.0  0.415452  6.4e-05  0.923002  0.0  0.301666  0.395974  0.000124  0.950902  0.0
H  H10  1  0.66889462  0.98820569  0.69023407  1  0.096716  0.001704  0.942966  0.003  0.103548  0.001339  1.00425  0.002  0.105667  0.000942  1.001737  0.002  0.127292  0.101541  0.001625  1.0064  0.002
H  H11  1  0.33110666  0.01179454  0.30976787  1  0.096738  -0.001711  0.942952  -0.003  0.103568  -0.001339  1.004236  -0.002  0.105686  -0.000942  1.001723  -0.002  0.1273  0.10156  -0.001626  1.006387  -0.002
H  H12  1  0.71353788  0.88787650  0.46440626  1  0.124389  0.000667  0.963533  0.0  0.134798  0.000673  1.019334  0.0  0.138171  0.00048  1.018371  0.0  0.112613  0.132211  0.000687  1.020363  0.001
H  H13  1  0.28646339  0.11212372  0.53559569  1  0.124406  -0.000667  0.963564  0.0  0.134809  -0.000673  1.019368  0.0  0.13818  -0.000479  1.018405  0.0  0.112623  0.13222  -0.000687  1.020396  -0.001
H  H14  1  0.75288526  0.65125319  0.36594176  1  0.103914  0.000376  0.930367  0.001  0.117548  1.9e-05  0.985458  0.0  0.119979  -6e-06  0.983971  0.0  0.114222  0.115749  7.2e-05  0.986651  0.0
H  H15  1  0.24711630  0.34874805  0.63406073  1  0.103925  -0.000365  0.930335  -0.001  0.117557  -2e-05  0.985429  0.0  0.119988  6e-06  0.983943  0.0  0.114226  0.115756  -7.2e-05  0.98662  0.0
H  H16  1  0.75542887  0.43213166  0.38607332  1  0.120691  0.000324  0.950156  0.0  0.131934  0.000213  1.00776  0.0  0.134827  0.000128  1.006553  0.0  0.110426  0.129995  0.000325  1.008298  0.0
H  H17  1  0.24457270  0.56786959  0.61393006  1  0.120684  -0.000327  0.950159  0.0  0.13192  -0.000213  1.007777  0.0  0.134813  -0.000128  1.006568  0.0  0.11042  0.129976  -0.000325  1.008312  0.0
H  H18  1  0.71406434  0.30564060  0.50470063  1  0.118826  0.000386  0.94242  0.0  0.129104  0.000284  1.000852  0.0  0.132022  0.000167  0.999778  0.0  0.109739  0.127116  0.000341  1.001249  0.0
H  H19  1  0.28593750  0.69436166  0.49530062  1  0.118874  -0.000378  0.942402  0.0  0.129159  -0.000285  1.000815  0.0  0.132076  -0.000167  0.999743  0.0  0.109769  0.127171  -0.000342  1.001212  0.0
H  H20  1  0.65503945  0.30462489  0.71410691  1  0.119029  0.00042  0.935623  0.001  0.129093  6.1e-05  0.993276  0.0  0.131898  2.1e-05  0.991475  0.0  0.114886  0.127071  9.1e-05  0.994518  0.0
H  H21  1  0.34496180  0.69537533  0.28589325  1  0.119033  -0.000424  0.935628  -0.001  0.129091  -6.2e-05  0.99329  0.0  0.131896  -2.1e-05  0.991487  0.0  0.114885  0.127071  -9.1e-05  0.994531  0.0
H  H22  1  0.59513226  0.43135278  0.92215956  1  0.119919  0.000436  0.949216  0.001  0.130367  0.000435  1.004034  0.001  0.133549  0.00031  1.003357  0.0  0.112261  0.12783  0.00056  1.004879  0.001
H  H23  1  0.40486648  0.56864642  0.07783848  1  0.119883  -0.000439  0.949267  -0.001  0.13036  -0.000435  1.004048  -0.001  0.133542  -0.00031  1.003371  0.0  0.112259  0.127823  -0.00056  1.004892  -0.001
H  H24  1  0.57875308  0.67796673  0.99864701  1  0.104531  0.00154  0.929347  0.003  0.111581  0.001082  0.989944  0.002  0.113991  0.000716  0.987128  0.001  0.127258  0.109528  0.001421  0.99215  0.002
H  H25  1  0.42124537  0.32203144  0.00135049  1  0.104573  -0.001554  0.929366  -0.003  0.111596  -0.001082  0.989978  -0.002  0.114009  -0.000716  0.987158  -0.001  0.127261  0.109543  -0.001421  0.992187  -0.002
H  H26  1  0.91514202  0.12267111  0.25131032  1  0.144023  3.6e-05  0.938326  0.0  0.158695  2.5e-05  0.991372  0.0  0.161459  1.4e-05  0.990724  0.0  0.108247  0.156639  3.3e-05  0.99217  0.0
H  H27  1  0.08485814  0.87732911  0.74869039  1  0.144024  -5.9e-05  0.938301  0.0  0.1587  -2.6e-05  0.99135  0.0  0.161463  -1.4e-05  0.990702  0.0  0.108253  0.156642  -3.2e-05  0.992149  0.0
H  H28  1  0.92330771  0.12011073  0.41050888  1  0.12917  6.8e-05  0.957525  0.0  0.143651  3.3e-05  1.01757  0.0  0.145589  1e-05  1.01777  0.0  0.103817  0.142172  4.6e-05  1.017612  0.0
H  H29  1  0.07669024  0.87988949  0.58949114  1  0.129099  -0.000106  0.957576  0.0  0.143571  -3.3e-05  1.017635  0.0  0.145507  -1e-05  1.017834  0.0  0.103789  0.142094  -4.6e-05  1.017676  0.0
H  H30  1  0.97237659  0.94318048  0.07390924  1  0.110016  -0.000173  0.946158  0.0  0.119339  -0.000225  1.013572  0.0  0.122853  -0.000194  1.010842  0.0  0.100573  0.11646  -0.000242  1.016127  0.0
H  H31  1  0.02762496  0.05682076  0.92609147  1  0.110003  0.000163  0.94619  0.0  0.119337  0.000225  1.013579  0.0  0.12285  0.000193  1.01085  0.0  0.100569  0.116458  0.000242  1.016133  0.0
H  H32  1  0.05649451  0.58993414  0.11495555  1  0.080564  0.000225  0.990543  0.0  0.091416  7.4e-05  1.058112  0.0  0.093892  5.6e-05  1.057628  0.0  0.092985  0.089709  8.3e-05  1.058604  0.0
H  H33  1  0.94350616  0.41006404  0.88504264  1  0.080593  -0.000228  0.990568  0.0  0.091428  -7.5e-05  1.058158  0.0  0.093901  -5.7e-05  1.057674  0.0  0.092977  0.089722  -8.3e-05  1.058645  0.0
H  H34  1  0.98466737  0.67102534  0.32197506  1  0.078653  -4.2e-05  0.960028  0.0  0.091282  5e-06  1.018055  0.0  0.094137  0.0  1.016589  0.0  0.095002  0.089213  6e-06  1.019006  0.0
H  H35  1  0.01533221  0.32897284  0.67802457  1  0.078662  4.2e-05  0.960052  0.0  0.091276  -5e-06  1.018091  0.0  0.09413  -0.0  1.016628  0.0  0.095013  0.089205  -6e-06  1.019039  0.0
H  H36  1  0.90374338  0.88883391  0.40340460  1  0.087064  0.000154  0.982964  0.0  0.097607  3.3e-05  1.050128  0.0  0.099996  2.3e-05  1.049681  0.0  0.096459  0.095757  2.5e-05  1.051023  0.0
H  H37  1  0.09625537  0.11116528  0.59659432  1  0.087049  -0.000149  0.982968  0.0  0.097599  -3.3e-05  1.050128  0.0  0.099988  -2.3e-05  1.049682  0.0  0.096458  0.095748  -2.5e-05  1.051023  0.0
H  H38  1  0.05951622  0.60044181  0.91033094  1  0.130562  -0.001185  0.945061  -0.002  0.14524  -0.000766  1.001636  -0.001  0.147016  -0.000481  1.001886  -0.001  0.104517  0.143985  -0.000979  1.001544  -0.001
H  H39  1  0.94048364  0.39955739  0.08966834  1  0.130558  0.00119  0.945099  0.002  0.145249  0.000766  1.001661  0.001  0.147024  0.000481  1.001912  0.001  0.10451  0.143993  0.000979  1.001572  0.001
H  H40  1  0.98525888  0.72218819  0.86406338  1  0.130453  0.00032  0.944342  0.0  0.143261  -1e-06  1.002261  0.0  0.145195  -6e-06  1.002815  0.0  0.102949  0.141955  -5e-06  1.002032  0.0
H  H41  1  0.01473875  0.27781100  0.13593431  1  0.13046  -0.00032  0.944396  0.0  0.143276  1e-06  1.002301  0.0  0.14521  7e-06  1.002858  0.0  0.10297  0.141972  5e-06  1.002071  0.0
C  C42  1  0.68225186  0.88449605  0.64237555  1  0.169341  -0.009226  3.630168  -0.01  0.14329  -0.001324  3.88291  -0.003  0.155309  -0.002273  3.898188  -0.004  0.071162  0.135659  -0.00067  3.872672  -0.002
C  C43  1  0.31774970  0.11550520  0.35762605  1  0.169312  0.009273  3.630175  0.01  0.143272  0.001325  3.88291  0.003  0.155293  0.002273  3.898186  0.004  0.071175  0.135642  0.00067  3.87267  0.002
C  C44  1  0.71045541  0.82770536  0.51728482  1  -0.11088  0.010719  3.687415  0.011  -0.122985  0.004292  3.935732  0.005  -0.130999  0.003755  3.955855  0.005  -0.075379  -0.117538  0.005037  3.921891  0.006
C  C45  1  0.28954645  0.17229691  0.48271910  1  -0.110858  -0.010724  3.687377  -0.011  -0.122967  -0.004293  3.935698  -0.005  -0.13098  -0.003756  3.955822  -0.005  -0.075389  -0.117517  -0.005037  3.921846  -0.006
C  C46  1  0.73092425  0.69691897  0.46277495  1  -0.041283  -0.010258  3.671953  -0.01  -0.065498  -0.003092  3.918692  -0.003  -0.061688  -0.003183  3.935817  -0.003  -0.057433  -0.068215  -0.003116  3.907037  -0.003
C  C47  1  0.26907731  0.30308227  0.53722754  1  -0.041342  0.010232  3.671936  0.01  -0.065556  0.003092  3.918678  0.003  -0.061743  0.003182  3.935801  0.003  -0.057469  -0.068271  0.003116  3.907017  0.003
C  C48  1  0.71921034  0.62014663  0.53093007  1  0.023572  0.00564  3.803169  0.006  0.040435  0.00237  4.034161  0.003  0.037791  0.001977  4.058064  0.002  -0.001258  0.041893  0.002788  4.018127  0.003
C  C49  1  0.28079093  0.37985360  0.46907187  1  0.023592  -0.00564  3.803039  -0.006  0.040468  -0.002374  4.03403  -0.003  0.037823  -0.001978  4.057932  -0.002  -0.001239  0.041925  -0.002788  4.017993  -0.003
C  C50  1  0.73212586  0.48227691  0.48161577  1  -0.092461  0.001026  3.690459  0.001  -0.116013  0.000679  3.943447  0.001  -0.119446  0.000529  3.96628  0.001  -0.081427  -0.113554  0.000771  3.927259  0.001
C  C51  1  0.26787403  0.51772636  0.51838267  1  -0.092398  -0.000968  3.690446  -0.001  -0.115943  -0.000677  3.943429  -0.001  -0.119376  -0.000528  3.966262  -0.001  -0.081415  -0.113477  -0.000771  3.927233  -0.001
C  C52  1  0.71004408  0.41219169  0.54875374  1  -0.087705  0.001467  3.696162  0.001  -0.112439  0.000656  3.954702  0.001  -0.115485  0.000565  3.97769  0.001  -0.080183  -0.109873  0.000859  3.938277  0.001
C  C53  1  0.28995719  0.58780854  0.45124820  1  -0.087808  -0.001537  3.69627  -0.001  -0.112553  -0.000658  3.95481  -0.001  -0.1156  -0.000566  3.977796  -0.001  -0.080211  -0.109989  -0.000859  3.938384  -0.001
C  C54  1  0.67487682  0.47451792  0.67202911  1  0.022767  0.005126  3.791143  0.006  0.038996  0.002223  4.024099  0.003  0.035712  0.001805  4.048481  0.002  -0.000263  0.040657  0.002662  4.007645  0.003
C  C55  1  0.32512443  0.52548230  0.32797106  1  0.022763  -0.005137  3.791092  -0.006  0.039009  -0.002227  4.024028  -0.003  0.035724  -0.001806  4.048408  -0.002  -0.000271  0.04067  -0.002662  4.007579  -0.003
C  C56  1  0.64838096  0.40968691  0.74672489  1  -0.035923  -0.009466  3.662334  -0.009  -0.061475  -0.003004  3.913072  -0.003  -0.057249  -0.003042  3.929776  -0.003  -0.056902  -0.064373  -0.003086  3.901485  -0.003
C  C57  1  0.35162028  0.59031331  0.25327350  1  -0.035897  0.009503  3.662329  0.009  -0.061459  0.003009  3.913073  0.003  -0.057233  0.00304  3.929781  0.003  -0.05689  -0.064355  0.003086  3.901487  0.003
C  C58  1  0.61424358  0.48111296  0.86404003  1  -0.120387  0.010618  3.705098  0.011  -0.133491  0.004295  3.957397  0.005  -0.142059  0.003632  3.978041  0.004  -0.07909  -0.127275  0.004932  3.942954  0.006
C  C59  1  0.38575516  0.51888623  0.13595801  1  -0.120337  -0.010657  3.70516  -0.012  -0.133468  -0.004297  3.957445  -0.005  -0.14204  -0.00363  3.978094  -0.004  -0.079068  -0.127249  -0.004932  3.943003  -0.006
C  C60  1  0.60532724  0.61672591  0.90749472  1  0.166123  -0.008371  3.64386  -0.009  0.137548  -0.001242  3.901474  -0.002  0.149454  -0.002186  3.917305  -0.004  0.068765  0.129816  -0.000539  3.890478  -0.002
C  C61  1  0.39467150  0.38327329  0.09250332  1  0.166095  0.008453  3.643938  0.009  0.137557  0.001243  3.90153  0.002  0.149465  0.002184  3.917355  0.003  0.068766  0.129824  0.00054  3.890539  0.002
C  C62  1  0.66360325  0.61108566  0.72345631  1  0.120174  -0.001318  3.793173  -0.002  0.115058  0.000926  4.036389  0.0  0.120466  7e-05  4.058832  -0.001  0.113373  0.111409  0.001595  4.021525  0.001
C  C63  1  0.33639550  0.38891353  0.27654351  1  0.12022  0.001337  3.793185  0.002  0.115103  -0.000924  4.036404  0.0  0.120512  -7e-05  4.058844  0.001  0.113373  0.111454  -0.001594  4.021543  -0.001
C  C64  1  0.68585194  0.68397203  0.65314771  1  0.118322  -0.002105  3.788917  -0.003  0.113085  0.000685  4.030946  0.0  0.118678  -0.000165  4.052524  -0.001  0.112272  0.109337  0.001364  4.016691  0.001
C  C65  1  0.31414851  0.31602921  0.34685354  1  0.118276  0.002095  3.788902  0.003  0.113012  -0.000681  4.030971  0.0  0.118606  0.000166  4.052545  0.001  0.112244  0.109264  -0.001364  4.016719  -0.001
C  C66  1  0.87996924  0.05878087  0.29066064  1  -0.491398  -0.000899  3.713598  -0.001  -0.511261  -0.000524  3.941312  0.0  -0.521217  -0.00047  3.949936  0.0  -0.167722  -0.504104  -0.000539  3.935747  0.0
C  C67  1  0.12003120  0.94122037  0.70933972  1  -0.49129  0.001031  3.713519  0.001  -0.511154  0.000528  3.94128  0.0  -0.521098  0.000473  3.949889  0.0  -0.167686  -0.504001  0.000539  3.935714  0.0
C  C68  1  0.93417280  0.93071349  0.24502462  1  0.152985  0.00099  3.787196  0.001  0.173931  -4.6e-05  4.023351  0.0  0.175853  -8e-06  4.049361  0.0  -0.008511  0.17197  -9.3e-05  4.006393  0.0
C  C69  1  0.06582846  0.06928673  0.75497644  1  0.153022  -0.001036  3.787098  -0.001  0.173949  4.1e-05  4.023298  0.0  0.175869  1.1e-05  4.049308  0.0  -0.008514  0.171991  9.3e-05  4.006335  0.0
C  C70  1  0.97498469  0.88316855  0.12817767  1  -0.186534  -0.001438  3.666664  -0.001  -0.22097  -0.000397  3.926438  0.0  -0.225904  -0.00039  3.946206  0.0  -0.096214  -0.21742  -0.000755  3.913412  0.0
C  C71  1  0.02501686  0.11683269  0.87182393  1  -0.186581  0.001482  3.666719  0.001  -0.221001  0.000403  3.926508  0.0  -0.225935  0.000388  3.946278  0.0  -0.096228  -0.217451  0.000755  3.913486  0.0
C  C72  1  0.01812547  0.76002555  0.07949623  1  0.154934  0.001048  3.779195  0.001  0.175874  0.000149  4.01438  0.0  0.178664  0.000155  4.039229  0.0  -0.008873  0.173882  0.000119  3.997815  0.0
C  C73  1  0.98187551  0.23997365  0.92050429  1  0.154977  -0.001064  3.779253  -0.001  0.175899  -0.000152  4.014467  0.0  0.178691  -0.000151  4.039314  0.0  -0.008848  0.173907  -0.000119  3.99791  0.0
C  C74  1  0.02138688  0.68485801  0.15092384  1  -0.13915  -0.004312  3.758743  -0.004  -0.164305  -0.000742  4.010242  -0.001  -0.168347  -0.000405  4.032304  0.0  -0.103769  -0.162673  -0.000736  3.995994  -0.001
C  C75  1  0.97861438  0.31514221  0.84907722  1  -0.139188  0.004331  3.758808  0.004  -0.164328  0.000745  4.010313  0.001  -0.168364  0.000403  4.032369  0.0  -0.103768  -0.162696  0.000736  3.996068  0.001
C  C76  1  0.98142892  0.73101335  0.26755428  1  -0.074729  0.002228  3.828156  0.002  -0.085705  -2e-06  4.080731  0.0  -0.086202  1.4e-05  4.101754  0.0  -0.101738  -0.084803  8e-06  4.066598  0.0
C  C77  1  0.01857176  0.26898483  0.73244569  1  -0.074755  -0.002234  3.828197  -0.002  -0.085711  -0.0  4.080771  0.0  -0.086209  -1.1e-05  4.101794  0.0  -0.101748  -0.084807  -8e-06  4.066637  0.0
C  C78  1  0.93750793  0.85299910  0.31399970  1  -0.139457  -0.004124  3.743085  -0.004  -0.163191  -0.000549  3.992587  0.0  -0.167063  -0.000309  4.014477  0.0  -0.102786  -0.161572  -0.000725  3.979151  -0.001
C  C79  1  0.06249252  0.14700214  0.68600155  1  -0.139424  0.004119  3.743089  0.004  -0.163159  0.000552  3.992598  0.0  -0.167031  0.000304  4.01449  0.0  -0.10279  -0.161536  0.000725  3.979156  0.001
C  C80  1  0.06265316  0.70943196  0.95483976  1  -0.478695  -0.00797  3.703148  -0.008  -0.501347  -0.004044  3.939762  -0.004  -0.511746  -0.002666  3.948745  -0.003  -0.166915  -0.493598  -0.00522  3.9334  -0.005
C  C81  1  0.93734699  0.29056826  0.04516006  1  -0.478722  0.007965  3.703227  0.008  -0.501393  0.004042  3.939853  0.004  -0.511795  0.002665  3.948842  0.003  -0.166923  -0.493639  0.00522  3.933494  0.005
N  N82  1  0.62970468  0.67916052  0.83825546  1  -0.319467  0.080252  3.319946  0.099  -0.283671  0.055087  3.621441  0.074  -0.313461  0.044356  3.642249  0.063  -0.33757  -0.265174  0.061862  3.608211  0.08
N  N83  1  0.37029518  0.32083868  0.16174382  1  -0.319537  -0.080311  3.320032  -0.099  -0.283753  -0.055089  3.621525  -0.074  -0.313542  -0.044356  3.642335  -0.063  -0.337594  -0.265248  -0.061862  3.6083  -0.08
N  N84  1  0.67052368  0.81391525  0.70801906  1  -0.321972  0.081377  3.323228  0.1  -0.285834  0.056355  3.625041  0.074  -0.315072  0.045995  3.643875  0.064  -0.338703  -0.267865  0.062877  3.613346  0.08
N  N85  1  0.32947759  0.18608497  0.29198289  1  -0.321935  -0.081389  3.323309  -0.1  -0.2858  -0.056356  3.62513  -0.074  -0.315039  -0.045995  3.643968  -0.064  -0.338685  -0.267833  -0.062877  3.613442  -0.08
O  O86  1  0.24180238  0.93947930  0.02181953  1  -0.858713  -0.062145  2.073318  -0.081  -0.81219  -0.037917  2.393041  -0.054  -0.848647  -0.028827  2.370704  -0.043  -0.395967  -0.786947  -0.043894  2.407901  -0.06
O  O87  1  0.75819747  0.06051989  0.97817975  1  -0.858802  0.062144  2.073209  0.081  -0.812289  0.037916  2.392944  0.054  -0.848745  0.028826  2.370593  0.043  -0.395997  -0.78706  0.043895  2.407826  0.06
O  O88  1  0.60015113  0.90558205  0.05518564  1  -0.820336  0.080747  2.107589  0.103  -0.776775  0.047714  2.422976  0.066  -0.816608  0.03629  2.406207  0.052  -0.383675  -0.748762  0.056053  2.433788  0.075
O  O89  1  0.39984903  0.09441817  0.94481596  1  -0.820377  -0.080753  2.107627  -0.103  -0.776776  -0.047718  2.422985  -0.066  -0.81661  -0.036292  2.406224  -0.052  -0.383668  -0.748758  -0.056055  2.4338  -0.075
O  O90  1  0.62839819  0.15757874  0.23772185  1  -0.862368  -0.001225  2.009959  -0.003  -0.79395  -0.000911  2.277337  -0.002  -0.821707  -0.000392  2.255935  -0.001  -0.372251  -0.774884  -0.00145  2.291643  -0.003
O  O91  1  0.37160334  0.84242250  0.76227797  1  -0.862366  0.001219  2.009969  0.003  -0.793938  0.00091  2.277342  0.002  -0.821699  0.000391  2.255941  0.001  -0.372257  -0.774878  0.00145  2.291646  0.003
O  O92  1  0.62441587  0.96938727  0.30492961  1  -0.761729  0.011495  1.965079  0.014  -0.696677  0.006335  2.189549  0.008  -0.719893  0.004034  2.16586  0.005  -0.393762  -0.678595  0.009214  2.205838  0.012
O  O93  1  0.37558317  0.03061294  0.69506987  1  -0.761732  -0.011495  1.965044  -0.014  -0.696682  -0.006333  2.189529  -0.008  -0.719897  -0.004036  2.165842  -0.005  -0.393763  -0.678601  -0.009214  2.205819  -0.012
O  O94  1  0.36669300  0.79916971  0.14253422  1  -0.83978  0.000315  1.923926  0.0  -0.762586  0.00038  2.158256  0.0  -0.787831  0.000435  2.13904  0.0  -0.370477  -0.744074  0.000275  2.171252  0.0
O  O95  1  0.63330599  0.20082642  0.85746343  1  -0.83985  -0.000317  1.923932  0.0  -0.762647  -0.00038  2.158242  0.0  -0.787905  -0.000436  2.139046  0.0  -0.370493  -0.744135  -0.000275  2.171242  0.0
O  O96  1  0.28028688  0.70895341  0.86515628  1  -0.771008  0.000331  1.983099  0.0  -0.704253  -0.000126  2.207535  0.0  -0.724196  -6.4e-05  2.181649  0.0  -0.403817  -0.689944  -0.000272  2.225449  0.0
O  O97  1  0.71970963  0.29104577  0.13484017  1  -0.77105  -0.000336  1.983034  0.0  -0.7043  0.000125  2.207476  0.0  -0.724239  6.1e-05  2.181587  0.0  -0.403845  -0.689984  0.000272  2.225391  0.0
