# generated using pymatgen
data_ErH13(C4O3)4
_symmetry_space_group_name_H-M   'P 1'
_cell_length_a   7.74544293
_cell_length_b   10.19026922
_cell_length_c   10.97246471
_cell_angle_alpha   88.46630034
_cell_angle_beta   80.26063710
_cell_angle_gamma   75.53827813
_symmetry_Int_Tables_number   1
_chemical_formula_structural   ErH13(C4O3)4
_chemical_formula_sum   'Er2 H26 C32 O24'
_cell_volume   826.40067187
_cell_formula_units_Z   2
loop_
 _symmetry_equiv_pos_site_id
 _symmetry_equiv_pos_as_xyz
  1  'x, y, z'
loop_
 _atom_site_type_symbol
 _atom_site_label
 _atom_site_symmetry_multiplicity
 _atom_site_fract_x
 _atom_site_fract_y
 _atom_site_fract_z
 _atom_site_occupancy
 _atom_site_hle17_bader_spin_density
 _atom_site_hle17_ddec_charge
 _atom_site_hle17_ddec_spin_density
 _atom_site_hle17_ddec_sum_bond_order
 _atom_site_hle17_magmom
 _atom_site_hse06_10hf_bader_spin_density
 _atom_site_hse06_10hf_ddec_charge
 _atom_site_hse06_10hf_ddec_spin_density
 _atom_site_hse06_10hf_ddec_sum_bond_order
 _atom_site_hse06_10hf_magmom
 _atom_site_hse06_bader_spin_density
 _atom_site_hse06_ddec_charge
 _atom_site_hse06_ddec_spin_density
 _atom_site_hse06_ddec_sum_bond_order
 _atom_site_hse06_magmom
 _atom_site_pbe_bader_spin_density
 _atom_site_pbe_cm5_charge
 _atom_site_pbe_ddec_charge
 _atom_site_pbe_ddec_spin_density
 _atom_site_pbe_ddec_sum_bond_order
 _atom_site_pbe_magmom
Er  Er0  1  0.19066146  0.73354490  0.92991975  1  0  2.214349  0  1.580009  0  0  2.069324  0  2.053565  0  0  2.116701  0  2.015945  0  0  1.485318  2.033062  0  2.084005  0
Er  Er1  1  0.80934609  0.26645436  0.07007628  1  0  2.214433  0  1.580061  0  0  2.069447  0  2.053581  0  0  2.116898  0  2.01583  0  0  1.485354  2.033182  0  2.084022  0
H  H2  1  0.21665291  0.32594864  0.57347586  1  0  0.110688  0  0.979715  0  0  0.116841  0  1.048305  0  0  0.120078  0  1.046687  0  0  0.10486  0.114632  0  1.049302  0
H  H3  1  0.78334864  0.67404873  0.42652274  1  0  0.110643  0  0.979605  0  0  0.1168  0  1.048209  0  0  0.120029  0  1.046595  0  0  0.104819  0.114589  0  1.049205  0
H  H4  1  0.33832723  0.53031088  0.55362040  1  0  0.108164  0  0.93537  0  0  0.117936  0  0.994437  0  0  0.121219  0  0.992888  0  0  0.108514  0.115627  0  0.995613  0
H  H5  1  0.66165628  0.46969387  0.44638264  1  0  0.108127  0  0.935328  0  0  0.117904  0  0.994387  0  0  0.121184  0  0.992839  0  0  0.108459  0.115594  0  0.995566  0
H  H6  1  0.32199470  0.66559541  0.35946785  1  0  0.094385  0  0.993631  0  0  0.099606  0  1.067028  0  0  0.102453  0  1.065508  0  0  0.099321  0.097545  0  1.068152  0
H  H7  1  0.67798384  0.33441254  0.64053925  1  0  0.0946  0  0.99375  0  0  0.099835  0  1.067076  0  0  0.102684  0  1.065554  0  0  0.099451  0.097778  0  1.068198  0
H  H8  1  0.29171376  0.09398443  0.25128466  1  0  0.137297  0  0.925551  0  0  0.143541  0  0.990362  0  0  0.148609  0  0.985383  0  0  0.118843  0.139691  0  0.99456  0
H  H9  1  0.70827604  0.90601300  0.74871162  1  0  0.137297  0  0.92557  0  0  0.143592  0  0.990335  0  0  0.14866  0  0.985353  0  0  0.11886  0.139737  0  0.99453  0
H  H10  1  0.46291218  0.76954064  0.50254380  1  0  0.115058  0  0.958773  0  0  0.122146  0  1.027003  0  0  0.125294  0  1.025009  0  0  0.111217  0.120015  0  1.027869  0
H  H11  1  0.53709096  0.23045986  0.49745904  1  0  0.115014  0  0.958799  0  0  0.122134  0  1.026983  0  0  0.125283  0  1.024993  0  0  0.111251  0.120004  0  1.027852  0
H  H12  1  0.03653618  0.12060083  0.63251566  1  0  0.136731  0  0.919016  0  0  0.144778  0  0.980863  0  0  0.148841  0  0.977938  0  0  0.117619  0.141759  0  0.983122  0
H  H13  1  0.96346093  0.87939847  0.36747789  1  0  0.136743  0  0.919019  0  0  0.14478  0  0.980854  0  0  0.148846  0  0.977924  0  0  0.117615  0.141756  0  0.983128  0
H  H14  1  0.68560536  0.66798002  0.21412320  1  0  0.448028  0  0.757286  0  0  0.422356  0  0.818579  0  0  0.434094  0  0.805702  0  0  0.351259  0.413857  0  0.828081  0
H  H15  1  0.31439641  0.33202531  0.78587138  1  0  0.448099  0  0.75721  0  0  0.422296  0  0.818676  0  0  0.434036  0  0.805803  0  0  0.351253  0.413801  0  0.828166  0
H  H16  1  0.40062769  0.95718259  0.91198913  1  0  0.439923  0  0.850416  0  0  0.412786  0  0.906449  0  0  0.422589  0  0.892078  0  0  0.312462  0.405825  0  0.916651  0
H  H17  1  0.59936978  0.04283620  0.08801536  1  0  0.439972  0  0.850377  0  0  0.412781  0  0.906487  0  0  0.422591  0  0.892108  0  0  0.312463  0.405823  0  0.916684  0
H  H18  1  0.39813612  0.88922260  0.04287440  1  0  0.450034  0  0.840148  0  0  0.420583  0  0.900039  0  0  0.430448  0  0.885507  0  0  0.311385  0.413728  0  0.910205  0
H  H19  1  0.60185018  0.11079427  0.95712960  1  0  0.450084  0  0.840031  0  0  0.420613  0  0.89997  0  0  0.430482  0  0.885427  0  0  0.311368  0.413764  0  0.910128  0
H  H20  1  0.55169343  0.63975625  0.81927380  1  0  0.44473  0  0.822619  0  0  0.419681  0  0.889517  0  0  0.427864  0  0.877667  0  0  0.322339  0.413932  0  0.897341  0
H  H21  1  0.44832429  0.36025625  0.18073051  1  0  0.444769  0  0.822588  0  0  0.419729  0  0.889468  0  0  0.427911  0  0.877616  0  0  0.322281  0.413984  0  0.897305  0
H  H22  1  0.60184801  0.58082770  0.94549642  1  0  0.466474  0  0.805136  0  0  0.440552  0  0.859241  0  0  0.450346  0  0.844974  0  0  0.325026  0.43359  0  0.869383  0
H  H23  1  0.39816616  0.41918374  0.05450469  1  0  0.466065  0  0.805803  0  0  0.440358  0  0.859514  0  0  0.450117  0  0.8453  0  0  0.324951  0.433419  0  0.869626  0
H  H24  1  0.95186457  0.92380910  0.12495891  1  0  0.455681  0  0.836591  0  0  0.426035  0  0.89729  0  0  0.436828  0  0.881539  0  0  0.308935  0.418469  0  0.908303  0
H  H25  1  0.04813172  0.07618834  0.87504029  1  0  0.455642  0  0.836657  0  0  0.425998  0  0.897352  0  0  0.436792  0  0.881599  0  0  0.308939  0.418427  0  0.908373  0
H  H26  1  0.84738821  0.91170500  0.01814504  1  0  0.445951  0  0.829062  0  0  0.421258  0  0.889823  0  0  0.431402  0  0.874728  0  0  0.315984  0.414072  0  0.900555  0
H  H27  1  0.15260677  0.08827536  0.98185690  1  0  0.445942  0  0.829081  0  0  0.421258  0  0.889821  0  0  0.431401  0  0.874726  0  0  0.316033  0.414072  0  0.900555  0
C  C28  1  0.19564570  0.61502817  0.15984976  1  0  0.629694  0  3.946534  0  0  0.586502  0  4.232252  0  0  0.620186  0  4.224626  0  0  0.191347  0.563794  0  4.236442  0
C  C29  1  0.80436009  0.38496816  0.84014933  1  0  0.630191  0  3.946657  0  0  0.586856  0  4.232472  0  0  0.620528  0  4.224862  0  0  0.191582  0.564146  0  4.23666  0
C  C30  1  0.18049435  0.54366015  0.28001672  1  0  -0.081811  0  3.760532  0  0  -0.066828  0  3.994474  0  0  -0.07318  0  4.01537  0  0  -0.02058  -0.062391  0  3.980281  0
C  C31  1  0.81952072  0.45633597  0.71997860  1  0  -0.081838  0  3.760523  0  0  -0.06674  0  3.994381  0  0  -0.073067  0  4.015247  0  0  -0.020552  -0.062302  0  3.980189  0
C  C32  1  0.10351908  0.43116948  0.29329457  1  0  -0.138563  0  3.678408  0  0  -0.129357  0  3.913993  0  0  -0.133712  0  3.930948  0  0  -0.009573  -0.12656  0  3.902538  0
C  C33  1  0.89648133  0.56882707  0.70671058  1  0  -0.138596  0  3.678446  0  0  -0.129377  0  3.914006  0  0  -0.133743  0  3.930952  0  0  -0.009614  -0.126585  0  3.90255  0
C  C34  1  0.12302168  0.35291703  0.39914669  1  0  0.239818  0  3.774157  0  0  0.226863  0  4.032588  0  0  0.234246  0  4.050386  0  0  0.085289  0.221826  0  4.02064  0
C  C35  1  0.87698056  0.64708235  0.60085175  1  0  0.239877  0  3.774069  0  0  0.226874  0  4.032585  0  0  0.234268  0  4.050373  0  0  0.08535  0.221838  0  4.020633  0
C  C36  1  0.20871918  0.38707771  0.49108208  1  0  -0.159856  0  3.757887  0  0  -0.187575  0  4.021639  0  0  -0.190243  0  4.040884  0  0  -0.093687  -0.186019  0  4.008953  0
C  C37  1  0.79128359  0.61291566  0.50891840  1  0  -0.159889  0  3.757799  0  0  -0.187621  0  4.021619  0  0  -0.190277  0  4.040847  0  0  -0.093716  -0.186063  0  4.008934  0
C  C38  1  0.27767313  0.50122721  0.47922454  1  0  -0.033157  0  3.733301  0  0  -0.049497  0  3.995506  0  0  -0.049852  0  4.012327  0  0  -0.084674  -0.049508  0  3.984507  0
C  C39  1  0.72232247  0.49877644  0.52077992  1  0  -0.033028  0  3.733272  0  0  -0.049333  0  3.995455  0  0  -0.049684  0  4.012277  0  0  -0.084566  -0.049345  0  3.984463  0
C  C40  1  0.26438586  0.57859123  0.37326020  1  0  -0.062283  0  3.716042  0  0  -0.094829  0  3.978595  0  0  -0.093252  0  3.995457  0  0  -0.086414  -0.096094  0  3.967663  0
C  C41  1  0.73560511  0.42140636  0.62674233  1  0  -0.062621  0  3.716373  0  0  -0.095236  0  3.978951  0  0  -0.093662  0  3.995801  0  0  -0.086586  -0.096506  0  3.968024  0
C  C42  1  0.00012404  0.39129359  0.20187501  1  0  0.69403  0  3.906952  0  0  0.640208  0  4.216453  0  0  0.676438  0  4.203522  0  0  0.196746  0.615622  0  4.224282  0
C  C43  1  0.99988612  0.60870565  0.79812163  1  0  0.693843  0  3.907189  0  0  0.63999  0  4.2167  0  0  0.676228  0  4.203759  0  0  0.196653  0.61542  0  4.224516  0
C  C44  1  0.15991800  0.12082863  0.44043156  1  0  0.26409  0  3.77476  0  0  0.259875  0  4.040783  0  0  0.264996  0  4.058189  0  0  0.089397  0.256024  0  4.029391  0
C  C45  1  0.84007071  0.87917613  0.55957363  1  0  0.264369  0  3.774744  0  0  0.260068  0  4.04085  0  0  0.265197  0  4.058242  0  0  0.089437  0.256183  0  4.029499  0
C  C46  1  0.28541989  0.05034765  0.34317899  1  0  -0.117349  0  3.634567  0  0  -0.160095  0  3.893681  0  0  -0.158041  0  3.909183  0  0  -0.069541  -0.162373  0  3.88487  0
C  C47  1  0.71458030  0.94964568  0.65681904  1  0  -0.117493  0  3.634897  0  0  -0.1603  0  3.894065  0  0  -0.158247  0  3.90956  0  0  -0.069609  -0.162553  0  3.885247  0
C  C48  1  0.39482586  0.92261934  0.36463232  1  0  -0.084318  0  3.783518  0  0  -0.059377  0  4.027587  0  0  -0.070886  0  4.052932  0  0  -0.016159  -0.052522  0  4.010788  0
C  C49  1  0.60517204  0.07737299  0.63536510  1  0  -0.084467  0  3.783598  0  0  -0.059453  0  4.027625  0  0  -0.070958  0  4.052969  0  0  -0.016148  -0.052595  0  4.010819  0
C  C50  1  0.37883909  0.86803473  0.48357390  1  0  -0.053637  0  3.654869  0  0  -0.095927  0  3.907009  0  0  -0.092413  0  3.926949  0  0  -0.069159  -0.096542  0  3.891925  0
C  C51  1  0.62115201  0.13196682  0.51642570  1  0  -0.053436  0  3.654924  0  0  -0.095754  0  3.907174  0  0  -0.092227  0  3.927067  0  0  -0.069129  -0.096378  0  3.892099  0
C  C52  1  0.25119128  0.93929417  0.58002356  1  0  -0.045443  0  3.742313  0  0  -0.019535  0  3.979489  0  0  -0.028825  0  4.002593  0  0  -0.013306  -0.013623  0  3.963592  0
C  C53  1  0.74880065  0.06071268  0.41998573  1  0  -0.045366  0  3.742078  0  0  -0.019652  0  3.979496  0  0  -0.028939  0  4.002611  0  0  -0.013324  -0.013739  0  3.963601  0
C  C54  1  0.13990913  0.06626772  0.55845889  1  0  -0.137317  0  3.646567  0  0  -0.176057  0  3.901481  0  0  -0.174986  0  3.918391  0  0  -0.07342  -0.176726  0  3.890185  0
C  C55  1  0.86009049  0.93373169  0.44153985  1  0  -0.137459  0  3.646259  0  0  -0.176064  0  3.901184  0  0  -0.174994  0  3.918092  0  0  -0.07339  -0.176723  0  3.889902  0
C  C56  1  0.22957680  0.87686092  0.70498123  1  0  0.651624  0  3.918166  0  0  0.600732  0  4.212763  0  0  0.635276  0  4.204427  0  0  0.200583  0.577676  0  4.217205  0
C  C57  1  0.77041272  0.12313684  0.29502692  1  0  0.651735  0  3.918082  0  0  0.600901  0  4.212677  0  0  0.635435  0  4.20435  0  0  0.200553  0.577845  0  4.21712  0
C  C58  1  0.51882540  0.84612431  0.25770191  1  0  0.691175  0  3.764021  0  0  0.630148  0  4.070221  0  0  0.665324  0  4.059629  0  0  0.254726  0.606514  0  4.076694  0
C  C59  1  0.48117356  0.15386830  0.74230632  1  0  0.691333  0  3.764189  0  0  0.630239  0  4.070409  0  0  0.665427  0  4.059799  0  0  0.254753  0.606597  0  4.076894  0
O  O60  1  0.24096166  0.72674722  0.14940395  1  0  -0.655277  0  1.942852  0  0  -0.602587  0  2.170821  0  0  -0.627559  0  2.163986  0  0  -0.358135  -0.584708  0  2.17481  0
O  O61  1  0.75903263  0.27325234  0.85059811  1  0  -0.655503  0  1.94282  0  0  -0.602759  0  2.170848  0  0  -0.627739  0  2.164013  0  0  -0.358185  -0.58488  0  2.174833  0
O  O62  1  0.17160484  0.55538922  0.06385914  1  0  -0.716473  0  2.017754  0  0  -0.662497  0  2.250809  0  0  -0.687082  0  2.241592  0  0  -0.390243  -0.645048  0  2.256467  0
O  O63  1  0.82843575  0.44459645  0.93613287  1  0  -0.716815  0  2.01819  0  0  -0.662708  0  2.251193  0  0  -0.687317  0  2.242003  0  0  -0.390456  -0.645254  0  2.256846  0
O  O64  1  0.83885338  0.45830608  0.19662152  1  0  -0.686032  0  1.898477  0  0  -0.640439  0  2.132591  0  0  -0.66508  0  2.121872  0  0  -0.354424  -0.622732  0  2.139543  0
O  O65  1  0.16114586  0.54169031  0.80337739  1  0  -0.685876  0  1.898673  0  0  -0.640255  0  2.132773  0  0  -0.664884  0  2.122051  0  0  -0.354363  -0.622556  0  2.139718  0
O  O66  1  0.07284548  0.28171518  0.13955947  1  0  -0.691588  0  1.957282  0  0  -0.646472  0  2.20237  0  0  -0.671076  0  2.191112  0  0  -0.393627  -0.62873  0  2.209424  0
O  O67  1  0.92715587  0.71828719  0.86043711  1  0  -0.691529  0  1.957204  0  0  -0.646388  0  2.202276  0  0  -0.670983  0  2.191018  0  0  -0.393586  -0.628651  0  2.209327  0
O  O68  1  0.53981202  0.89276673  0.15212298  1  0  -0.589137  0  2.027851  0  0  -0.532835  0  2.248132  0  0  -0.553865  0  2.234767  0  0  -0.280237  -0.518574  0  2.257188  0
O  O69  1  0.46018315  0.10723872  0.84787325  1  0  -0.589069  0  2.02842  0  0  -0.532727  0  2.248696  0  0  -0.553758  0  2.235321  0  0  -0.280165  -0.518477  0  2.257764  0
O  O70  1  0.60518974  0.72143266  0.28504037  1  0  -0.527726  0  2.128852  0  0  -0.463372  0  2.347637  0  0  -0.485829  0  2.331756  0  0  -0.294799  -0.447989  0  2.358508  0
O  O71  1  0.39481132  0.27857069  0.71495529  1  0  -0.52797  0  2.12862  0  0  -0.463465  0  2.347519  0  0  -0.485948  0  2.331651  0  0  -0.294882  -0.448061  0  2.358369  0
O  O72  1  0.34045166  0.76596960  0.72551701  1  0  -0.700144  0  1.968042  0  0  -0.649567  0  2.210326  0  0  -0.675021  0  2.203033  0  0  -0.379343  -0.631675  0  2.214603  0
O  O73  1  0.65955810  0.23401432  0.27447307  1  0  -0.700222  0  1.968355  0  0  -0.649673  0  2.210697  0  0  -0.675106  0  2.203333  0  0  -0.379299  -0.631787  0  2.214979  0
O  O74  1  0.09928852  0.93340463  0.78966058  1  0  -0.694544  0  2.017146  0  0  -0.636593  0  2.25045  0  0  -0.661906  0  2.241271  0  0  -0.347368  -0.618845  0  2.256106  0
O  O75  1  0.90070788  0.06659680  0.21033661  1  0  -0.694634  0  2.016953  0  0  -0.636689  0  2.25025  0  0  -0.662011  0  2.241069  0  0  -0.347408  -0.618934  0  2.255902  0
O  O76  1  0.04433526  0.24330383  0.41644867  1  0  -0.309573  0  2.339066  0  0  -0.241993  0  2.564283  0  0  -0.259041  0  2.570375  0  0  -0.158509  -0.230078  0  2.559905  0
O  O77  1  0.95566047  0.75669967  0.58355032  1  0  -0.309705  0  2.339147  0  0  -0.242098  0  2.564414  0  0  -0.259157  0  2.570511  0  0  -0.158567  -0.23017  0  2.560041  0
O  O78  1  0.32949547  0.91071697  0.97370679  1  0  -0.91506  0  1.919684  0  0  -0.860823  0  2.105549  0  0  -0.879587  0  2.074581  0  0  -0.621448  -0.847359  0  2.12705  0
O  O79  1  0.67050278  0.08928662  0.02629647  1  0  -0.915139  0  1.919556  0  0  -0.86084  0  2.105462  0  0  -0.879613  0  2.074471  0  0  -0.621428  -0.847381  0  2.126952  0
O  O80  1  0.49908720  0.62227370  0.90356805  1  0  -0.915219  0  1.88194  0  0  -0.866694  0  2.0801  0  0  -0.883942  0  2.050483  0  0  -0.634001  -0.854206  0  2.100189  0
O  O81  1  0.50093012  0.37772758  0.09643226  1  0  -0.914924  0  1.882543  0  0  -0.866617  0  2.080268  0  0  -0.883841  0  2.050714  0  0  -0.63389  -0.854141  0  2.100284  0
O  O82  1  0.94673648  0.86085894  0.05858925  1  0  -0.923345  0  1.915955  0  0  -0.878786  0  2.12224  0  0  -0.89788  0  2.091095  0  0  -0.662516  -0.864955  0  2.143757  0
O  O83  1  0.05326789  0.13913343  0.94141200  1  0  -0.92327  0  1.915974  0  0  -0.878721  0  2.122255  0  0  -0.89782  0  2.091107  0  0  -0.662567  -0.864882  0  2.143769  0
