# generated using pymatgen
data_CdH16C18(NO2)2
_symmetry_space_group_name_H-M   'P 1'
_cell_length_a   7.77429530
_cell_length_b   9.40007058
_cell_length_c   11.85411200
_cell_angle_alpha   112.87971289
_cell_angle_beta   100.78198826
_cell_angle_gamma   92.85458481
_symmetry_Int_Tables_number   1
_chemical_formula_structural   CdH16C18(NO2)2
_chemical_formula_sum   'Cd2 H32 C36 N4 O8'
_cell_volume   776.82002470
_cell_formula_units_Z   2
loop_
 _symmetry_equiv_pos_site_id
 _symmetry_equiv_pos_as_xyz
  1  'x, y, z'
loop_
 _atom_site_type_symbol
 _atom_site_label
 _atom_site_symmetry_multiplicity
 _atom_site_fract_x
 _atom_site_fract_y
 _atom_site_fract_z
 _atom_site_occupancy
 _atom_site_hle17_bader_spin_density
 _atom_site_hle17_ddec_charge
 _atom_site_hle17_ddec_spin_density
 _atom_site_hle17_ddec_sum_bond_order
 _atom_site_hle17_magmom
 _atom_site_hse06_10hf_bader_spin_density
 _atom_site_hse06_10hf_ddec_charge
 _atom_site_hse06_10hf_ddec_spin_density
 _atom_site_hse06_10hf_ddec_sum_bond_order
 _atom_site_hse06_10hf_magmom
 _atom_site_hse06_bader_spin_density
 _atom_site_hse06_ddec_charge
 _atom_site_hse06_ddec_spin_density
 _atom_site_hse06_ddec_sum_bond_order
 _atom_site_hse06_magmom
 _atom_site_pbe_bader_spin_density
 _atom_site_pbe_cm5_charge
 _atom_site_pbe_ddec_charge
 _atom_site_pbe_ddec_spin_density
 _atom_site_pbe_ddec_sum_bond_order
 _atom_site_pbe_magmom
Cd  Cd0  1  0.66435872  0.85154524  0.50990885  1  0  1.106391  0  1.71241  0  0  0.909506  0  2.173049  0  0  0.968915  0  2.117778  0  0  0.766791  0.867338  0  2.211083  0
Cd  Cd1  1  0.33563692  0.14846004  0.49009110  1  0  1.106366  0  1.712396  0  0  0.909485  0  2.173019  0  0  0.968892  0  2.11775  0  0  0.766782  0.867313  0  2.211053  0
H  H2  1  0.47398946  0.62544441  0.00322123  1  0  0.095704  0  0.990766  0  0  0.104997  0  1.057804  0  0  0.107725  0  1.057491  0  0  0.104692  0.103236  0  1.057738  0
H  H3  1  0.52601157  0.37455385  0.99677628  1  0  0.095665  0  0.99072  0  0  0.104958  0  1.057774  0  0  0.10768  0  1.057473  0  0  0.104661  0.103198  0  1.057703  0
H  H4  1  0.47360964  0.64873394  0.21874937  1  0  0.077156  0  0.940115  0  0  0.087338  0  1.003319  0  0  0.089364  0  1.001554  0  0  0.117111  0.085948  0  1.004333  0
H  H5  1  0.52639139  0.35126432  0.78124815  1  0  0.077195  0  0.940082  0  0  0.087365  0  1.003297  0  0  0.089391  0  1.001533  0  0  0.117101  0.085974  0  1.004313  0
H  H6  1  0.82097322  0.06480291  0.17437008  1  0  0.101459  0  0.977401  0  0  0.112639  0  1.039601  0  0  0.115172  0  1.039606  0  0  0.107936  0.111023  0  1.039387  0
H  H7  1  0.17903603  0.93518946  0.82562653  1  0  0.101392  0  0.977324  0  0  0.112607  0  1.039503  0  0  0.115141  0  1.039505  0  0  0.107915  0.110991  0  1.03929  0
H  H8  1  0.80838316  0.06781347  0.38016700  1  0  0.107846  0  0.963378  0  0  0.113336  0  1.027168  0  0  0.116855  0  1.02376  0  0  0.121072  0.110754  0  1.029602  0
H  H9  1  0.19162014  0.93218242  0.61983172  1  0  0.107882  0  0.963389  0  0  0.113359  0  1.027194  0  0  0.116875  0  1.023791  0  0  0.121081  0.110777  0  1.029627  0
H  H10  1  0.04885658  0.29884828  0.25692142  1  0  0.064697  0  0.959978  0  0  0.08034  0  1.028868  0  0  0.080277  0  1.030573  0  0  0.084897  0.080461  0  1.027492  0
H  H11  1  0.95113883  0.70115585  0.74307644  1  0  0.064728  0  0.960047  0  0  0.08033  0  1.028894  0  0  0.080264  0  1.030596  0  0  0.084883  0.080453  0  1.027515  0
H  H12  1  0.84921688  0.33414627  0.30565388  1  0  0.084812  0  0.933688  0  0  0.102628  0  0.996201  0  0  0.103536  0  0.996026  0  0  0.096502  0.101968  0  0.996247  0
H  H13  1  0.15077853  0.66584969  0.69434142  1  0  0.084788  0  0.933684  0  0  0.102559  0  0.996184  0  0  0.103465  0  0.996006  0  0  0.096486  0.101898  0  0.99623  0
H  H14  1  0.13010141  0.53635318  0.43930543  1  0  0.096228  0  0.918492  0  0  0.10699  0  0.976809  0  0  0.109402  0  0.97617  0  0  0.106725  0.105145  0  0.977595  0
H  H15  1  0.86988399  0.46364514  0.56069368  1  0  0.096228  0  0.918504  0  0  0.107018  0  0.976824  0  0  0.109399  0  0.976223  0  0  0.106753  0.105173  0  0.977611  0
H  H16  1  0.92381262  0.73793564  0.23273479  1  0  0.078702  0  0.958948  0  0  0.09545  0  1.024259  0  0  0.095461  0  1.026264  0  0  0.091893  0.095359  0  1.022947  0
H  H17  1  0.07619070  0.26206842  0.76726733  1  0  0.078667  0  0.95891  0  0  0.095418  0  1.024228  0  0  0.095427  0  1.026234  0  0  0.091878  0.095337  0  1.022888  0
H  H18  1  0.07228736  0.68231757  0.13447670  1  0  0.06645  0  0.947494  0  0  0.084436  0  1.012531  0  0  0.085018  0  1.012577  0  0  0.087682  0.08394  0  1.012655  0
H  H19  1  0.92771791  0.31768994  0.86553095  1  0  0.066418  0  0.947503  0  0  0.084412  0  1.012542  0  0  0.084998  0  1.01258  0  0  0.087658  0.083913  0  1.012668  0
H  H20  1  0.21945951  0.53941657  0.25201886  1  0  0.066184  0  0.923279  0  0  0.081563  0  0.980391  0  0  0.082634  0  0.981304  0  0  0.09727  0.080972  0  0.979587  0
H  H21  1  0.78053960  0.46058514  0.74798710  1  0  0.066152  0  0.92326  0  0  0.081553  0  0.98033  0  0  0.082624  0  0.981243  0  0  0.097262  0.080964  0  0.979524  0
H  H22  1  0.46221070  0.62577404  0.82864208  1  0  0.108964  0  0.982099  0  0  0.115656  0  1.050969  0  0  0.119092  0  1.049585  0  0  0.10667  0.11336  0  1.05173  0
H  H23  1  0.53779777  0.37421369  0.17135130  1  0  0.108813  0  0.982204  0  0  0.115555  0  1.051034  0  0  0.118995  0  1.049642  0  0  0.106623  0.113252  0  1.051788  0
H  H24  1  0.85309495  0.04037954  0.00753163  1  0  0.095701  0  0.987849  0  0  0.107396  0  1.048957  0  0  0.11022  0  1.048436  0  0  0.103854  0.105499  0  1.04931  0
H  H25  1  0.14690163  0.95962339  0.99246852  1  0  0.095695  0  0.987913  0  0  0.107378  0  1.04904  0  0  0.110196  0  1.048525  0  0  0.103828  0.105479  0  1.049397  0
H  H26  1  0.47888908  0.63209238  0.62707293  1  0  0.108033  0  0.923479  0  0  0.115333  0  0.985124  0  0  0.118895  0  0.981261  0  0  0.125498  0.112483  0  0.98836  0
H  H27  1  0.52110767  0.36790356  0.37292421  1  0  0.108035  0  0.923454  0  0  0.115332  0  0.985084  0  0  0.118894  0  0.981222  0  0  0.125506  0.11248  0  0.988321  0
H  H28  1  0.84753112  0.03010323  0.79504818  1  0  0.090949  0  0.952046  0  0  0.098725  0  1.016516  0  0  0.101676  0  1.013894  0  0  0.117905  0.096588  0  1.018299  0
H  H29  1  0.15246376  0.96989738  0.20495022  1  0  0.091  0  0.952065  0  0  0.098744  0  1.016571  0  0  0.101703  0  1.013925  0  0  0.117909  0.096608  0  1.018352  0
H  H30  1  0.81062293  0.48471360  0.01621420  1  0  0.070399  0  0.969955  0  0  0.086387  0  1.027819  0  0  0.088295  0  1.028043  0  0  0.088449  0.08503  0  1.02763  0
H  H31  1  0.18938563  0.51529859  0.98379108  1  0  0.070221  0  0.969865  0  0  0.086233  0  1.027735  0  0  0.088135  0  1.027965  0  0  0.088378  0.084876  0  1.027545  0
H  H32  1  0.77510680  0.26803780  0.07483576  1  0  0.058872  0  1.000309  0  0  0.070403  0  1.069584  0  0  0.072232  0  1.069738  0  0  0.082933  0.068981  0  1.069893  0
H  H33  1  0.22489194  0.73196283  0.92515886  1  0  0.058813  0  1.000426  0  0  0.070387  0  1.069642  0  0  0.072217  0  1.069794  0  0  0.082934  0.068969  0  1.06995  0
C  C34  1  0.54942639  0.72655709  0.08343465  1  0  -0.165793  0  3.711177  0  0  -0.182987  0  3.957693  0  0  -0.190769  0  3.978893  0  0  -0.084271  -0.178113  0  3.943169  0
C  C35  1  0.45057749  0.27343413  0.91656351  1  0  -0.165697  0  3.711049  0  0  -0.182891  0  3.957568  0  0  -0.190674  0  3.978768  0  0  -0.08424  -0.178017  0  3.943044  0
C  C36  1  0.64862842  0.84339388  0.06714664  1  0  0.090918  0  3.747913  0  0  0.104282  0  3.973401  0  0  0.108282  0  3.995005  0  0  0.010252  0.102001  0  3.95878  0
C  C37  1  0.35137732  0.15660083  0.93285283  1  0  0.090837  0  3.747938  0  0  0.104189  0  3.973478  0  0  0.10819  0  3.995079  0  0  0.010206  0.101908  0  3.958861  0
C  C38  1  0.54715037  0.73941499  0.20396616  1  0  0.140252  0  3.710634  0  0  0.108814  0  3.965067  0  0  0.116239  0  3.984  0  0  0.049577  0.104025  0  3.951936  0
C  C39  1  0.45285068  0.26058326  0.79603220  1  0  0.139972  0  3.71052  0  0  0.108558  0  3.964921  0  0  0.115982  0  3.983854  0  0  0.04946  0.10377  0  3.951794  0
C  C40  1  0.74050602  0.96871849  0.17711427  1  0  -0.151745  0  3.676602  0  0  -0.170034  0  3.9229  0  0  -0.177548  0  3.943734  0  0  -0.079159  -0.165278  0  3.908501  0
C  C41  1  0.25949911  0.03128092  0.82288323  1  0  -0.151632  0  3.676473  0  0  -0.16993  0  3.922735  0  0  -0.177443  0  3.943564  0  0  -0.07914  -0.165176  0  3.90834  0
C  C42  1  0.73251630  0.97286107  0.29467024  1  0  0.148735  0  3.655937  0  0  0.116518  0  3.910622  0  0  0.124992  0  3.925798  0  0  0.056408  0.111096  0  3.900068  0
C  C43  1  0.26748381  0.02713135  0.70532618  1  0  0.148646  0  3.655819  0  0  0.116433  0  3.91051  0  0  0.124908  0  3.925682  0  0  0.056393  0.111014  0  3.899955  0
C  C44  1  0.94773712  0.37834343  0.26737069  1  0  -0.118371  0  3.733494  0  0  -0.16512  0  3.988309  0  0  -0.164221  0  4.000807  0  0  -0.16926  -0.165636  0  3.979421  0
C  C45  1  0.05226386  0.62166177  0.73263658  1  0  -0.118562  0  3.733841  0  0  -0.165082  0  3.98845  0  0  -0.16417  0  4.000928  0  0  -0.169252  -0.165592  0  3.979555  0
C  C46  1  0.88113043  0.49418554  0.10822589  1  0  -0.089853  0  3.748644  0  0  -0.104578  0  4.010151  0  0  -0.106997  0  4.032104  0  0  -0.110465  -0.102882  0  3.994939  0
C  C47  1  0.11886885  0.50582676  0.89177162  1  0  -0.089679  0  3.748621  0  0  -0.104409  0  4.010157  0  0  -0.106823  0  4.032105  0  0  -0.110379  -0.10271  0  3.994941  0
C  C48  1  0.86147696  0.37438804  0.14144802  1  0  -0.103355  0  3.753504  0  0  -0.118324  0  4.017986  0  0  -0.119993  0  4.038366  0  0  -0.115008  -0.117293  0  4.004306  0
C  C49  1  0.13851625  0.62561024  0.85855029  1  0  -0.103149  0  3.754212  0  0  -0.118219  0  4.018624  0  0  -0.119891  0  4.038999  0  0  -0.114949  -0.117193  0  4.004947  0
C  C50  1  0.89615673  0.64240326  0.42091570  1  0  0.64637  0  3.858017  0  0  0.598558  0  4.155276  0  0  0.631187  0  4.152456  0  0  0.190836  0.576427  0  4.156154  0
C  C51  1  0.10384305  0.35760315  0.57908676  1  0  0.64628  0  3.858012  0  0  0.598515  0  4.155248  0  0  0.631147  0  4.152425  0  0  0.190837  0.576385  0  4.156129  0
C  C52  1  0.03198355  0.54243289  0.36184301  1  0  -0.117223  0  3.589153  0  0  -0.118802  0  3.817662  0  0  -0.124606  0  3.831453  0  0  -0.083872  -0.11487  0  3.808384  0
C  C53  1  0.96800767  0.45756888  0.63815955  1  0  -0.117147  0  3.589109  0  0  -0.11892  0  3.817712  0  0  -0.124715  0  3.831505  0  0  -0.083969  -0.114998  0  3.808454  0
C  C54  1  0.00022285  0.64309377  0.19098714  1  0  -0.12466  0  3.755587  0  0  -0.170456  0  4.003634  0  0  -0.169948  0  4.017088  0  0  -0.171855  -0.170529  0  3.994225  0
C  C55  1  0.99977602  0.35690679  0.80901507  1  0  -0.124608  0  3.755337  0  0  -0.170442  0  4.003364  0  0  -0.169935  0  4.01682  0  0  -0.171818  -0.170509  0  3.993955  0
C  C56  1  0.13013425  0.62200372  0.29511818  1  0  -0.116623  0  3.625498  0  0  -0.117209  0  3.855315  0  0  -0.122723  0  3.868592  0  0  -0.084904  -0.113489  0  3.846167  0
C  C57  1  0.86986369  0.37799917  0.70488550  1  0  -0.116684  0  3.625478  0  0  -0.117188  0  3.855177  0  0  -0.122696  0  3.868437  0  0  -0.084916  -0.113472  0  3.846045  0
C  C58  1  0.25272734  0.77078129  0.38507394  1  0  0.686854  0  3.859478  0  0  0.626503  0  4.17503  0  0  0.662826  0  4.165283  0  0  0.210143  0.601672  0  4.180956  0
C  C59  1  0.74727590  0.22922155  0.61493370  1  0  0.687043  0  3.859782  0  0  0.626698  0  4.175264  0  0  0.66302  0  4.165516  0  0  0.210246  0.601868  0  4.181191  0
C  C60  1  0.65614570  0.83501063  0.94064907  1  0  0.092711  0  3.746827  0  0  0.104765  0  3.974459  0  0  0.108567  0  3.996472  0  0  0.010847  0.102159  0  3.959886  0
C  C61  1  0.34385738  0.16498412  0.05934758  1  0  0.092903  0  3.746588  0  0  0.104904  0  3.974301  0  0  0.108706  0  3.996312  0  0  0.01088  0.102296  0  3.959729  0
C  C62  1  0.55346982  0.71808331  0.82934459  1  0  -0.157168  0  3.672347  0  0  -0.175575  0  3.922497  0  0  -0.183009  0  3.942694  0  0  -0.079047  -0.170811  0  3.908835  0
C  C63  1  0.44653332  0.28191141  0.17065459  1  0  -0.157098  0  3.672135  0  0  -0.175542  0  3.922265  0  0  -0.182978  0  3.942462  0  0  -0.078981  -0.170765  0  3.908591  0
C  C64  1  0.76664459  0.94729386  0.92685743  1  0  -0.169422  0  3.727759  0  0  -0.18763  0  3.975656  0  0  -0.195442  0  3.996943  0  0  -0.087951  -0.182982  0  3.961809  0
C  C65  1  0.23335775  0.05270439  0.07314023  1  0  -0.169462  0  3.727804  0  0  -0.187654  0  3.97572  0  0  -0.195462  0  3.997013  0  0  -0.087944  -0.183007  0  3.961877  0
C  C66  1  0.56113423  0.72055520  0.71353968  1  0  0.151566  0  3.6539  0  0  0.119914  0  3.906644  0  0  0.127904  0  3.922768  0  0  0.060161  0.114669  0  3.895711  0
C  C67  1  0.43886741  0.27943836  0.28645896  1  0  0.151694  0  3.653756  0  0  0.120078  0  3.906463  0  0  0.128067  0  3.922591  0  0  0.060229  0.114832  0  3.895529  0
C  C68  1  0.76662907  0.94212607  0.80826586  1  0  0.122182  0  3.720691  0  0  0.09167  0  3.974036  0  0  0.098772  0  3.991846  0  0  0.044279  0.087003  0  3.961949  0
C  C69  1  0.23336657  0.05787103  0.19173236  1  0  0.122048  0  3.720853  0  0  0.091554  0  3.974189  0  0  0.098659  0  3.992005  0  0  0.044212  0.086887  0  3.9621  0
N  N70  1  0.63650982  0.85994015  0.30827631  1  0  -0.327818  0  3.230547  0  0  -0.253493  0  3.497334  0  0  -0.273419  0  3.515217  0  0  -0.319803  -0.240176  0  3.4853  0
N  N71  1  0.36349326  0.14005459  0.69172034  1  0  -0.32762  0  3.230346  0  0  -0.253285  0  3.497055  0  0  -0.273208  0  3.514938  0  0  -0.31966  -0.239968  0  3.485019  0
N  N72  1  0.66464753  0.83140730  0.70284779  1  0  -0.317328  0  3.227254  0  0  -0.240965  0  3.489589  0  0  -0.260254  0  3.507154  0  0  -0.321843  -0.227884  0  3.477524  0
N  N73  1  0.33534719  0.16859213  0.29715190  1  0  -0.317395  0  3.227362  0  0  -0.24103  0  3.489672  0  0  -0.260321  0  3.507236  0  0  -0.321855  -0.22795  0  3.477606  0
O  O74  1  0.73414908  0.58547379  0.39193664  1  0  -0.647358  0  1.926331  0  0  -0.585917  0  2.16433  0  0  -0.614196  0  2.157164  0  0  -0.333103  -0.565839  0  2.168364  0
O  O75  1  0.26584553  0.41454204  0.60806143  1  0  -0.647293  0  1.926345  0  0  -0.58588  0  2.164357  0  0  -0.614158  0  2.157192  0  0  -0.333076  -0.565806  0  2.168398  0
O  O76  1  0.95316150  0.78354053  0.49752420  1  0  -0.634601  0  1.944762  0  0  -0.567174  0  2.181053  0  0  -0.59657  0  2.173047  0  0  -0.33038  -0.546512  0  2.185758  0
O  O77  1  0.04683924  0.21646352  0.50247932  1  0  -0.634572  0  1.94468  0  0  -0.567154  0  2.180968  0  0  -0.596535  0  2.172922  0  0  -0.330386  -0.546484  0  2.18566  0
O  O78  1  0.23115919  0.89453705  0.36776328  1  0  -0.648587  0  2.057843  0  0  -0.577933  0  2.328958  0  0  -0.607199  0  2.316356  0  0  -0.327879  -0.557355  0  2.336893  0
O  O79  1  0.76884399  0.10546581  0.63224099  1  0  -0.648648  0  2.057915  0  0  -0.578012  0  2.329036  0  0  -0.607281  0  2.316435  0  0  -0.327911  -0.557438  0  2.33697  0
O  O80  1  0.37424787  0.75664925  0.46680661  1  0  -0.668191  0  2.039854  0  0  -0.607907  0  2.318214  0  0  -0.636604  0  2.304297  0  0  -0.341581  -0.587455  0  2.326985  0
O  O81  1  0.62575598  0.24335706  0.53320472  1  0  -0.668265  0  2.040041  0  0  -0.608029  0  2.318463  0  0  -0.636727  0  2.304545  0  0  -0.341624  -0.587566  0  2.327217  0
