# generated using pymatgen
data_Ni3H40C54(N6O7)2
_symmetry_space_group_name_H-M   'P 1'
_cell_length_a   9.99554497
_cell_length_b   12.37216996
_cell_length_c   13.42793712
_cell_angle_alpha   85.70766075
_cell_angle_beta   67.44759937
_cell_angle_gamma   73.60602322
_symmetry_Int_Tables_number   1
_chemical_formula_structural   Ni3H40C54(N6O7)2
_chemical_formula_sum   'Ni3 H40 C54 N12 O14'
_cell_volume   1470.20405354
_cell_formula_units_Z   1
loop_
 _symmetry_equiv_pos_site_id
 _symmetry_equiv_pos_as_xyz
  1  'x, y, z'
loop_
 _atom_site_type_symbol
 _atom_site_label
 _atom_site_symmetry_multiplicity
 _atom_site_fract_x
 _atom_site_fract_y
 _atom_site_fract_z
 _atom_site_occupancy
 _atom_site_hle17_ddec_charge
 _atom_site_hle17_ddec_spin_density
 _atom_site_hle17_ddec_sum_bond_order
 _atom_site_hle17_magmom
 _atom_site_hse06_10hf_ddec_charge
 _atom_site_hse06_10hf_ddec_spin_density
 _atom_site_hse06_10hf_ddec_sum_bond_order
 _atom_site_hse06_10hf_magmom
 _atom_site_hse06_ddec_charge
 _atom_site_hse06_ddec_spin_density
 _atom_site_hse06_ddec_sum_bond_order
 _atom_site_hse06_magmom
 _atom_site_pbe_cm5_charge
 _atom_site_pbe_ddec_charge
 _atom_site_pbe_ddec_spin_density
 _atom_site_pbe_ddec_sum_bond_order
 _atom_site_pbe_magmom
Ni  Ni0  1  0.61605903  0.07861614  0.57846479  1  0.871686  1.755413  1.994787  1.513  0.879364  1.818766  2.388437  1.635  0.973932  1.874633  2.310362  1.724  0.651118  0.804749  1.76812  2.454076  1.556
Ni  Ni1  1  0.38394589  0.92138689  0.42153793  1  0.871741  1.755427  1.994803  1.513  0.87936  1.818775  2.38847  1.635  0.973947  1.874637  2.310343  1.724  0.651069  0.804723  1.768226  2.454131  1.556
Ni  Ni2  1  0.99999036  0.49999559  0.00000596  1  0.88457  1.772731  2.003983  1.525  0.889398  1.825376  2.397963  1.639  0.976178  1.873252  2.324538  1.721  0.630327  0.824388  1.78059  2.454069  1.566
H  H3  1  0.93501353  0.88158157  0.54523761  1  0.110613  0.000384  0.982265  0.001  0.114683  0.000377  1.053108  0.0  0.118779  0.000217  1.048514  0.0  0.132287  0.11148  0.000537  1.056609  0.001
H  H4  1  0.06500078  0.11841985  0.45476052  1  0.11072  0.000385  0.982178  0.001  0.114789  0.000377  1.053011  0.0  0.118881  0.000217  1.048424  0.0  0.132337  0.111595  0.000535  1.056506  0.001
H  H5  1  0.48142537  0.87519006  0.70401966  1  0.116162  0.000123  0.947683  0.0  0.127001  0.000199  1.00133  0.0  0.129519  0.000128  1.000023  0.0  0.122953  0.125084  0.000284  1.002478  0.0
H  H6  1  0.51858940  0.12481388  0.29597149  1  0.116286  0.000125  0.947529  0.0  0.127072  0.000199  1.001232  0.0  0.129592  0.000128  0.999922  0.0  0.122955  0.125159  0.000287  1.00238  0.0
H  H7  1  0.66911934  0.66123150  0.70673970  1  0.113166  0.000318  0.951846  0.0  0.12567  0.000296  1.008379  0.0  0.12854  0.000215  1.006647  0.0  0.122732  0.123555  0.000388  1.009743  0.0
H  H8  1  0.33090383  0.33876663  0.29325632  1  0.113192  0.000318  0.951677  0.0  0.125666  0.000296  1.008252  0.0  0.128552  0.000215  1.006499  0.0  0.122738  0.123559  0.000387  1.009618  0.0
H  H9  1  0.05314998  0.69223683  0.42420214  1  0.102342  1.4e-05  0.981866  0.0  0.112572  1.9e-05  1.04355  0.0  0.113834  1.2e-05  1.045017  0.0  0.105571  0.111502  -2e-06  1.042816  0.0
H  H10  1  0.94685311  0.30776105  0.57579095  1  0.102311  1.2e-05  0.981947  0.0  0.112466  1.9e-05  1.043723  0.0  0.113726  1.2e-05  1.045195  0.0  0.10553  0.111393  -1e-06  1.043002  0.0
H  H11  1  0.92203318  0.59238665  0.75473361  1  0.115316  -8.7e-05  0.951606  0.0  0.124025  -3.6e-05  1.012007  0.0  0.126743  -4.3e-05  1.011205  0.0  0.11047  0.121984  -1.6e-05  1.012769  0.0
H  H12  1  0.07797849  0.40762152  0.24526553  1  0.115306  -9.1e-05  0.951484  0.0  0.124057  -3.6e-05  1.011848  0.0  0.126772  -4.3e-05  1.011052  0.0  0.110428  0.122007  -2.3e-05  1.012621  0.0
H  H13  1  0.31544035  0.28021535  0.64107911  1  0.09684  2.8e-05  0.977779  0.001  0.103725  5e-05  1.046749  0.0  0.106121  -3e-06  1.043186  0.0  0.134644  0.101733  6.9e-05  1.049685  0.0
H  H14  1  0.68457078  0.71977757  0.35891965  1  0.096818  2.6e-05  0.977849  0.001  0.103661  5e-05  1.046879  0.0  0.106056  -3e-06  1.043318  0.0  0.134581  0.101665  7e-05  1.04982  0.0
H  H15  1  0.73292866  0.25523865  0.38728118  1  0.11216  7.8e-05  0.930946  0.0  0.123949  0.000188  0.984142  0.0  0.126154  0.000118  0.983375  0.0  0.124034  0.122219  0.000263  0.984956  0.001
H  H16  1  0.26707810  0.74476861  0.61271633  1  0.112115  7.7e-05  0.931021  0.0  0.123927  0.000188  0.984191  0.0  0.126134  0.000118  0.983422  0.0  0.124023  0.122197  0.000264  0.985002  0.001
H  H17  1  0.52961658  0.45388043  0.36832829  1  0.115378  0.000417  0.949561  0.0  0.127599  0.000471  1.005544  0.0  0.130971  0.000336  1.003007  0.0  0.123045  0.124928  0.000632  1.007842  0.0
H  H18  1  0.47038801  0.54611580  0.63166899  1  0.115358  0.000419  0.949612  0.0  0.127609  0.000471  1.005561  0.0  0.130944  0.000336  1.003073  0.0  0.123054  0.124935  0.000633  1.007857  0.0
H  H19  1  0.29150230  0.54014753  0.37508198  1  0.102127  2.1e-05  0.939936  0.0  0.116782  5.2e-05  0.993447  0.0  0.119594  3.2e-05  0.992012  0.0  0.109072  0.114602  7.7e-05  0.994806  0.0
H  H20  1  0.70848698  0.45984763  0.62490895  1  0.102189  2.4e-05  0.940065  0.0  0.11688  5.2e-05  0.993516  0.0  0.119694  3.2e-05  0.992077  0.0  0.109107  0.114701  7.5e-05  0.994872  0.0
H  H21  1  0.15575346  0.44228023  0.70857085  1  0.119098  5.9e-05  0.965555  0.0  0.128135  1.1e-05  1.028119  0.0  0.131562  -4e-06  1.026179  0.0  0.109146  0.125423  1.8e-05  1.029844  0.0
H  H22  1  0.84426141  0.55772034  0.29142272  1  0.119058  6.2e-05  0.965566  0.0  0.128142  1.1e-05  1.028058  0.0  0.131569  -5e-06  1.026117  0.0  0.109149  0.125418  2.5e-05  1.029799  0.0
H  H23  1  0.32350402  0.31033850  0.97797612  1  0.089316  -3.5e-05  0.939703  0.0  0.101493  5.5e-05  0.998322  0.0  0.104174  1.3e-05  0.994284  0.0  0.140318  0.099211  9.2e-05  1.001774  0.0
H  H24  1  0.67648627  0.68965677  0.02203689  1  0.089298  -3.6e-05  0.939533  0.0  0.101435  5.5e-05  0.998207  0.0  0.104098  1.3e-05  0.994206  0.0  0.140276  0.09916  9.3e-05  1.001653  0.0
H  H25  1  0.87413509  0.30939880  0.16009218  1  0.116707  0.000102  0.946075  0.0  0.127767  0.000191  0.999739  0.001  0.13033  0.000121  0.998559  0.0  0.122044  0.125903  0.000256  1.000693  0.001
H  H26  1  0.12585757  0.69059139  0.83991233  1  0.116703  9.8e-05  0.946117  0.0  0.127779  0.000191  0.999751  0.001  0.13034  0.000121  0.998576  0.0  0.122024  0.125913  0.000259  1.000699  0.001
H  H27  1  0.06476194  0.09438586  0.15863452  1  0.122297  0.000316  0.943891  0.0  0.134395  0.000297  0.999356  0.0  0.136708  0.000218  0.998694  0.0  0.127842  0.132703  0.0004  0.999948  0.0
H  H28  1  0.93524060  0.90559932  0.84136027  1  0.122212  0.000317  0.943873  0.0  0.134303  0.000297  0.999373  0.0  0.136618  0.000218  0.998713  0.0  0.127811  0.132614  0.000397  0.999961  0.0
H  H29  1  0.44365058  0.12787624  0.86047535  1  0.126536  -9.2e-05  0.950359  0.0  0.135573  -7.5e-05  1.011775  0.0  0.139491  -8.5e-05  1.008662  0.0  0.112102  0.132532  -6.1e-05  1.014379  0.0
H  H30  1  0.55633602  0.87212404  0.13953011  1  0.126525  -9.6e-05  0.950297  0.0  0.135556  -7.5e-05  1.011727  0.0  0.139475  -8.5e-05  1.008614  0.0  0.112096  0.132506  -5.3e-05  1.014332  0.0
H  H31  1  0.32146494  0.02463833  0.19159402  1  0.113327  -0.000194  0.96421  0.0  0.11909  -0.00012  1.030957  0.0  0.121752  -0.000114  1.030397  0.0  0.108045  0.117089  -0.000134  1.031587  0.0
H  H32  1  0.67851435  0.97536358  0.80841698  1  0.11332  -0.000192  0.964353  0.0  0.119113  -0.00012  1.031056  0.0  0.121773  -0.000114  1.030494  0.0  0.108068  0.117115  -0.000134  1.03168  0.0
H  H33  1  0.07851855  0.02034609  0.59813725  1  0.121429  -0.000403  0.969074  0.0  0.125164  -0.000259  1.040817  0.0  0.129569  -0.00027  1.03661  0.0  0.110425  0.121901  -0.000204  1.044027  0.0
H  H34  1  0.92146537  0.97965921  0.40186189  1  0.121455  -0.00041  0.969101  0.0  0.125164  -0.000259  1.040852  0.0  0.12957  -0.000271  1.036644  0.0  0.110419  0.121912  -0.000208  1.044057  0.0
H  H35  1  0.72047078  0.28601032  0.80998643  1  0.109305  0.000106  0.933443  0.0  0.11639  0.000246  0.997518  0.0  0.121361  0.000156  0.992553  0.0  0.105129  0.112663  0.000359  1.001196  0.0
H  H36  1  0.27952148  0.71398663  0.19001701  1  0.109298  0.000113  0.933381  0.0  0.116368  0.000246  0.997481  0.0  0.121342  0.000156  0.992512  0.0  0.105118  0.112646  0.000358  1.001163  0.0
H  H37  1  0.17379527  0.22397478  0.79435051  1  0.10669  0.000193  0.951505  0.0  0.113568  0.000195  1.017961  0.0  0.118532  0.000114  1.012639  0.0  0.104419  0.110093  0.000322  1.021462  0.0
H  H38  1  0.82620188  0.77603319  0.20564127  1  0.106826  0.000186  0.951555  0.0  0.113659  0.000194  1.018034  0.0  0.118622  0.000114  1.012709  0.0  0.104471  0.11019  0.000321  1.02153  0.0
H  H39  1  0.75116865  0.46109534  0.04593256  1  0.412177  -0.000809  0.904173  -0.001  0.378725  -0.000227  0.97227  0.0  0.392198  -0.000367  0.953142  -0.001  0.278329  0.369259  -6.7e-05  0.985635  0.0
H  H40  1  0.24881092  0.53890400  0.95407108  1  0.412159  -0.000808  0.90417  -0.001  0.378731  -0.000227  0.972239  0.0  0.392205  -0.000367  0.95311  -0.001  0.278262  0.369255  -6.9e-05  0.985618  0.0
H  H41  1  0.70977015  0.56618468  0.13033748  1  0.401264  -0.000516  0.847526  -0.001  0.389684  0.000343  0.898863  0.0  0.398413  0.000111  0.889502  0.0  0.313164  0.383312  0.000579  0.90564  0.0
H  H42  1  0.29021601  0.43381645  0.86967028  1  0.401191  -0.000515  0.847598  -0.001  0.389606  0.000343  0.898959  0.0  0.398334  0.000112  0.889598  0.0  0.313099  0.383212  0.000587  0.905754  0.0
C  C43  1  0.83463897  0.85316257  0.58737709  1  0.156444  -0.011663  3.608893  -0.007  0.104807  -0.003781  3.874062  -0.002  0.119601  -0.004194  3.885976  -0.002  0.139774  0.093997  -0.004044  3.866557  -0.002
C  C44  1  0.16536555  0.14684722  0.41262457  1  0.156241  -0.011663  3.608717  -0.007  0.104572  -0.003781  3.873921  -0.002  0.119361  -0.004191  3.885836  -0.002  0.139633  0.093765  -0.00401  3.866404  -0.002
C  C45  1  0.60303775  0.84509306  0.67249313  1  0.023467  -0.004425  3.723832  -0.003  -0.008299  -0.00174  3.997959  -0.001  -0.004393  -0.002181  4.01742  -0.001  0.0041  -0.010895  -0.001291  3.984609  -0.001
C  C46  1  0.39697105  0.15490658  0.32750060  1  0.023342  -0.004445  3.724029  -0.003  -0.008388  -0.00174  3.998139  -0.001  -0.004487  -0.002179  4.017607  -0.001  0.004102  -0.010974  -0.001332  3.984787  -0.001
C  C47  1  0.69381609  0.73927664  0.67451067  1  -0.077361  0.00315  3.6871  0.004  -0.120232  0.001231  3.949127  0.001  -0.118879  0.00116  3.966475  0.001  -0.007687  -0.120865  0.001465  3.937292  0.002
C  C48  1  0.30619316  0.26072725  0.32548416  1  -0.077306  0.003157  3.687113  0.004  -0.12015  0.001232  3.949113  0.001  -0.118812  0.00116  3.966455  0.001  -0.00765  -0.120777  0.001455  3.937286  0.002
C  C49  1  0.97416876  0.65366785  0.59245591  1  0.163292  0.000258  3.793213  0.001  0.155076  0.000186  4.041633  0.0  0.158571  9.8e-05  4.064501  0.0  0.09125  0.152431  0.000258  4.026405  0.001
C  C50  1  0.02584937  0.34633529  0.40753813  1  0.163157  0.000181  3.793704  0.0  0.155023  0.000186  4.042026  0.0  0.158512  9.3e-05  4.064898  0.0  0.091265  0.15242  0.000251  4.02673  0.001
C  C51  1  0.07806149  0.63782469  0.48596288  1  -0.113505  0.000173  3.73655  0.0  -0.133245  9.7e-05  3.985237  0.0  -0.134896  7.3e-05  4.006814  0.0  -0.083665  -0.132475  0.000157  3.971571  0.0
C  C52  1  0.92194647  0.36217073  0.51403729  1  -0.113501  0.000239  3.736565  0.0  -0.133237  9.6e-05  3.985293  0.0  -0.134886  7.4e-05  4.00687  0.0  -0.083739  -0.132491  0.000173  3.971598  0.0
C  C53  1  0.00179751  0.58097280  0.67131418  1  -0.11792  0.000243  3.736951  0.0  -0.139029  0.000131  3.989178  0.0  -0.140708  9.9e-05  4.009656  0.0  -0.083598  -0.137893  8.5e-05  3.975738  0.0
C  C54  1  0.99821499  0.41903285  0.32868789  1  -0.118008  0.000315  3.737333  0.0  -0.139177  0.000129  3.989538  0.0  -0.140856  9.9e-05  4.010017  0.0  -0.083648  -0.138048  9.7e-05  3.976089  0.0
C  C55  1  0.40249498  0.30090793  0.57118165  1  0.168417  -0.013093  3.624916  -0.008  0.113574  -0.004706  3.888019  -0.002  0.129014  -0.005268  3.900521  -0.003  0.142985  0.102045  -0.00542  3.880502  -0.003
C  C56  1  0.59750758  0.69908826  0.42881393  1  0.168389  -0.013034  3.625018  -0.008  0.113563  -0.004704  3.88813  -0.002  0.129001  -0.005266  3.900636  -0.003  0.143039  0.102034  -0.00544  3.880634  -0.003
C  C57  1  0.61505952  0.29034363  0.43715733  1  0.020957  -0.003449  3.722573  -0.002  -0.009502  -0.000833  3.994513  0.0  -0.005737  -0.001327  4.014516  -0.001  0.007724  -0.012131  -0.000316  3.98107  0.0
C  C58  1  0.38495261  0.70966114  0.56283744  1  0.020822  -0.003402  3.722649  -0.002  -0.009678  -0.000835  3.994617  0.0  -0.005912  -0.001327  4.014608  -0.001  0.007656  -0.012306  -0.00029  3.981164  0.0
C  C59  1  0.51524462  0.38822149  0.42625511  1  -0.079356  0.003538  3.690845  0.004  -0.123161  0.001557  3.958565  0.002  -0.122145  0.001435  3.976458  0.002  -0.006359  -0.123818  0.001963  3.946858  0.002
C  C60  1  0.48476126  0.61177391  0.57374412  1  -0.079226  0.003506  3.690722  0.004  -0.123048  0.001557  3.958439  0.002  -0.122002  0.001437  3.97635  0.002  -0.006294  -0.123697  0.001958  3.946711  0.002
C  C61  1  0.24189242  0.48096552  0.53814950  1  0.173056  0.000809  3.800488  0.001  0.161571  0.000508  4.053797  0.001  0.167236  0.000395  4.077165  0.001  0.094248  0.157621  0.000535  4.037856  0.001
C  C62  1  0.75811603  0.51903243  0.46184293  1  0.173097  0.000875  3.800087  0.001  0.161622  0.000504  4.05338  0.001  0.167287  0.000389  4.076749  0.001  0.094263  0.157678  0.000542  4.037436  0.001
C  C63  1  0.21185050  0.55178086  0.45861007  1  -0.134326  -0.00026  3.747412  0.0  -0.156794  -7.5e-05  4.004244  0.0  -0.160557  -0.000133  4.024743  0.0  -0.088803  -0.154247  -8.2e-05  3.990843  0.0
C  C64  1  0.78814588  0.44821360  0.54139394  1  -0.134408  -0.000377  3.747225  0.0  -0.156888  -7.1e-05  4.004032  0.0  -0.160649  -0.000126  4.024524  0.0  -0.088816  -0.15434  -7.6e-05  3.990616  0.0
C  C65  1  0.13575297  0.49516025  0.64433540  1  -0.137025  -0.000705  3.720921  0.0  -0.156395  -0.000382  3.971505  0.0  -0.161112  -0.000368  3.992932  0.0  -0.088576  -0.153159  -0.000323  3.957388  0.0
C  C66  1  0.86426681  0.50484123  0.35565981  1  -0.136835  -0.000843  3.721071  0.0  -0.156247  -0.000376  3.971638  0.0  -0.160963  -0.000357  3.993065  0.0  -0.088484  -0.153022  -0.000333  3.957538  0.0
C  C67  1  0.22380672  0.28356691  0.02479179  1  0.151324  -0.010596  3.664901  -0.006  0.093253  -0.003465  3.93898  -0.001  0.107903  -0.003793  3.951323  -0.002  0.141341  0.082912  -0.002861  3.931115  -0.001
C  C68  1  0.77618287  0.71643424  0.97521135  1  0.151419  -0.010542  3.664792  -0.006  0.093382  -0.003464  3.938842  -0.001  0.108041  -0.00379  3.951208  -0.002  0.141438  0.083013  -0.002848  3.930986  -0.001
C  C69  1  0.99548600  0.27764421  0.12198595  1  0.007357  -0.002971  3.726865  -0.002  -0.022254  -0.00077  3.997339  0.0  -0.020229  -0.00125  4.018264  -0.001  0.001347  -0.023764  -0.00055  3.983328  0.0
C  C70  1  0.00450722  0.72234684  0.87802208  1  0.00725  -0.002915  3.726839  -0.002  -0.022397  -0.00077  3.997334  0.0  -0.020374  -0.001249  4.018257  -0.001  0.001367  -0.023903  -0.00052  3.983307  0.0
C  C71  1  0.08784390  0.17179158  0.12257574  1  -0.062286  0.003108  3.6637  0.004  -0.101394  0.001341  3.91454  0.002  -0.099399  0.001181  3.932125  0.001  0.00418  -0.10256  0.001562  3.902739  0.002
C  C72  1  0.91215034  0.82820031  0.87742675  1  -0.062165  0.003078  3.663818  0.004  -0.101265  0.001341  3.91468  0.002  -0.099266  0.001182  3.932268  0.001  0.004135  -0.102439  0.001564  3.902875  0.002
C  C73  1  0.36780778  0.08621200  0.02979376  1  0.158402  0.00086  3.802761  0.001  0.149987  0.000446  4.049538  0.001  0.15312  0.000298  4.074364  0.0  0.09075  0.147738  0.000727  4.032928  0.001
C  C74  1  0.63219411  0.91378506  0.97020865  1  0.158648  0.000857  3.802491  0.001  0.150211  0.000444  4.049312  0.001  0.153345  0.000297  4.074136  0.0  0.090842  0.147958  0.000721  4.032698  0.001
C  C75  1  0.46849115  0.07339232  0.92228229  1  -0.123093  3.2e-05  3.722306  0.0  -0.143537  4.9e-05  3.969492  0.0  -0.146401  -1.5e-05  3.989304  0.0  -0.083748  -0.141899  0.000337  3.956953  0.0
C  C76  1  0.53150210  0.92661648  0.07771717  1  -0.12317  5.4e-05  3.722536  0.0  -0.143604  5.1e-05  3.969752  0.0  -0.146469  -1.8e-05  3.989565  0.0  -0.083766  -0.141964  0.000344  3.957214  0.0
C  C77  1  0.39822571  0.01325126  0.10749366  1  -0.114421  0.000295  3.734991  0.0  -0.13439  0.000171  3.986298  0.0  -0.137005  6.8e-05  4.007384  0.0  -0.084456  -0.132798  0.000185  3.972544  0.0
C  C78  1  0.60177614  0.98674916  0.89250482  1  -0.114423  0.000299  3.734561  0.0  -0.134407  0.000172  3.985857  0.0  -0.137019  6.6e-05  4.006938  0.0  -0.084471  -0.132807  0.000187  3.972091  0.0
C  C79  1  0.14322093  0.11353508  0.69298467  1  -0.072458  0.005822  3.768105  0.008  -0.048224  0.002684  4.002958  0.004  -0.059201  0.001549  4.025591  0.003  -0.02339  -0.041237  0.004264  3.988669  0.006
C  C80  1  0.85677998  0.88646451  0.30701783  1  -0.072308  0.00578  3.767995  0.008  -0.048031  0.00268  4.002795  0.004  -0.059014  0.001547  4.025442  0.003  -0.023241  -0.041038  0.004249  3.988505  0.006
C  C81  1  0.03986931  0.08825452  0.65830078  1  -0.081388  -0.000991  3.698105  0.0  -0.120037  0.000804  3.949011  0.001  -0.116323  0.000458  3.965531  0.001  -0.078964  -0.123012  0.001276  3.939236  0.002
C  C82  1  0.96013386  0.91174171  0.34170358  1  -0.081489  -0.000897  3.698305  0.0  -0.120167  0.000808  3.949208  0.001  -0.116454  0.000459  3.965735  0.001  -0.079032  -0.123147  0.001287  3.939434  0.002
C  C83  1  0.88861177  0.15197461  0.69821896  1  -0.073301  0.004115  3.785447  0.005  -0.045215  0.002121  4.021314  0.002  -0.052962  0.001259  4.040381  0.001  -0.022624  -0.040781  0.003215  4.00934  0.004
C  C84  1  0.11138885  0.84802582  0.30178282  1  -0.073249  0.004085  3.785463  0.005  -0.045045  0.00212  4.021161  0.002  -0.052793  0.001259  4.040235  0.001  -0.022547  -0.040599  0.00319  4.00919  0.004
C  C85  1  0.83862169  0.23785921  0.77714660  1  -0.063452  0.000698  3.683323  0.001  -0.101124  0.002208  3.930953  0.002  -0.095764  0.001565  3.94512  0.002  -0.075191  -0.103791  0.002255  3.920959  0.002
C  C86  1  0.16136741  0.76214107  0.22285150  1  -0.063462  0.000708  3.683334  0.001  -0.101151  0.002209  3.930931  0.002  -0.095795  0.001567  3.945104  0.002  -0.075153  -0.1038  0.002236  3.920945  0.002
C  C87  1  0.94206046  0.26509346  0.81040508  1  -0.064371  0.004965  3.762993  0.007  -0.039284  0.002389  4.000049  0.003  -0.04929  0.00154  4.022211  0.002  -0.019705  -0.03288  0.003342  3.984913  0.004
C  C88  1  0.05793406  0.73491534  0.18959032  1  -0.064377  0.004935  3.763183  0.007  -0.039344  0.002388  4.000281  0.003  -0.049349  0.00154  4.022442  0.002  -0.01975  -0.032953  0.003347  3.985166  0.004
C  C89  1  0.09362381  0.20272616  0.76808756  1  -0.070233  -0.000108  3.706556  0.0  -0.108186  0.001456  3.955723  0.001  -0.102654  0.001065  3.971109  0.001  -0.080247  -0.111117  0.001092  3.945012  0.001
C  C90  1  0.90636280  0.79727749  0.23191322  1  -0.07036  -3.4e-05  3.706724  0.0  -0.108277  0.001458  3.955888  0.001  -0.102736  0.001065  3.971266  0.001  -0.080328  -0.111195  0.00107  3.945176  0.001
C  C91  1  0.30806034  0.05207490  0.64159434  1  0.647297  -0.002091  3.887888  -0.001  0.610513  0.004955  4.181643  0.007  0.650916  0.003787  4.17124  0.006  0.212769  0.581494  0.006179  4.187787  0.008
C  C92  1  0.69193469  0.94792212  0.35841731  1  0.647241  -0.002092  3.888124  -0.001  0.610398  0.004955  4.181947  0.007  0.6508  0.003787  4.171547  0.006  0.212727  0.581379  0.006171  4.188097  0.008
C  C93  1  0.78512738  0.13298802  0.64972890  1  0.607561  -0.014709  3.912545  -0.012  0.56277  -0.005436  4.218822  -0.005  0.598628  -0.004552  4.216763  -0.004  0.192537  0.537586  -0.00596  4.21777  -0.006
C  C94  1  0.21487647  0.86702427  0.35026681  1  0.607517  -0.014714  3.912793  -0.012  0.562701  -0.005435  4.219041  -0.005  0.598561  -0.004552  4.216985  -0.004  0.192494  0.53751  -0.005933  4.217996  -0.006
C  C95  1  0.89507411  0.36225148  0.88847570  1  0.644886  -0.005929  3.890479  -0.005  0.600018  -0.001245  4.190306  -0.001  0.636452  -0.001132  4.18369  -0.001  0.205714  0.574647  -0.001426  4.193849  -0.001
C  C96  1  0.10492563  0.63774892  0.11152259  1  0.64472  -0.005921  3.890818  -0.005  0.599908  -0.001244  4.190565  -0.001  0.636341  -0.001131  4.183953  -0.001  0.205691  0.574544  -0.001409  4.194107  -0.001
N  N97  1  0.69177369  0.91531205  0.61839501  1  -0.342068  0.042111  3.290178  0.068  -0.305745  0.027678  3.595611  0.045  -0.335182  0.021895  3.614974  0.038  -0.347035  -0.284702  0.032595  3.583306  0.05
N  N98  1  0.30823093  0.08470028  0.38160646  1  -0.342092  0.042111  3.290524  0.068  -0.305717  0.02768  3.5959  0.045  -0.335153  0.021896  3.615265  0.038  -0.34694  -0.284662  0.032578  3.583582  0.05
N  N99  1  0.84074511  0.74491267  0.61923394  1  -0.093076  0.000206  3.61043  0.001  -0.003659  0.000282  3.822236  0.001  -0.017697  0.000167  3.846766  0.001  -0.229524  0.005887  0.000456  3.805782  0.001
N  N100  1  0.15926364  0.25509545  0.38076001  1  -0.0929  0.000211  3.610608  0.001  -0.00349  0.000283  3.822388  0.001  -0.01752  0.000165  3.846917  0.001  -0.229426  0.006044  0.000447  3.80592  0.001
N  N101  1  0.54294940  0.23690562  0.52749441  1  -0.310282  0.043793  3.293946  0.07  -0.27199  0.029674  3.592744  0.048  -0.300016  0.023606  3.611737  0.04  -0.341393  -0.252274  0.034826  3.580825  0.053
N  N102  1  0.45706281  0.76309322  0.47250146  1  -0.310117  0.043782  3.294047  0.07  -0.271793  0.029674  3.592825  0.048  -0.299817  0.023605  3.611819  0.04  -0.34135  -0.252078  0.034827  3.580915  0.053
N  N103  1  0.37959073  0.39463106  0.51247846  1  -0.103489  0.00026  3.627461  0.001  -0.014909  0.000351  3.842722  0.001  -0.030137  0.000184  3.868616  0.001  -0.228561  -0.004536  0.000633  3.825456  0.002
N  N104  1  0.62041103  0.60536428  0.48751812  1  -0.103606  0.000255  3.627435  0.001  -0.015036  0.000352  3.84273  0.001  -0.030263  0.000183  3.868619  0.001  -0.228625  -0.004665  0.000633  3.825471  0.002
N  N105  1  0.08167441  0.34671407  0.06075612  1  -0.337094  0.043685  3.292672  0.07  -0.303494  0.029569  3.601196  0.048  -0.330406  0.023109  3.620752  0.04  -0.347325  -0.284537  0.034845  3.588288  0.054
N  N106  1  0.91830568  0.65328277  0.93925648  1  -0.33708  0.043661  3.292429  0.07  -0.303443  0.029569  3.600886  0.048  -0.330351  0.023107  3.620434  0.04  -0.347338  -0.284477  0.034817  3.587979  0.054
N  N107  1  0.23290142  0.17640969  0.05967507  1  -0.081904  0.000653  3.621947  0.002  0.007736  0.000605  3.833496  0.001  -0.006121  0.000372  3.858576  0.001  -0.224944  0.016971  0.00075  3.816705  0.001
N  N108  1  0.76708914  0.82358721  0.94031989  1  -0.081974  0.000647  3.62201  0.002  0.007653  0.000604  3.833585  0.001  -0.006204  0.00037  3.858659  0.001  -0.22493  0.016893  0.000758  3.816794  0.001
O  O109  1  0.39687460  0.08851842  0.66956646  1  -0.594118  0.058937  2.087202  0.1  -0.570749  0.037109  2.361783  0.065  -0.609816  0.026198  2.349685  0.049  -0.30991  -0.540034  0.047643  2.369523  0.079
O  O110  1  0.60311999  0.91148873  0.33044020  1  -0.594145  0.058936  2.087427  0.1  -0.570721  0.037111  2.361989  0.065  -0.609795  0.026201  2.349903  0.049  -0.309935  -0.539996  0.047625  2.369734  0.079
O  O111  1  0.34850069  0.97039834  0.57585974  1  -0.618814  0.019626  2.139418  0.033  -0.597409  0.014875  2.424087  0.024  -0.631283  0.010722  2.410031  0.019  -0.31943  -0.571309  0.018537  2.433694  0.028
O  O112  1  0.65149854  0.02960629  0.42413767  1  -0.618793  0.019627  2.139506  0.033  -0.597388  0.014876  2.424192  0.024  -0.631256  0.010722  2.410144  0.019  -0.31941  -0.571295  0.018555  2.433798  0.028
O  O113  1  0.83998305  0.09755484  0.55116140  1  -0.589082  0.044412  1.97325  0.074  -0.560194  0.029843  2.22865  0.051  -0.597871  0.020979  2.222778  0.038  -0.305422  -0.529956  0.039395  2.230449  0.065
O  O114  1  0.16003421  0.90244154  0.44883776  1  -0.589127  0.044411  1.973391  0.074  -0.560264  0.02984  2.228821  0.051  -0.597947  0.020975  2.222948  0.038  -0.305419  -0.530016  0.039384  2.230619  0.064
O  O115  1  0.64473139  0.15108982  0.70621454  1  -0.576719  0.062267  1.989388  0.104  -0.561498  0.038284  2.248401  0.066  -0.601607  0.026173  2.244278  0.048  -0.308695  -0.529526  0.049254  2.249533  0.081
O  O116  1  0.35527090  0.84890976  0.29378164  1  -0.576692  0.062256  1.989425  0.104  -0.561447  0.038278  2.248421  0.066  -0.601556  0.026171  2.244298  0.048  -0.308675  -0.529472  0.049227  2.249553  0.081
O  O117  1  0.75830336  0.39533933  0.95273443  1  -0.617495  -0.001402  1.91635  0.0  -0.570538  -0.000717  2.114619  0.0  -0.594013  -0.000946  2.10225  0.0  -0.336433  -0.55412  -0.000297  2.122858  0.001
O  O118  1  0.24169255  0.60465426  0.04726455  1  -0.617438  -0.001409  1.916499  0.0  -0.570505  -0.000717  2.114734  0.0  -0.593981  -0.000944  2.102367  0.0  -0.336472  -0.554069  -0.000333  2.122967  0.001
O  O119  1  0.00137734  0.40371718  0.88322840  1  -0.619697  0.04812  2.11234  0.083  -0.596269  0.029763  2.391528  0.053  -0.635591  0.021895  2.38424  0.041  -0.320915  -0.566394  0.037119  2.395195  0.063
O  O120  1  0.99862036  0.59628492  0.11677628  1  -0.619622  0.048114  2.112481  0.083  -0.596206  0.029758  2.391631  0.053  -0.635527  0.021891  2.384342  0.041  -0.320873  -0.566357  0.037133  2.395312  0.063
O  O121  1  0.77815040  0.49212190  0.10384751  1  -0.79039  0.038428  1.912196  0.063  -0.762628  0.02905  2.107231  0.047  -0.790441  0.021661  2.076522  0.038  -0.564164  -0.740737  0.036094  2.128361  0.055
O  O122  1  0.22182589  0.50787404  0.89616241  1  -0.790295  0.038429  1.912302  0.063  -0.762539  0.029049  2.107239  0.047  -0.790352  0.021659  2.076538  0.038  -0.56413  -0.740721  0.03621  2.128414  0.055
