# generated using pymatgen
data_CdH20C23Br3(N2O3)2
_symmetry_space_group_name_H-M   'P 1'
_cell_length_a   10.08420552
_cell_length_b   11.65563006
_cell_length_c   13.69497999
_cell_angle_alpha   68.58039478
_cell_angle_beta   70.43231981
_cell_angle_gamma   70.37391609
_symmetry_Int_Tables_number   1
_chemical_formula_structural   CdH20C23Br3(N2O3)2
_chemical_formula_sum   'Cd2 H40 C46 Br6 N8 O12'
_cell_volume   1369.46481244
_cell_formula_units_Z   2
loop_
 _symmetry_equiv_pos_site_id
 _symmetry_equiv_pos_as_xyz
  1  'x, y, z'
loop_
 _atom_site_type_symbol
 _atom_site_label
 _atom_site_symmetry_multiplicity
 _atom_site_fract_x
 _atom_site_fract_y
 _atom_site_fract_z
 _atom_site_occupancy
 _atom_site_hle17_bader_spin_density
 _atom_site_hle17_ddec_charge
 _atom_site_hle17_ddec_spin_density
 _atom_site_hle17_ddec_sum_bond_order
 _atom_site_hle17_magmom
 _atom_site_hse06_10hf_bader_spin_density
 _atom_site_hse06_10hf_ddec_charge
 _atom_site_hse06_10hf_ddec_spin_density
 _atom_site_hse06_10hf_ddec_sum_bond_order
 _atom_site_hse06_10hf_magmom
 _atom_site_hse06_bader_spin_density
 _atom_site_hse06_ddec_charge
 _atom_site_hse06_ddec_spin_density
 _atom_site_hse06_ddec_sum_bond_order
 _atom_site_hse06_magmom
 _atom_site_pbe_bader_spin_density
 _atom_site_pbe_cm5_charge
 _atom_site_pbe_ddec_charge
 _atom_site_pbe_ddec_spin_density
 _atom_site_pbe_ddec_sum_bond_order
 _atom_site_pbe_magmom
Cd  Cd0  1  0.41181898  0.69205624  0.57331696  1  0  1.144655  0  1.641546  0  0  0.947704  0  2.090272  0  0  1.004285  0  2.039925  0  0  0.801467  0.907728  0  2.125104  0
Cd  Cd1  1  0.58818368  0.30794492  0.42668387  1  0  1.144657  0  1.641627  0  0  0.947672  0  2.090354  0  0  1.004251  0  2.040009  0  0  0.801454  0.907695  0  2.125184  0
H  H2  1  0.78079259  0.39180931  0.13456606  1  0  0.40069  0  0.898071  0  0  0.369642  0  0.975227  0  0  0.382179  0  0.96102  0  0  0.298232  0.360838  0  0.984094  0
H  H3  1  0.21920831  0.60818705  0.86543452  1  0  0.400613  0  0.898158  0  0  0.369535  0  0.975362  0  0  0.382071  0  0.961171  0  0  0.298195  0.360733  0  0.984223  0
H  H4  1  0.33760166  0.59268263  0.42085855  1  0  0.299634  0  0.939093  0  0  0.280931  0  1.00168  0  0  0.289191  0  0.995122  0  0  0.315209  0.275009  0  1.00654  0
H  H5  1  0.66239946  0.40731659  0.57914180  1  0  0.299649  0  0.93909  0  0  0.280946  0  1.001662  0  0  0.289214  0  0.995097  0  0  0.315201  0.275023  0  1.006523  0
H  H6  1  0.76036825  0.15184949  0.24612008  1  0  0.292103  0  0.90697  0  0  0.266143  0  0.985881  0  0  0.273951  0  0.978956  0  0  0.319435  0.260537  0  0.990941  0
H  H7  1  0.23962971  0.84814968  0.75387961  1  0  0.29213  0  0.906878  0  0  0.266175  0  0.985788  0  0  0.273983  0  0.978864  0  0  0.319465  0.260571  0  0.990846  0
H  H8  1  0.13323147  0.52793087  0.67990573  1  0  0.10909  0  0.981636  0  0  0.114579  0  1.051223  0  0  0.117815  0  1.050332  0  0  0.104359  0.112134  0  1.052138  0
H  H9  1  0.86676365  0.47208165  0.32009484  1  0  0.109079  0  0.981635  0  0  0.114569  0  1.051233  0  0  0.117817  0  1.050317  0  0  0.104341  0.112124  0  1.052148  0
H  H10  1  0.50914927  0.36393432  0.89289841  1  0  0.113684  0  0.949484  0  0  0.121217  0  1.014926  0  0  0.124748  0  1.012771  0  0  0.101543  0.119357  0  1.01544  0
H  H11  1  0.49084982  0.63606108  0.10710585  1  0  0.113669  0  0.94956  0  0  0.121214  0  1.014978  0  0  0.124743  0  1.012826  0  0  0.101541  0.119335  0  1.01551  0
H  H12  1  0.77579020  0.74026948  0.58476075  1  0  0.093642  0  0.937796  0  0  0.108565  0  1.001621  0  0  0.109891  0  1.000501  0  0  0.097794  0.107459  0  1.002796  0
H  H13  1  0.22421092  0.25972975  0.41524034  1  0  0.093626  0  0.937809  0  0  0.108542  0  1.001638  0  0  0.109865  0  1.000525  0  0  0.097782  0.107436  0  1.002813  0
H  H14  1  0.81305590  0.70030016  0.46514937  1  0  0.089687  0  0.931841  0  0  0.105887  0  0.992565  0  0  0.106992  0  0.992034  0  0  0.096823  0.105296  0  0.992701  0
H  H15  1  0.18694571  0.29970097  0.53485026  1  0  0.089672  0  0.931835  0  0  0.105847  0  0.992588  0  0  0.106951  0  0.99206  0  0  0.096813  0.105255  0  0.992725  0
H  H16  1  0.06264226  0.79865715  0.69088482  1  0  0.124093  0  0.953575  0  0  0.140402  0  1.019765  0  0  0.142649  0  1.018657  0  0  0.093863  0.138866  0  1.020487  0
H  H17  1  0.93735731  0.20134014  0.30911580  1  0  0.124104  0  0.953573  0  0  0.140424  0  1.01975  0  0  0.142671  0  1.018642  0  0  0.093882  0.138888  0  1.020469  0
H  H18  1  0.89127938  0.83031397  0.66522564  1  0  0.112219  0  0.962865  0  0  0.133462  0  1.02415  0  0  0.13492  0  1.023659  0  0  0.090591  0.132496  0  1.024393  0
H  H19  1  0.10872075  0.16968142  0.33477544  1  0  0.112257  0  0.962843  0  0  0.133502  0  1.024123  0  0  0.134959  0  1.023633  0  0  0.090602  0.132536  0  1.024366  0
H  H20  1  0.00801846  0.93345780  0.58565607  1  0  0.119562  0  0.942094  0  0  0.14026  0  1.00246  0  0  0.141807  0  1.002768  0  0  0.094341  0.139162  0  1.002168  0
H  H21  1  0.99198244  0.06653855  0.41434525  1  0  0.119553  0  0.942121  0  0  0.140276  0  1.002458  0  0  0.141824  0  1.002764  0  0  0.094336  0.139176  0  1.002167  0
H  H22  1  0.59142996  0.89591566  0.65007100  1  0  0.11827  0  0.96792  0  0  0.131825  0  1.041427  0  0  0.133912  0  1.04055  0  0  0.085412  0.130254  0  1.042137  0
H  H23  1  0.40857066  0.10408163  0.34992789  1  0  0.118242  0  0.967954  0  0  0.131801  0  1.041453  0  0  0.133888  0  1.040574  0  0  0.085385  0.13023  0  1.042161  0
H  H24  1  0.68533455  0.00385449  0.64377851  1  0  0.108939  0  0.946844  0  0  0.127708  0  1.010974  0  0  0.129452  0  1.010218  0  0  0.085269  0.126541  0  1.011452  0
H  H25  1  0.31466397  0.99614278  0.35622237  1  0  0.108937  0  0.94683  0  0  0.127699  0  1.010977  0  0  0.129445  0  1.010218  0  0  0.085252  0.126531  0  1.011457  0
H  H26  1  0.51373974  0.06209925  0.61208933  1  0  0.122109  0  0.957955  0  0  0.138525  0  1.026734  0  0  0.140523  0  1.026294  0  0  0.090423  0.137103  0  1.027169  0
H  H27  1  0.48625802  0.93789708  0.38791423  1  0  0.122118  0  0.957955  0  0  0.138566  0  1.026688  0  0  0.140563  0  1.026248  0  0  0.090439  0.137142  0  1.027124  0
H  H28  1  0.20653036  0.16205330  0.00254212  1  0  0.120915  0  0.931272  0  0  0.129474  0  0.991155  0  0  0.133748  0  0.987908  0  0  0.110837  0.126329  0  0.993652  0
H  H29  1  0.79347040  0.83795063  0.99744954  1  0  0.121009  0  0.931307  0  0  0.129546  0  0.991204  0  0  0.133823  0  0.987953  0  0  0.110864  0.126398  0  0.993704  0
H  H30  1  0.12413107  0.64530747  0.27245765  1  0  0.116017  0  0.942047  0  0  0.134747  0  1.004416  0  0  0.136279  0  1.00413  0  0  0.092203  0.133725  0  1.004552  0
H  H31  1  0.87586773  0.35468886  0.72754419  1  0  0.11598  0  0.942062  0  0  0.134711  0  1.004434  0  0  0.136244  0  1.004148  0  0  0.092196  0.133691  0  1.004571  0
H  H32  1  0.99330004  0.56984981  0.37540015  1  0  0.113865  0  0.971118  0  0  0.13274  0  1.037108  0  0  0.133608  0  1.038126  0  0  0.09126  0.132136  0  1.036358  0
H  H33  1  0.00670059  0.43014752  0.62460385  1  0  0.113818  0  0.971172  0  0  0.132739  0  1.037096  0  0  0.133605  0  1.038125  0  0  0.09127  0.132135  0  1.036348  0
H  H34  1  0.18178876  0.49467788  0.36025725  1  0  0.134466  0  0.965935  0  0  0.15093  0  1.031895  0  0  0.153561  0  1.030506  0  0  0.095275  0.149075  0  1.032862  0
H  H35  1  0.81821109  0.50531848  0.63974578  1  0  0.134408  0  0.965859  0  0  0.15086  0  1.031853  0  0  0.153492  0  1.030462  0  0  0.095251  0.149006  0  1.032819  0
H  H36  1  0.02701048  0.87939828  0.23980360  1  0  0.120608  0  0.92789  0  0  0.142674  0  0.982684  0  0  0.144323  0  0.982207  0  0  0.097764  0.141502  0  0.983054  0
H  H37  1  0.97298882  0.12059997  0.76019752  1  0  0.120642  0  0.92783  0  0  0.142703  0  0.982632  0  0  0.144351  0  0.982156  0  0  0.097786  0.141532  0  0.983001  0
H  H38  1  0.88458315  0.81857946  0.24507633  1  0  0.119156  0  0.95384  0  0  0.137791  0  1.01791  0  0  0.138076  0  1.020314  0  0  0.093318  0.137624  0  1.016184  0
H  H39  1  0.11541538  0.18141782  0.75492600  1  0  0.119128  0  0.95387  0  0  0.137769  0  1.017944  0  0  0.138053  0  1.020349  0  0  0.093311  0.137602  0  1.01622  0
H  H40  1  0.89870778  0.97490413  0.16177581  1  0  0.134409  0  0.936681  0  0  0.153956  0  0.994066  0  0  0.156329  0  0.992309  0  0  0.099868  0.152232  0  0.995362  0
H  H41  1  0.10129074  0.02509314  0.83822507  1  0  0.134435  0  0.936725  0  0  0.15398  0  0.994109  0  0  0.156353  0  0.992351  0  0  0.099894  0.152252  0  0.995409  0
C  C42  1  0.48219267  0.62975269  0.95398799  1  0  0.071642  0  3.713415  0  0  0.075966  0  3.987836  0  0  0.079495  0  4.008174  0  0  -0.019763  0.073293  0  3.974862  0
C  C43  1  0.51780670  0.37024174  0.04601504  1  0  0.071618  0  3.713582  0  0  0.076027  0  3.987858  0  0  0.079556  0  4.008202  0  0  -0.019757  0.073351  0  3.9749  0
C  C44  1  0.68808634  0.99498070  0.48917050  1  0  0.222405  0  3.756988  0  0  0.218085  0  4.020386  0  0  0.228081  0  4.040772  0  0  0.09432  0.211682  0  4.006177  0
C  C45  1  0.31191268  0.00501850  0.51083111  1  0  0.22234  0  3.757142  0  0  0.218038  0  4.020516  0  0  0.228034  0  4.040903  0  0  0.094294  0.211628  0  4.006316  0
C  C46  1  0.47026919  0.60989777  0.77777555  1  0  0.663309  0  3.884152  0  0  0.606883  0  4.184574  0  0  0.640942  0  4.176732  0  0  0.206664  0.583742  0  4.189135  0
C  C47  1  0.52972592  0.39010045  0.22222953  1  0  0.663489  0  3.883927  0  0  0.606923  0  4.184539  0  0  0.640987  0  4.176692  0  0  0.206658  0.583783  0  4.189099  0
C  C48  1  0.28364022  0.35799783  0.74568179  1  0  -0.056047  0  3.720844  0  0  -0.043199  0  3.963742  0  0  -0.04543  0  3.98066  0  0  -0.011313  -0.041916  0  3.952626  0
C  C49  1  0.71635733  0.64200990  0.25431311  1  0  -0.056164  0  3.720853  0  0  -0.043299  0  3.96374  0  0  -0.045524  0  3.980659  0  0  -0.011283  -0.042016  0  3.95262  0
C  C50  1  0.48808170  0.55489873  0.89199195  1  0  -0.077182  0  3.748554  0  0  -0.063395  0  3.992794  0  0  -0.067025  0  4.011037  0  0  -0.017994  -0.061315  0  3.98146  0
C  C51  1  0.51191397  0.44509757  0.10801214  1  0  -0.077306  0  3.748625  0  0  -0.063503  0  3.992864  0  0  -0.067139  0  4.011111  0  0  -0.017998  -0.061424  0  3.981527  0
C  C52  1  0.78270085  0.89762938  0.44272314  1  0  -0.13248  0  3.709441  0  0  -0.121807  0  3.963302  0  0  -0.131514  0  3.987659  0  0  -0.034272  -0.115684  0  3.947054  0
C  C53  1  0.21730104  0.10237081  0.55727817  1  0  -0.132448  0  3.709481  0  0  -0.121774  0  3.963262  0  0  -0.13148  0  3.987619  0  0  -0.034249  -0.115646  0  3.947015  0
C  C54  1  0.15004904  0.44716940  0.75035029  1  0  -0.127977  0  3.724746  0  0  -0.155973  0  3.978401  0  0  -0.157969  0  3.995652  0  0  -0.094425  -0.154819  0  3.967343  0
C  C55  1  0.84994586  0.55284023  0.24964760  1  0  -0.127945  0  3.724858  0  0  -0.155951  0  3.978517  0  0  -0.157949  0  3.995762  0  0  -0.094419  -0.154795  0  3.967455  0
C  C56  1  0.99703384  0.72285466  0.49394527  1  0  -0.139325  0  3.727594  0  0  -0.129237  0  3.984685  0  0  -0.139367  0  4.010274  0  0  -0.034411  -0.122473  0  3.967101  0
C  C57  1  0.00296993  0.27714269  0.50605574  1  0  -0.139356  0  3.727631  0  0  -0.129279  0  3.98471  0  0  -0.139407  0  4.010301  0  0  -0.034429  -0.12252  0  3.967123  0
C  C58  1  0.03844509  0.43533650  0.84426274  1  0  0.101063  0  3.661727  0  0  0.105419  0  3.929657  0  0  0.111536  0  3.94849  0  0  -0.003666  0.101227  0  3.917459  0
C  C59  1  0.96155198  0.56466935  0.15573726  1  0  0.101079  0  3.661714  0  0  0.105423  0  3.929649  0  0  0.111559  0  3.948501  0  0  -0.003631  0.10123  0  3.917452  0
C  C60  1  0.40120355  0.37443403  0.64224481  1  0  0.681248  0  3.900837  0  0  0.620114  0  4.213822  0  0  0.655656  0  4.203495  0  0  0.212977  0.595937  0  4.220033  0
C  C61  1  0.59879450  0.62557564  0.35775155  1  0  0.681514  0  3.900478  0  0  0.62038  0  4.213436  0  0  0.655913  0  4.203116  0  0  0.213069  0.596204  0  4.21965  0
C  C62  1  0.50577274  0.42382328  0.93935862  1  0  -0.106116  0  3.716234  0  0  -0.135729  0  3.967335  0  0  -0.1366  0  3.985267  0  0  -0.09006  -0.135666  0  3.955707  0
C  C63  1  0.49422397  0.57617303  0.06064521  1  0  -0.10606  0  3.716286  0  0  -0.135641  0  3.967343  0  0  -0.136511  0  3.98528  0  0  -0.090011  -0.135557  0  3.955712  0
C  C64  1  0.06887676  0.75499170  0.54950546  1  0  0.214357  0  3.765338  0  0  0.204665  0  4.041436  0  0  0.215236  0  4.059924  0  0  0.091036  0.19766  0  4.028566  0
C  C65  1  0.93112386  0.24500561  0.45049562  1  0  0.214337  0  3.76542  0  0  0.2047  0  4.04146  0  0  0.215273  0  4.059948  0  0  0.091023  0.197694  0  4.028591  0
C  C66  1  0.81850570  0.95641845  0.33129599  1  0  0.231481  0  3.705237  0  0  0.217333  0  3.974779  0  0  0.227784  0  3.992319  0  0  0.10556  0.210563  0  3.962752  0
C  C67  1  0.18149570  0.04357982  0.66870459  1  0  0.231421  0  3.705234  0  0  0.217347  0  3.974666  0  0  0.227799  0  3.992203  0  0  0.105567  0.210576  0  3.962639  0
C  C68  1  0.10614073  0.64750087  0.43247774  1  0  0.225649  0  3.731871  0  0  0.21446  0  3.997456  0  0  0.22439  0  4.015948  0  0  0.099487  0.208147  0  3.984487  0
C  C69  1  0.89386094  0.35249647  0.56752454  1  0  0.225711  0  3.731875  0  0  0.21448  0  3.997494  0  0  0.224414  0  4.015997  0  0  0.099482  0.208184  0  3.984502  0
C  C70  1  0.05728973  0.33149982  0.93615892  1  0  -0.088377  0  3.724805  0  0  -0.073587  0  3.96329  0  0  -0.080209  0  3.983297  0  0  -0.016  -0.069729  0  3.950414  0
C  C71  1  0.94271236  0.66850322  0.06383853  1  0  -0.088416  0  3.72484  0  0  -0.073614  0  3.963321  0  0  -0.080305  0  3.983423  0  0  -0.016025  -0.069758  0  3.950445  0
C  C72  1  0.83727542  0.76047039  0.49974096  1  0  -0.116379  0  3.757328  0  0  -0.157935  0  3.995473  0  0  -0.156332  0  4.009266  0  0  -0.152081  -0.159155  0  3.986479  0
C  C73  1  0.16272542  0.23952978  0.50025917  1  0  -0.11634  0  3.75736  0  0  -0.157891  0  3.995517  0  0  -0.156292  0  4.00932  0  0  -0.152065  -0.159112  0  3.986524  0
C  C74  1  0.00490315  0.83337290  0.62666817  1  0  -0.353172  0  3.724922  0  0  -0.432702  0  3.9673  0  0  -0.435774  0  3.973912  0  0  -0.240847  -0.43032  0  3.962388  0
C  C75  1  0.99509643  0.16662439  0.37333318  1  0  -0.353204  0  3.724947  0  0  -0.43278  0  3.967289  0  0  -0.435852  0  3.973895  0  0  -0.240851  -0.430395  0  3.962378  0
C  C76  1  0.61589965  0.98866043  0.60469005  1  0  -0.366179  0  3.745572  0  0  -0.447041  0  3.992351  0  0  -0.450612  0  3.999416  0  0  -0.247784  -0.444343  0  3.987214  0
C  C77  1  0.38409964  0.01133781  0.39531034  1  0  -0.366148  0  3.745617  0  0  -0.447032  0  3.992367  0  0  -0.450606  0  3.99943  0  0  -0.247757  -0.444331  0  3.987235  0
C  C78  1  0.19183885  0.24220828  0.93119752  1  0  -0.102313  0  3.732722  0  0  -0.135835  0  3.986522  0  0  -0.135665  0  4.004912  0  0  -0.082141  -0.135953  0  3.974484  0
C  C79  1  0.80816295  0.75779568  0.06879606  1  0  -0.102427  0  3.732813  0  0  -0.135932  0  3.986593  0  0  -0.135743  0  4.005004  0  0  -0.08216  -0.136056  0  3.974573  0
C  C80  1  0.30354230  0.25642270  0.83814842  1  0  0.06754  0  3.70258  0  0  0.074609  0  3.97376  0  0  0.076696  0  3.995253  0  0  -0.016461  0.073043  0  3.959469  0
C  C81  1  0.69645552  0.74358405  0.16184308  1  0  0.067565  0  3.702563  0  0  0.074627  0  3.973751  0  0  0.076712  0  3.995243  0  0  -0.016543  0.07306  0  3.959453  0
C  C82  1  0.94562200  0.30786289  0.04104421  1  0  0.658391  0  3.840919  0  0  0.608385  0  4.143013  0  0  0.642126  0  4.132463  0  0  0.223487  0.585515  0  4.149851  0
C  C83  1  0.05437960  0.69213824  0.95895469  1  0  0.658477  0  3.840848  0  0  0.608453  0  4.14295  0  0  0.642214  0  4.132403  0  0  0.22347  0.585585  0  4.149789  0
C  C84  1  0.10118631  0.58584229  0.35668596  1  0  -0.370817  0  3.747121  0  0  -0.450105  0  3.989198  0  0  -0.453589  0  3.996783  0  0  -0.243488  -0.44751  0  3.983693  0
C  C85  1  0.89881459  0.41415407  0.64331535  1  0  -0.370663  0  3.747067  0  0  -0.449973  0  3.989151  0  0  -0.453459  0  3.996734  0  0  -0.243451  -0.447384  0  3.98364  0
C  C86  1  0.91181193  0.90485722  0.23934613  1  0  -0.348065  0  3.708757  0  0  -0.421754  0  3.94078  0  0  -0.424621  0  3.948031  0  0  -0.231339  -0.419594  0  3.93562  0
C  C87  1  0.08818632  0.09514103  0.76065743  1  0  -0.348094  0  3.708693  0  0  -0.421817  0  3.940722  0  0  -0.424681  0  3.947972  0  0  -0.231404  -0.419653  0  3.935567  0
Br  Br88  1  0.86265078  0.56324055  0.83611166  1  0  -0.007707  0  1.339321  0  0  -0.00149  0  1.606214  0  0  -0.005931  0  1.600479  0  0  0.078848  0.001569  0  1.610872  0
Br  Br89  1  0.13734552  0.43676437  0.16389393  1  0  -0.007701  0  1.339324  0  0  -0.001475  0  1.606215  0  0  -0.005926  0  1.600486  0  0  0.07886  0.001583  0  1.610871  0
Br  Br90  1  0.45960085  0.80859055  0.89315433  1  0  -0.066393  0  1.296272  0  0  -0.062147  0  1.545951  0  0  -0.064924  0  1.537772  0  0  0.038263  -0.059181  0  1.55096  0
Br  Br91  1  0.54041348  0.19140316  0.10684887  1  0  -0.066371  0  1.296309  0  0  -0.062154  0  1.545966  0  0  -0.064932  0  1.537786  0  0  0.038266  -0.059182  0  1.550977  0
Br  Br92  1  0.48700857  0.13651194  0.83882390  1  0  -0.060612  0  1.25959  0  0  -0.050943  0  1.497095  0  0  -0.054259  0  1.488568  0  0  0.042832  -0.04914  0  1.502294  0
Br  Br93  1  0.51299629  0.86349581  0.16115822  1  0  -0.060566  0  1.259703  0  0  -0.050904  0  1.497227  0  0  -0.054218  0  1.4887  0  0  0.042878  -0.0491  0  1.502422  0
N  N94  1  0.66797156  0.10610679  0.41102853  1  0  -0.335837  0  3.155272  0  0  -0.281494  0  3.44024  0  0  -0.300392  0  3.459422  0  0  -0.272227  -0.268642  0  3.427163  0
N  N95  1  0.33202613  0.89389334  0.58897166  1  0  -0.335883  0  3.15534  0  0  -0.281557  0  3.440313  0  0  -0.300453  0  3.459493  0  0  -0.272248  -0.268701  0  3.427237  0
N  N96  1  0.21271112  0.70153746  0.52356034  1  0  -0.346492  0  3.166184  0  0  -0.291833  0  3.456742  0  0  -0.310575  0  3.474159  0  0  -0.273256  -0.279093  0  3.444658  0
N  N97  1  0.78729160  0.29845988  0.47644094  1  0  -0.346406  0  3.166282  0  0  -0.291799  0  3.456831  0  0  -0.310532  0  3.474255  0  0  -0.27326  -0.279056  0  3.444745  0
N  N98  1  0.23224646  0.63694885  0.45323417  1  0  -0.209298  0  3.484625  0  0  -0.160715  0  3.723504  0  0  -0.172817  0  3.74146  0  0  -0.294966  -0.152761  0  3.71134  0
N  N99  1  0.76775598  0.36304944  0.54676615  1  0  -0.209444  0  3.484666  0  0  -0.160793  0  3.723476  0  0  -0.172921  0  3.741454  0  0  -0.294954  -0.152844  0  3.711306  0
N  N100  1  0.74756589  0.08027253  0.31659187  1  0  -0.208881  0  3.527925  0  0  -0.159892  0  3.774516  0  0  -0.171884  0  3.793782  0  0  -0.291051  -0.152043  0  3.761748  0
N  N101  1  0.25243208  0.91972664  0.68340855  1  0  -0.208787  0  3.527842  0  0  -0.159819  0  3.774404  0  0  -0.171811  0  3.793667  0  0  -0.291029  -0.151971  0  3.761637  0
O  O102  1  0.34042961  0.63464490  0.76648438  1  0  -0.64272  0  2.060707  0  0  -0.567453  0  2.298383  0  0  -0.59749  0  2.288395  0  0  -0.313674  -0.546041  0  2.304217  0
O  O103  1  0.65956793  0.36534855  0.23351868  1  0  -0.642861  0  2.060672  0  0  -0.567503  0  2.29832  0  0  -0.597541  0  2.288324  0  0  -0.313638  -0.546088  0  2.304155  0
O  O104  1  0.41305336  0.30982452  0.58096700  1  0  -0.617853  0  1.995696  0  0  -0.546134  0  2.250682  0  0  -0.57605  0  2.238682  0  0  -0.311879  -0.525207  0  2.258046  0
O  O105  1  0.58694762  0.69018233  0.41903098  1  0  -0.617875  0  1.995593  0  0  -0.546198  0  2.250621  0  0  -0.576111  0  2.238621  0  0  -0.311868  -0.525264  0  2.25797  0
O  O106  1  0.57647197  0.62717359  0.69858443  1  0  -0.590026  0  1.937341  0  0  -0.534793  0  2.173164  0  0  -0.561107  0  2.164425  0  0  -0.301472  -0.516359  0  2.179053  0
O  O107  1  0.42352251  0.37283036  0.30142192  1  0  -0.590025  0  1.93726  0  0  -0.534764  0  2.173177  0  0  -0.561057  0  2.164392  0  0  -0.301491  -0.516328  0  2.179068  0
O  O108  1  0.47710883  0.45036614  0.62487269  1  0  -0.646405  0  2.039104  0  0  -0.587764  0  2.290758  0  0  -0.61442  0  2.278896  0  0  -0.317673  -0.568817  0  2.298253  0
O  O109  1  0.52288949  0.54964256  0.37512318  1  0  -0.646646  0  2.038951  0  0  -0.587969  0  2.290573  0  0  -0.614625  0  2.27872  0  0  -0.317787  -0.569024  0  2.29807  0
O  O110  1  0.86021143  0.41316411  0.06451929  1  0  -0.557193  0  2.181647  0  0  -0.509743  0  2.413718  0  0  -0.533794  0  2.402197  0  0  -0.332099  -0.493075  0  2.420908  0
O  O111  1  0.13979024  0.58683321  0.93548153  1  0  -0.557188  0  2.181665  0  0  -0.509678  0  2.413729  0  0  -0.533729  0  2.402219  0  0  -0.332054  -0.492994  0  2.420874  0
O  O112  1  0.93843013  0.19923112  0.09944999  1  0  -0.570965  0  1.903791  0  0  -0.532348  0  2.116649  0  0  -0.5518  0  2.107089  0  0  -0.304442  -0.518927  0  2.122985  0
O  O113  1  0.06157594  0.80076909  0.90054444  1  0  -0.571034  0  1.903768  0  0  -0.532407  0  2.116621  0  0  -0.551855  0  2.10705  0  0  -0.304443  -0.518985  0  2.122954  0
