# generated using pymatgen
data_CuH15C13N3O5
_symmetry_space_group_name_H-M   'P 1'
_cell_length_a   8.00404315
_cell_length_b   9.07171288
_cell_length_c   10.36315994
_cell_angle_alpha   105.02878506
_cell_angle_beta   89.99976255
_cell_angle_gamma   90.00033554
_symmetry_Int_Tables_number   1
_chemical_formula_structural   CuH15C13N3O5
_chemical_formula_sum   'Cu2 H30 C26 N6 O10'
_cell_volume   726.73516505
_cell_formula_units_Z   2
loop_
 _symmetry_equiv_pos_site_id
 _symmetry_equiv_pos_as_xyz
  1  'x, y, z'
loop_
 _atom_site_type_symbol
 _atom_site_label
 _atom_site_symmetry_multiplicity
 _atom_site_fract_x
 _atom_site_fract_y
 _atom_site_fract_z
 _atom_site_occupancy
 _atom_site_hle17_ddec_charge
 _atom_site_hle17_ddec_spin_density
 _atom_site_hle17_ddec_sum_bond_order
 _atom_site_hle17_magmom
 _atom_site_hse06_10hf_ddec_charge
 _atom_site_hse06_10hf_ddec_spin_density
 _atom_site_hse06_10hf_ddec_sum_bond_order
 _atom_site_hse06_10hf_magmom
 _atom_site_hse06_ddec_charge
 _atom_site_hse06_ddec_spin_density
 _atom_site_hse06_ddec_sum_bond_order
 _atom_site_hse06_magmom
 _atom_site_pbe_cm5_charge
 _atom_site_pbe_ddec_charge
 _atom_site_pbe_ddec_spin_density
 _atom_site_pbe_ddec_sum_bond_order
 _atom_site_pbe_magmom
Cu  Cu0  1  0.48127215  0.38961747  0.32982218  1  0.850333  -0.732663  1.815242  -0.502  0.828398  -0.807856  2.199108  -0.615  0.916231  -0.886  2.133872  -0.701  0.741011  0.778432  -0.753362  2.242291  -0.561
Cu  Cu1  1  0.51872558  0.38962213  0.82982032  1  0.850438  0.732686  1.815234  0.502  0.828505  0.807845  2.199082  0.615  0.916326  0.885997  2.133856  0.701  0.741047  0.778511  0.753361  2.242282  0.561
H  H2  1  0.32219070  0.35790326  0.05650519  1  0.410315  -0.000122  0.90106  0.0  0.380043  -0.000147  0.968065  0.0  0.392172  -0.00015  0.949945  0.0  0.275376  0.37149  -0.00012  0.980949  0.0
H  H3  1  0.67781333  0.35789827  0.55651120  1  0.4103  0.000121  0.901077  0.0  0.38002  0.000147  0.968096  0.0  0.392148  0.00015  0.949975  0.0  0.275369  0.371468  0.00012  0.980978  0.0
H  H4  1  0.27004460  0.48118504  0.19116884  1  0.396317  8.9e-05  0.926874  0.0  0.364778  9.3e-05  0.994712  0.0  0.377161  0.000103  0.976824  0.0  0.271704  0.356098  6.5e-05  1.007297  0.0
H  H5  1  0.72996326  0.48118828  0.69117564  1  0.396208  -8.8e-05  0.927025  0.0  0.364676  -9.3e-05  0.994852  0.0  0.37706  -0.000102  0.976965  0.0  0.27167  0.355997  -6.5e-05  1.007435  0.0
H  H6  1  0.66763827  0.21547166  0.01012774  1  0.105917  0.000833  0.955957  0.002  0.11154  0.000591  1.023293  0.001  0.114926  0.000453  1.019812  0.001  0.122881  0.108733  0.000601  1.02608  0.002
H  H7  1  0.33235633  0.21545838  0.51011841  1  0.106083  -0.000832  0.955807  -0.002  0.111611  -0.000592  1.023259  -0.001  0.115024  -0.000453  1.019718  -0.001  0.122912  0.108742  -0.000601  1.026125  -0.002
H  H8  1  0.75381069  0.94333814  0.98543593  1  0.107229  0.000543  0.939301  0.0  0.120808  0.000585  0.991451  0.001  0.123439  0.000428  0.991582  0.0  0.113096  0.119229  0.000629  0.990935  0.001
H  H9  1  0.24619487  0.94332563  0.48542994  1  0.107281  -0.000543  0.939289  0.0  0.120854  -0.000585  0.991441  -0.001  0.123485  -0.000428  0.991573  0.0  0.113088  0.119266  -0.000629  0.990927  -0.001
H  H10  1  0.75579346  0.76134359  0.75890204  1  0.120863  0.000285  0.962295  0.001  0.130788  -3.3e-05  1.021396  0.0  0.133676  -4.7e-05  1.019645  0.0  0.113653  0.128651  2.3e-05  1.022909  0.0
H  H11  1  0.24421090  0.76133908  0.25889598  1  0.120896  -0.000282  0.96235  -0.001  0.130807  3.3e-05  1.021477  0.0  0.133694  4.7e-05  1.019725  0.0  0.113667  0.128689  -2.3e-05  1.022966  0.0
H  H12  1  0.57189472  0.13065527  0.60421485  1  0.091934  0.001222  0.956498  0.002  0.09671  0.000907  1.028015  0.001  0.098108  0.000677  1.026771  0.001  0.122677  0.095074  0.001085  1.029967  0.002
H  H13  1  0.42810628  0.13064697  0.10421314  1  0.09192  -0.00122  0.956558  -0.002  0.09669  -0.000906  1.028083  -0.001  0.098087  -0.000677  1.02684  -0.001  0.122662  0.095061  -0.001085  1.030042  -0.002
H  H14  1  0.53085976  0.64240156  0.57228306  1  0.099005  -0.001129  0.972433  -0.002  0.103257  -0.00082  1.044344  -0.001  0.105464  -0.000587  1.040854  -0.001  0.122997  0.101311  -0.001068  1.047234  -0.002
H  H15  1  0.46914234  0.64239583  0.07227023  1  0.098984  0.001128  0.972433  0.002  0.103258  0.000819  1.044289  0.001  0.105469  0.000587  1.040795  0.001  0.123012  0.101307  0.001068  1.047178  0.002
H  H16  1  0.78111860  0.99173392  0.42812318  1  0.096527  -0.000485  0.957275  -0.001  0.103893  -9e-05  1.020326  0.0  0.106998  -3.1e-05  1.017093  0.0  0.118088  0.101356  -0.00017  1.023264  0.0
H  H17  1  0.21888386  0.99173382  0.92811729  1  0.096583  0.000485  0.957224  0.001  0.10394  9e-05  1.020275  0.0  0.107044  3.2e-05  1.017042  0.0  0.118118  0.101404  0.00017  1.023208  0.0
H  H18  1  0.67454923  0.56363417  0.17643979  1  0.090771  -5.9e-05  0.950928  -0.001  0.09616  -8e-06  1.016997  -0.001  0.098922  -7.2e-05  1.013555  -0.001  0.133964  0.093788  0.000128  1.019779  -0.001
H  H19  1  0.32544677  0.56363115  0.67643095  1  0.090844  5.8e-05  0.951032  0.001  0.096224  8e-06  1.017119  0.001  0.098989  7.2e-05  1.013674  0.001  0.13398  0.093851  -0.000128  1.019902  0.001
H  H20  1  0.90866516  0.59534110  0.48251703  1  0.124266  -0.001272  0.976736  -0.002  0.139663  -0.001054  1.040302  -0.001  0.140198  -0.000699  1.042751  -0.001  0.08698  0.139493  -0.001389  1.038255  -0.002
H  H21  1  0.09133309  0.59534257  0.98252830  1  0.124272  0.00127  0.9768  0.002  0.139711  0.001054  1.040302  0.001  0.140247  0.000699  1.042753  0.001  0.086987  0.13954  0.001389  1.038255  0.002
H  H22  1  0.06535879  0.67405433  0.60404620  1  0.134803  0.000568  0.962291  0.001  0.147259  0.000195  1.034575  0.0  0.150519  0.000159  1.032318  0.0  0.094022  0.145179  0.000253  1.035765  0.0
H  H23  1  0.93462961  0.67405170  0.10405099  1  0.134795  -0.000564  0.962287  -0.001  0.147249  -0.000195  1.034572  0.0  0.150505  -0.000159  1.032319  0.0  0.093977  0.145167  -0.000253  1.035763  0.0
H  H24  1  0.01133053  0.48010278  0.57510493  1  0.149983  0.000488  0.935859  0.001  0.169606  0.000107  0.989998  0.0  0.172441  8.2e-05  0.988687  0.0  0.100741  0.167445  0.000124  0.991188  0.0
H  H25  1  0.98865673  0.48010041  0.07510767  1  0.150066  -0.000486  0.935807  -0.001  0.169641  -0.000108  0.99  0.0  0.172478  -8.2e-05  0.988691  0.0  0.100743  0.167478  -0.000124  0.991193  0.0
H  H26  1  0.91285323  0.03346394  0.18947581  1  0.129367  0.00022  0.94427  0.0  0.145205  4e-06  1.010897  0.0  0.147618  3.8e-05  1.009749  0.0  0.095296  0.143948  -9.6e-05  1.010925  0.0
H  H27  1  0.08714665  0.03346667  0.68947098  1  0.129357  -0.000214  0.944338  0.0  0.145188  -4e-06  1.010976  0.0  0.147602  -3.9e-05  1.00983  0.0  0.095295  0.143932  9.6e-05  1.011001  0.0
H  H28  1  0.04775185  0.16695667  0.29463767  1  0.131617  -0.000667  0.971111  -0.001  0.148261  -0.000627  1.032267  -0.001  0.149053  -0.000397  1.034639  0.0  0.09199  0.147808  -0.000874  1.030488  -0.001
H  H29  1  0.95224584  0.16695644  0.79463332  1  0.131595  0.000673  0.971078  0.001  0.148228  0.000627  1.032258  0.001  0.149023  0.000397  1.034634  0.0  0.091974  0.147775  0.000874  1.030475  0.001
H  H30  1  0.97254501  0.20199787  0.14180851  1  0.142639  0.000358  0.934298  0.0  0.160884  -2.2e-05  0.992146  0.0  0.164026  -1e-06  0.990182  0.0  0.09691  0.158445  -2.7e-05  0.993876  0.0
H  H31  1  0.02745501  0.20200032  0.64180573  1  0.142677  -0.000348  0.934272  0.0  0.160916  2.2e-05  0.992115  0.0  0.164059  1e-06  0.990151  0.0  0.09693  0.158479  2.7e-05  0.993847  0.0
C  C32  1  0.66467322  0.13114259  0.91339907  1  0.116529  -0.00958  3.668114  -0.01  0.084442  -0.001241  3.928041  -0.002  0.093819  -0.00221  3.944211  -0.003  0.051182  0.078475  -0.000474  3.917928  -0.001
C  C33  1  0.33532607  0.13112820  0.41339236  1  0.116294  0.009578  3.668171  0.01  0.084334  0.001241  3.928051  0.002  0.093697  0.002211  3.944201  0.003  0.051153  0.07841  0.000473  3.917965  0.001
C  C34  1  0.71388873  0.98023316  0.89825745  1  -0.108772  0.011817  3.73161  0.012  -0.119405  0.004155  3.981859  0.005  -0.127088  0.003923  4.003437  0.004  -0.077706  -0.114543  0.00423  3.967397  0.005
C  C35  1  0.28610382  0.98022199  0.39824971  1  -0.10877  -0.011821  3.731616  -0.012  -0.119396  -0.004155  3.981797  -0.005  -0.127083  -0.003925  4.003384  -0.004  -0.077655  -0.114518  -0.00423  3.967318  -0.005
C  C36  1  0.71341523  0.87873486  0.77166429  1  -0.047096  -0.011274  3.653448  -0.01  -0.072892  -0.003145  3.897301  -0.003  -0.069404  -0.003442  3.915311  -0.003  -0.060683  -0.07556  -0.003057  3.885536  -0.003
C  C37  1  0.28658984  0.87872485  0.27165490  1  -0.04718  0.011272  3.65344  0.01  -0.072983  0.003145  3.897358  0.003  -0.069499  0.003444  3.915373  0.003  -0.060737  -0.075662  0.003057  3.885561  0.003
C  C38  1  0.66409439  0.93186642  0.66172584  1  0.016004  0.010787  3.780374  0.012  0.033777  0.00353  4.011427  0.004  0.029105  0.003401  4.037312  0.004  0.001898  0.036947  0.003312  3.993547  0.004
C  C39  1  0.33591039  0.93185547  0.16171800  1  0.016185  -0.010784  3.780798  -0.012  0.033904  -0.00353  4.011907  -0.004  0.029233  -0.003402  4.037796  -0.004  0.001928  0.037092  -0.003312  3.994003  -0.004
C  C40  1  0.61392560  0.08418553  0.68548797  1  0.088696  -0.010882  3.655741  -0.011  0.055499  -0.001993  3.903522  -0.003  0.063584  -0.0029  3.922993  -0.004  0.056046  0.05017  -0.001183  3.891552  -0.002
C  C41  1  0.38606965  0.08417478  0.18548292  1  0.088566  0.010878  3.656261  0.011  0.055463  0.001991  3.904011  0.003  0.063529  0.002901  3.923475  0.004  0.056058  0.050096  0.001182  3.892078  0.002
C  C42  1  0.58975286  0.68754594  0.49607112  1  0.130557  0.008724  3.63996  0.009  0.091104  0.001318  3.891386  0.002  0.103238  0.002142  3.90677  0.003  0.070451  0.083299  0.000599  3.881642  0.002
C  C43  1  0.41025093  0.68753871  0.99606489  1  0.130763  -0.008717  3.640071  -0.009  0.091257  -0.001318  3.89148  -0.002  0.103391  -0.002144  3.906856  -0.003  0.070399  0.083452  -0.000599  3.881737  -0.002
C  C44  1  0.66207546  0.83241468  0.52442344  1  -0.042634  -0.010453  3.78112  -0.011  -0.021877  -0.003556  4.011608  -0.004  -0.031113  -0.00337  4.038209  -0.004  0.002643  -0.016272  -0.003501  3.994299  -0.004
C  C45  1  0.33793067  0.83240719  0.02441351  1  -0.042669  0.010446  3.781415  0.011  -0.021893  0.003555  4.011916  0.004  -0.031131  0.003371  4.038513  0.004  0.00276  -0.016289  0.003501  3.994596  0.004
C  C46  1  0.72909080  0.87714776  0.41520692  1  0.126627  0.010099  3.641794  0.01  0.092634  0.002941  3.89444  0.003  0.103136  0.003144  3.907931  0.003  0.069718  0.085337  0.002862  3.88576  0.003
C  C47  1  0.27090972  0.87714220  0.91519959  1  0.126421  -0.010098  3.642145  -0.01  0.092455  -0.002941  3.894752  -0.003  0.10296  -0.003144  3.908243  -0.003  0.069563  0.085159  -0.002862  3.886066  -0.003
C  C48  1  0.66774141  0.64423626  0.27494133  1  0.289871  0.010723  3.657029  0.01  0.243326  0.002217  3.932563  0.003  0.259632  0.00286  3.944042  0.004  0.184848  0.232686  0.001682  3.925509  0.002
C  C49  1  0.33226582  0.64423099  0.77493194  1  0.289895  -0.010726  3.657122  -0.01  0.24328  -0.002217  3.932685  -0.003  0.259584  -0.002861  3.944159  -0.004  0.18485  0.232625  -0.001683  3.92566  -0.002
C  C50  1  0.15952874  0.53301373  0.41903500  1  0.739435  0.003758  3.820293  0.007  0.7053  -0.000325  4.116996  0.002  0.742164  0.000208  4.109979  0.002  0.209528  0.680505  -0.000864  4.120726  0.002
C  C51  1  0.84046695  0.53301522  0.91903719  1  0.739436  -0.003767  3.820335  -0.007  0.705393  0.000321  4.116938  -0.002  0.742256  -0.000207  4.109918  -0.002  0.209555  0.680598  0.000864  4.120664  -0.002
C  C52  1  0.02702054  0.57256326  0.52602324  1  -0.454897  -0.010858  3.649056  -0.011  -0.527497  -0.006229  3.879715  -0.006  -0.535394  -0.004224  3.882755  -0.005  -0.254266  -0.521568  -0.007741  3.876854  -0.008
C  C53  1  0.97297136  0.57256423  0.02602778  1  -0.455034  0.010858  3.649142  0.011  -0.527621  0.00623  3.879739  0.006  -0.53552  0.004223  3.882785  0.005  -0.254243  -0.521692  0.007741  3.87688  0.008
C  C54  1  0.79081901  0.23443306  0.30342280  1  0.739881  0.004684  3.828899  0.008  0.706819  0.000342  4.126319  0.003  0.743884  0.000807  4.11872  0.003  0.206234  0.681838  -0.000131  4.130124  0.003
C  C55  1  0.20917908  0.23443517  0.80342131  1  0.739927  -0.004684  3.829211  -0.008  0.706923  -0.000344  4.126507  -0.003  0.74399  -0.000807  4.118906  -0.003  0.206329  0.681939  0.000131  4.130309  -0.003
C  C56  1  0.94117173  0.15597453  0.22669152  1  -0.452642  -0.011022  3.646353  -0.011  -0.525431  -0.006478  3.875288  -0.007  -0.533478  -0.004445  3.879274  -0.005  -0.248815  -0.519413  -0.007921  3.871777  -0.008
C  C57  1  0.05883002  0.15597713  0.72668675  1  -0.452654  0.010988  3.646403  0.011  -0.525438  0.006478  3.875315  0.007  -0.533494  0.004444  3.879308  0.005  -0.248827  -0.519427  0.007921  3.871827  0.008
N  N58  1  0.61318095  0.18017335  0.80794771  1  -0.288137  0.077635  3.376409  0.094  -0.236778  0.05382  3.66756  0.07  -0.266049  0.045836  3.68906  0.063  -0.346647  -0.220408  0.057774  3.655814  0.073
N  N59  1  0.38682175  0.18016146  0.30794335  1  -0.287993  -0.077638  3.376461  -0.094  -0.236784  -0.053818  3.667724  -0.07  -0.266011  -0.045839  3.689178  -0.063  -0.346685  -0.220409  -0.057776  3.655961  -0.073
N  N60  1  0.59236782  0.59487839  0.37205547  1  -0.321129  -0.072119  3.306385  -0.087  -0.268329  -0.050124  3.598264  -0.065  -0.300056  -0.042537  3.616662  -0.058  -0.342447  -0.250023  -0.05405  3.588379  -0.068
N  N61  1  0.40763479  0.59487117  0.87204636  1  -0.321511  0.072116  3.306747  0.087  -0.268583  0.050127  3.598522  0.065  -0.300305  0.04254  3.616909  0.058  -0.342536  -0.250262  0.054051  3.588626  0.068
N  N62  1  0.73261030  0.78356521  0.29148085  1  -0.333054  -0.014903  3.025616  -0.017  -0.296456  -0.005897  3.298882  -0.007  -0.311986  -0.004548  3.310663  -0.006  -0.311414  -0.286147  -0.007049  3.290239  -0.008
N  N63  1  0.26739652  0.78356190  0.79147598  1  -0.332895  0.014907  3.025662  0.017  -0.296291  0.005897  3.298904  0.007  -0.311822  0.004549  3.310689  0.006  -0.311332  -0.285984  0.007049  3.290261  0.008
O  O64  1  0.29424286  0.47334445  0.45298742  1  -0.620613  -0.102194  2.047066  -0.13  -0.593456  -0.064236  2.33123  -0.091  -0.637803  -0.049223  2.323184  -0.074  -0.331498  -0.564111  -0.074091  2.336113  -0.101
O  O65  1  0.70574850  0.47334995  0.95298517  1  -0.620437  0.102188  2.046991  0.13  -0.593474  0.06424  2.331287  0.091  -0.637807  0.049221  2.323218  0.074  -0.331542  -0.564128  0.074091  2.336173  0.101
O  O66  1  0.13440309  0.55976384  0.30724337  1  -0.627518  -0.001114  1.946708  -0.002  -0.574246  -0.000356  2.159051  -0.001  -0.600696  0.000356  2.150031  0.0  -0.319837  -0.556178  -0.00089  2.165024  -0.002
O  O67  1  0.86560340  0.55976315  0.80724690  1  -0.627525  0.001113  1.946718  0.002  -0.574271  0.000357  2.159024  0.001  -0.60072  -0.000356  2.150002  0.0  -0.319817  -0.556198  0.00089  2.164993  0.002
O  O68  1  0.68865104  0.29683813  0.23688247  1  -0.608473  -0.104501  2.038594  -0.133  -0.580432  -0.06596  2.314572  -0.093  -0.62512  -0.050915  2.308861  -0.076  -0.324551  -0.551136  -0.074702  2.318084  -0.101
O  O69  1  0.31135408  0.29683161  0.73687479  1  -0.608527  0.10451  2.03865  0.133  -0.580477  0.065971  2.314587  0.093  -0.625169  0.050919  2.308873  0.076  -0.324568  -0.551166  0.074708  2.318081  0.101
O  O70  1  0.77138599  0.23155231  0.42342253  1  -0.656306  -0.000328  1.946461  -0.002  -0.61155  0.000271  2.174475  -0.001  -0.638115  0.000918  2.163085  0.0  -0.326507  -0.593166  -0.00026  2.182049  -0.001
O  O71  1  0.22860392  0.23156709  0.92342007  1  -0.656313  0.000329  1.946661  0.002  -0.611608  -0.000272  2.174679  0.001  -0.638164  -0.000918  2.163269  0.0  -0.326582  -0.593221  0.000259  2.182256  0.001
O  O72  1  0.36865475  0.43266075  0.13620198  1  -0.868297  0.001303  1.872856  0.001  -0.83181  0.000787  2.077698  0.001  -0.853231  0.000866  2.038596  0.001  -0.609547  -0.817205  0.0007  2.105743  0.0
O  O73  1  0.63135559  0.43265900  0.63620599  1  -0.868196  -0.001302  1.872988  -0.001  -0.831701  -0.000788  2.077834  -0.001  -0.853133  -0.000866  2.038749  -0.001  -0.609523  -0.817091  -0.0007  2.105872  0.0
