# generated using pymatgen
data_ZnH10C14NO5
_symmetry_space_group_name_H-M   'P 1'
_cell_length_a   12.81246807
_cell_length_b   12.81249170
_cell_length_c   20.74360252
_cell_angle_alpha   82.69665155
_cell_angle_beta   82.69678694
_cell_angle_gamma   67.03035964
_symmetry_Int_Tables_number   1
_chemical_formula_structural   ZnH10C14NO5
_chemical_formula_sum   'Zn8 H80 C112 N8 O40'
_cell_volume   3098.60722482
_cell_formula_units_Z   8
loop_
 _symmetry_equiv_pos_site_id
 _symmetry_equiv_pos_as_xyz
  1  'x, y, z'
loop_
 _atom_site_type_symbol
 _atom_site_label
 _atom_site_symmetry_multiplicity
 _atom_site_fract_x
 _atom_site_fract_y
 _atom_site_fract_z
 _atom_site_occupancy
 _atom_site_pbe_bader_charge
 _atom_site_pbe_bader_spin_density
 _atom_site_pbe_cm5_charge
 _atom_site_pbe_ddec_charge
 _atom_site_pbe_ddec_spin_density
 _atom_site_pbe_ddec_sum_bond_order
 _atom_site_pbe_magmom
Zn  Zn0  1  0.27476449  0.25956685  0.37244288  1  1.32034  0  0.683468  0.858208  0  2.297065  0
Zn  Zn1  1  0.74043438  0.72523422  0.12755705  1  1.320464  0  0.683488  0.858224  0  2.297054  0
Zn  Zn2  1  0.72523343  0.74043577  0.62755704  1  1.320301  0  0.683425  0.858178  0  2.297097  0
Zn  Zn3  1  0.25956608  0.27476428  0.87244252  1  1.320417  0  0.683457  0.858186  0  2.29709  0
Zn  Zn4  1  0.08966429  0.51197587  0.35644335  1  1.268795  0  0.68127  0.813159  0  2.396708  0
Zn  Zn5  1  0.48802757  0.91033201  0.14355625  1  1.26889  0  0.68126  0.813145  0  2.396829  0
Zn  Zn6  1  0.91033534  0.48802846  0.64355678  1  1.268616  0  0.681265  0.813142  0  2.396843  0
Zn  Zn7  1  0.51197120  0.08966636  0.85644492  1  1.268788  0  0.681266  0.813137  0  2.396829  0
H  H8  1  0.79532584  0.05960299  0.61953660  1  0.070122  0  0.112309  0.099097  0  0.965218  0
H  H9  1  0.94039715  0.20467357  0.88046356  1  0.070119  0  0.11229  0.099048  0  0.965279  0
H  H10  1  0.20467462  0.94039629  0.38046291  1  0.070111  0  0.112293  0.099056  0  0.96524  0
H  H11  1  0.05960247  0.79532604  0.11953695  1  0.070086  0  0.112303  0.099083  0  0.965219  0
H  H12  1  0.92315038  0.96576788  0.57926381  1  0.112971  0  0.110665  0.095083  0  1.009296  0
H  H13  1  0.03423335  0.07685083  0.92073598  1  0.113003  0  0.110661  0.09507  0  1.009305  0
H  H14  1  0.07684839  0.03423206  0.42073675  1  0.112957  0  0.110679  0.095092  0  1.009407  0
H  H15  1  0.96576629  0.92314879  0.07926550  1  0.112997  0  0.110646  0.095075  0  1.009338  0
H  H16  1  0.74667067  0.16498386  0.40733319  1  0.079149  0  0.105291  0.122821  0  1.001179  0
H  H17  1  0.83501443  0.25332986  0.09266441  1  0.079153  0  0.10529  0.122796  0  1.001213  0
H  H18  1  0.25333236  0.83501368  0.59266770  1  0.079113  0  0.105326  0.122878  0  1.001163  0
H  H19  1  0.16498094  0.74667217  0.90733578  1  0.079177  0  0.105295  0.122838  0  1.001194  0
H  H20  1  0.82589309  0.30569801  0.34827151  1  0.081411  0  0.107538  0.113728  0  0.988785  0
H  H21  1  0.69430132  0.17410568  0.15172706  1  0.08148  0  0.107527  0.113735  0  0.988697  0
H  H22  1  0.17410822  0.69430095  0.65172795  1  0.081417  0  0.107536  0.113721  0  0.98878  0
H  H23  1  0.30569489  0.82589443  0.84827226  1  0.081373  0  0.107528  0.113718  0  0.98865  0
H  H24  1  0.02682826  0.26033095  0.50748408  1  0.084275  0  0.099608  0.097525  0  1.052018  0
H  H25  1  0.73966990  0.97316708  0.99251510  1  0.084277  0  0.099594  0.097568  0  1.05207  0
H  H26  1  0.97317391  0.73966847  0.49251527  1  0.084316  0  0.099592  0.097557  0  1.051911  0
H  H27  1  0.26033141  0.02683109  0.00748395  1  0.084315  0  0.09959  0.097539  0  1.052002  0
H  H28  1  0.94476866  0.12804286  0.56855338  1  0.050011  0  0.105208  0.11899  0  1.007919  0
H  H29  1  0.87195827  0.05523200  0.93144522  1  0.049967  0  0.105265  0.119092  0  1.007805  0
H  H30  1  0.05523522  0.87195670  0.43144631  1  0.050028  0  0.105219  0.119006  0  1.007844  0
H  H31  1  0.12804220  0.94476965  0.06855505  1  0.049956  0  0.105252  0.119096  0  1.007811  0
H  H32  1  0.41907110  0.26504137  0.18246181  1  0.11383  0  0.104152  0.111166  0  1.023883  0
H  H33  1  0.73495842  0.58093012  0.31753863  1  0.113853  0  0.104154  0.111168  0  1.023891  0
H  H34  1  0.58092938  0.73496028  0.81753846  1  0.113824  0  0.10415  0.111165  0  1.023863  0
H  H35  1  0.26504034  0.41907060  0.68246090  1  0.113832  0  0.104142  0.111197  0  1.023869  0
H  H36  1  0.49487401  0.27688586  0.06880353  1  0.05823  0  0.101338  0.113403  0  1.039293  0
H  H37  1  0.72311180  0.50512821  0.43119658  1  0.058259  0  0.101345  0.113407  0  1.039303  0
H  H38  1  0.50512645  0.72311343  0.93119598  1  0.058247  0  0.101336  0.11341  0  1.039272  0
H  H39  1  0.27688441  0.49487270  0.56880315  1  0.058242  0  0.101335  0.113391  0  1.039278  0
H  H40  1  0.22139827  0.60276031  0.03386105  1  0.080844  0  0.103285  0.118948  0  1.031552  0
H  H41  1  0.39723497  0.77860285  0.46613790  1  0.080802  0  0.103255  0.118878  0  1.031592  0
H  H42  1  0.77860305  0.39723865  0.96613841  1  0.080843  0  0.103272  0.118921  0  1.03156  0
H  H43  1  0.60276037  0.22139601  0.53386063  1  0.081082  0  0.103309  0.118967  0  1.031535  0
H  H44  1  0.14425690  0.58820342  0.15025653  1  0.087474  0  0.101116  0.103279  0  1.01456  0
H  H45  1  0.41179691  0.85574505  0.34974188  1  0.087443  0  0.101094  0.103239  0  1.014552  0
H  H46  1  0.85574527  0.41179836  0.84974262  1  0.087411  0  0.101076  0.103197  0  1.014524  0
H  H47  1  0.58820270  0.14425534  0.65025713  1  0.087459  0  0.101097  0.103243  0  1.014567  0
H  H48  1  0.56532725  0.33128483  0.98363813  1  0.085703  0  0.114021  0.105071  0  0.991518  0
H  H49  1  0.66871571  0.43467089  0.51636267  1  0.085682  0  0.114033  0.10509  0  0.991498  0
H  H50  1  0.43467323  0.66871604  0.01636269  1  0.085671  0  0.114025  0.105044  0  0.991546  0
H  H51  1  0.33128562  0.56532729  0.48363830  1  0.085701  0  0.114018  0.105062  0  0.991529  0
H  H52  1  0.52966767  0.41512641  0.90916257  1  0.106178  0  0.124746  0.125558  0  0.946692  0
H  H53  1  0.58487431  0.47033210  0.59083653  1  0.106241  0  0.124743  0.125555  0  0.946622  0
H  H54  1  0.47033108  0.58487431  0.09083599  1  0.106209  0  0.124752  0.125542  0  0.946632  0
H  H55  1  0.41512615  0.52966797  0.40916291  1  0.106201  0  0.124752  0.125571  0  0.946681  0
H  H56  1  0.46626033  0.15603930  0.46206566  1  0.087341  0  0.1189  0.092904  0  0.999469  0
H  H57  1  0.84396108  0.53373877  0.03793310  1  0.087354  0  0.118915  0.092909  0  0.999436  0
H  H58  1  0.53373759  0.84396254  0.53793481  1  0.087391  0  0.11891  0.092914  0  0.999482  0
H  H59  1  0.15603852  0.46625926  0.96206610  1  0.087347  0  0.118937  0.092957  0  0.999455  0
H  H60  1  0.65262075  0.99005188  0.46372619  1  0.161599  0  0.10927  0.128206  0  1.04573  0
H  H61  1  0.00994813  0.34737632  0.03627322  1  0.161557  0  0.109298  0.128289  0  1.045653  0
H  H62  1  0.34737631  0.00994635  0.53627417  1  0.16159  0  0.109295  0.12823  0  1.045728  0
H  H63  1  0.99005488  0.65262198  0.96372568  1  0.16157  0  0.109281  0.128227  0  1.045682  0
H  H64  1  0.62354565  0.96707258  0.26026285  1  0.125343  0  0.110496  0.126514  0  1.031383  0
H  H65  1  0.03292848  0.37645376  0.23973675  1  0.125343  0  0.110488  0.126523  0  1.031399  0
H  H66  1  0.37645313  0.03293051  0.73973744  1  0.125302  0  0.110516  0.126596  0  1.031321  0
H  H67  1  0.96707113  0.62354585  0.76026280  1  0.12533  0  0.110493  0.126512  0  1.031371  0
H  H68  1  0.44050489  0.13009857  0.26815997  1  0.120154  0  0.121034  0.098502  0  1.005956  0
H  H69  1  0.86990522  0.55949340  0.23183858  1  0.120199  0  0.121029  0.098497  0  1.005994  0
H  H70  1  0.55949389  0.86990609  0.73184019  1  0.120168  0  0.120997  0.098447  0  1.005974  0
H  H71  1  0.13009524  0.44050509  0.76816051  1  0.120171  0  0.121006  0.098464  0  1.006011  0
H  H72  1  0.81204910  0.88194179  0.25783360  1  0.094265  0  0.114127  0.132665  0  1.002022  0
H  H73  1  0.11805769  0.18794927  0.24216500  1  0.094282  0  0.114131  0.132681  0  1.002061  0
H  H74  1  0.18794710  0.11805911  0.74216565  1  0.09433  0  0.114153  0.13269  0  1.001991  0
H  H75  1  0.88194022  0.81205178  0.75783458  1  0.094322  0  0.114144  0.132686  0  1.00204  0
H  H76  1  0.98260948  0.70369006  0.26090880  1  0.112587  0  0.12197  0.096605  0  0.997002  0
H  H77  1  0.29630951  0.01738989  0.23909385  1  0.112544  0  0.121955  0.096624  0  0.99696  0
H  H78  1  0.01738760  0.29631132  0.73909275  1  0.112529  0  0.121971  0.096619  0  0.996932  0
H  H79  1  0.70368926  0.98261083  0.76090568  1  0.112528  0  0.121956  0.09661  0  0.996962  0
H  H80  1  0.90468199  0.62252188  0.45679507  1  0.123776  0  0.124517  0.100863  0  0.979638  0
H  H81  1  0.37748540  0.09531821  0.04320783  1  0.123685  0  0.124481  0.100829  0  0.979599  0
H  H82  1  0.09531682  0.37748674  0.54320766  1  0.123668  0  0.124473  0.100822  0  0.979579  0
H  H83  1  0.62251592  0.90468076  0.95679260  1  0.123773  0  0.124484  0.100854  0  0.979604  0
H  H84  1  0.73153786  0.79763569  0.46244549  1  0.162566  0  0.11659  0.138599  0  1.017816  0
H  H85  1  0.20236896  0.26846274  0.03755539  1  0.162605  0  0.116607  0.138612  0  1.017783  0
H  H86  1  0.26846178  0.20237023  0.53755498  1  0.162617  0  0.116591  0.138604  0  1.017824  0
H  H87  1  0.79763236  0.73153701  0.96244401  1  0.162608  0  0.116601  0.138616  0  1.017819  0
C  C88  1  0.78883567  0.90451706  0.59311891  1  1.581131  0  0.193849  0.57747  0  4.20305  0
C  C89  1  0.09547980  0.21117039  0.90688222  1  1.581259  0  0.193815  0.577394  0  4.203292  0
C  C90  1  0.21116309  0.09548444  0.40688008  1  1.581627  0  0.193876  0.577434  0  4.203043  0
C  C91  1  0.90451982  0.78883080  0.09311816  1  1.581239  0  0.193844  0.577507  0  4.203116  0
C  C92  1  0.82956052  0.00226866  0.57997183  1  0.375812  0  -0.060954  -0.114898  0  3.896731  0
C  C93  1  0.99773175  0.17044011  0.92002828  1  0.375728  0  -0.060925  -0.114798  0  3.896846  0
C  C94  1  0.17043739  0.99773238  0.42002774  1  0.37577  0  -0.060942  -0.114879  0  3.896838  0
C  C95  1  0.00226787  0.82955872  0.07997230  1  0.375748  0  -0.060957  -0.114904  0  3.89688  0
C  C96  1  0.84155113  0.13688374  0.49089194  1  0.409982  0  0.085648  0.252403  0  4.076277  0
C  C97  1  0.86311535  0.15844768  0.00910632  1  0.409909  0  0.085664  0.252468  0  4.076316  0
C  C98  1  0.15845105  0.86311648  0.50910832  1  0.409797  0  0.085633  0.252383  0  4.076435  0
C  C99  1  0.13688342  0.84155305  0.99089370  1  0.409615  0  0.085656  0.252453  0  4.076351  0
C  C100  1  0.80760946  0.18765087  0.42872391  1  -0.062595  0  -0.106629  -0.208612  0  4.001085  0
C  C101  1  0.81234913  0.19238867  0.07127426  1  -0.06253  0  -0.106631  -0.2086  0  4.00109  0
C  C102  1  0.19239187  0.81235046  0.57127632  1  -0.062616  0  -0.106702  -0.208756  0  4.001114  0
C  C103  1  0.18764964  0.80761048  0.92872589  1  -0.062965  0  -0.106679  -0.208714  0  4.001062  0
C  C104  1  0.85173041  0.26477016  0.39619613  1  0.00815  0  -0.083764  -0.074008  0  4.008012  0
C  C105  1  0.73523097  0.14826765  0.10380144  1  0.008238  0  -0.08372  -0.07397  0  4.007924  0
C  C106  1  0.14827091  0.73522958  0.60380327  1  0.008149  0  -0.083777  -0.07402  0  4.00801  0
C  C107  1  0.26476693  0.85173260  0.89619724  1  0.008691  0  -0.083716  -0.073904  0  4.007893  0
C  C108  1  0.93182052  0.29134508  0.42418777  1  0.049528  0  -0.036836  -0.077598  0  4.019545  0
C  C109  1  0.70865508  0.06817807  0.07581085  1  0.04911  0  -0.036884  -0.077602  0  4.019473  0
C  C110  1  0.06818249  0.70865401  0.57581155  1  0.049523  0  -0.036838  -0.07755  0  4.019451  0
C  C111  1  0.29134453  0.93181997  0.92418932  1  0.049133  0  -0.036881  -0.077688  0  4.019543  0
C  C112  1  0.96435878  0.24063747  0.48603092  1  -0.108103  0  -0.083359  -0.051837  0  3.982502  0
C  C113  1  0.75936285  0.03563796  0.01396742  1  -0.107715  0  -0.083263  -0.051834  0  3.982469  0
C  C114  1  0.03564423  0.75936083  0.51396797  1  -0.108162  0  -0.083301  -0.051805  0  3.982262  0
C  C115  1  0.24063676  0.96436087  0.98603220  1  -0.107938  0  -0.083241  -0.051743  0  3.982395  0
C  C116  1  0.91915019  0.16469975  0.52004875  1  0.034453  0  -0.112213  -0.226119  0  4.001476  0
C  C117  1  0.83529902  0.08084777  0.97994974  1  0.034617  0  -0.112333  -0.226305  0  4.001584  0
C  C118  1  0.08085538  0.83529679  0.47995008  1  0.034497  0  -0.112252  -0.226177  0  4.001493  0
C  C119  1  0.16469890  0.91915249  0.02005039  1  0.034821  0  -0.112369  -0.226387  0  4.00162  0
C  C120  1  0.97894688  0.37301611  0.38776690  1  1.514403  0  0.195714  0.564474  0  4.206846  0
C  C121  1  0.62698470  0.02105563  0.11223371  1  1.514876  0  0.195693  0.564395  0  4.206845  0
C  C122  1  0.02105700  0.62698346  0.61223327  1  1.514869  0  0.195805  0.5646  0  4.20679  0
C  C123  1  0.37301662  0.97894177  0.88776733  1  1.515373  0  0.195792  0.564658  0  4.206805  0
C  C124  1  0.23418470  0.42107626  0.24441524  1  1.534405  0  0.215634  0.595845  0  4.179295  0
C  C125  1  0.57892503  0.76581827  0.25558562  1  1.534645  0  0.215602  0.595634  0  4.179441  0
C  C126  1  0.76581663  0.57892271  0.75558519  1  1.534421  0  0.215625  0.595785  0  4.179436  0
C  C127  1  0.42107800  0.23418241  0.74441452  1  1.53438  0  0.215603  0.595736  0  4.179416  0
C  C128  1  0.27772221  0.42722725  0.17476159  1  -0.024779  0  -0.037944  -0.086053  0  4.018766  0
C  C129  1  0.57277199  0.72227925  0.32523960  1  -0.025039  0  -0.037969  -0.086108  0  4.018851  0
C  C130  1  0.72227742  0.57277159  0.82523948  1  -0.024828  0  -0.037957  -0.086032  0  4.018772  0
C  C131  1  0.42722763  0.27772194  0.67475982  1  -0.024753  0  -0.037972  -0.086047  0  4.018794  0
C  C132  1  0.37554119  0.33989539  0.15052258  1  -0.073179  0  -0.081303  -0.05633  0  3.977033  0
C  C133  1  0.66010416  0.62445870  0.34947838  1  -0.073445  0  -0.081306  -0.056312  0  3.977096  0
C  C134  1  0.62445758  0.66010454  0.84947702  1  -0.07336  0  -0.081318  -0.056375  0  3.977034  0
C  C135  1  0.33989461  0.37554046  0.65052224  1  -0.073133  0  -0.081321  -0.056468  0  3.977096  0
C  C136  1  0.41887789  0.34663316  0.08576237  1  -0.004869  0  -0.111634  -0.225012  0  3.994226  0
C  C137  1  0.65336490  0.58112188  0.41423779  1  -0.004526  0  -0.111647  -0.225016  0  3.994188  0
C  C138  1  0.58112258  0.65336613  0.91423762  1  -0.004646  0  -0.111626  -0.224991  0  3.994259  0
C  C139  1  0.34663385  0.41887490  0.58576111  1  -0.004857  0  -0.111581  -0.224866  0  3.99412  0
C  C140  1  0.36439242  0.44311969  0.04417530  1  0.449881  0  0.090198  0.268382  0  4.053493  0
C  C141  1  0.55687780  0.63560842  0.45582470  1  0.449837  0  0.09021  0.268376  0  4.053503  0
C  C142  1  0.63560805  0.55688117  0.95582456  1  0.449855  0  0.09021  0.268341  0  4.053597  0
C  C143  1  0.44311840  0.36439091  0.54417420  1  0.449931  0  0.090163  0.268307  0  4.053593  0
C  C144  1  0.26401415  0.52972905  0.06728999  1  -0.035574  0  -0.107948  -0.215011  0  3.994822  0
C  C145  1  0.47026909  0.73598592  0.43270939  1  -0.035522  0  -0.107997  -0.215094  0  3.994988  0
C  C146  1  0.73598631  0.47027102  0.93270898  1  -0.035548  0  -0.108006  -0.215105  0  3.994917  0
C  C147  1  0.52972796  0.26401151  0.56728959  1  -0.035895  0  -0.108016  -0.215119  0  3.994863  0
C  C148  1  0.22171037  0.52151810  0.13182218  1  0.015544  0  -0.086473  -0.067162  0  4.000619  0
C  C149  1  0.47848012  0.77829071  0.36817659  1  0.015495  0  -0.086368  -0.066923  0  4.000485  0
C  C150  1  0.77828924  0.47848150  0.86817689  1  0.015559  0  -0.08639  -0.066963  0  4.000491  0
C  C151  1  0.52151948  0.22170968  0.63182193  1  0.015507  0  -0.086426  -0.067043  0  4.000505  0
C  C152  1  0.49582511  0.37401106  0.95169957  1  0.422372  0  -0.060852  -0.12624  0  3.89148  0
C  C153  1  0.62599218  0.50417332  0.54830041  1  0.422294  0  -0.060838  -0.126224  0  3.891272  0
C  C154  1  0.50417536  0.62598980  0.04829981  1  0.422374  0  -0.060825  -0.126188  0  3.891357  0
C  C155  1  0.37401084  0.49582500  0.45169993  1  0.422369  0  -0.060843  -0.126252  0  3.891475  0
C  C156  1  0.46010743  0.28685482  0.92668044  1  1.598863  0  0.218323  0.610543  0  4.147331  0
C  C157  1  0.71314859  0.53988719  0.57332181  1  1.598161  0  0.218477  0.610732  0  4.147325  0
C  C158  1  0.53989475  0.71314383  0.07332043  1  1.598936  0  0.218344  0.610678  0  4.147175  0
C  C159  1  0.28685444  0.46010721  0.42668030  1  1.598868  0  0.218374  0.610707  0  4.147098  0
C  C160  1  0.50459402  0.11016132  0.41883848  1  0.480001  0  0.048404  0.105002  0  3.929685  0
C  C161  1  0.88984063  0.49540348  0.08116035  1  0.48013  0  0.048394  0.105036  0  3.929656  0
C  C162  1  0.49540305  0.88984006  0.58116258  1  0.479972  0  0.048386  0.104996  0  3.92979  0
C  C163  1  0.11016153  0.50459515  0.91883859  1  0.479875  0  0.048368  0.104961  0  3.929727  0
C  C164  1  0.60776851  0.01776852  0.41944539  1  0.026684  0  -0.080715  -0.17649  0  3.9147  0
C  C165  1  0.98223219  0.39222804  0.08055379  1  0.027099  0  -0.080749  -0.176613  0  3.914803  0
C  C166  1  0.39223026  0.98223063  0.58055476  1  0.026975  0  -0.080746  -0.176516  0  3.914759  0
C  C167  1  0.01777252  0.60776804  0.91944515  1  0.026741  0  -0.080722  -0.176511  0  3.914716  0
C  C168  1  0.65279951  0.96160710  0.36224629  1  -0.075897  0  0.013335  0.101403  0  3.980601  0
C  C169  1  0.03839290  0.34719794  0.13775312  1  -0.076353  0  0.013304  0.1013  0  3.980733  0
C  C170  1  0.34719756  0.03839427  0.63775429  1  -0.076087  0  0.013357  0.101397  0  3.980601  0
C  C171  1  0.96160841  0.65280179  0.86224532  1  -0.075859  0  0.013323  0.101359  0  3.980556  0
C  C172  1  0.59348785  0.00492866  0.30645161  1  0.031383  0  -0.07877  -0.161101  0  3.924399  0
C  C173  1  0.99507224  0.40650841  0.19354806  1  0.031387  0  -0.078749  -0.161061  0  3.924421  0
C  C174  1  0.40650837  0.99507304  0.69354901  1  0.031286  0  -0.078832  -0.161301  0  3.924449  0
C  C175  1  0.00492992  0.59348944  0.80645095  1  0.031368  0  -0.078801  -0.16111  0  3.924374  0
C  C176  1  0.49017977  0.09684940  0.31025716  1  0.451424  0  0.052631  0.109452  0  3.913092  0
C  C177  1  0.90315170  0.50981863  0.18974216  1  0.451464  0  0.052567  0.109354  0  3.91313  0
C  C178  1  0.50981816  0.90315322  0.68974325  1  0.451472  0  0.052708  0.109613  0  3.912991  0
C  C179  1  0.09684791  0.49018020  0.81025746  1  0.451418  0  0.052694  0.109531  0  3.913034  0
C  C180  1  0.75719766  0.85762088  0.36095524  1  -0.042616  0  0.019886  0.11062  0  3.961503  0
C  C181  1  0.14238096  0.24279972  0.13904418  1  -0.042377  0  0.019951  0.110805  0  3.961377  0
C  C182  1  0.24279941  0.14238128  0.63904479  1  -0.042353  0  0.019908  0.110715  0  3.961446  0
C  C183  1  0.85762120  0.75720049  0.86095463  1  -0.042436  0  0.01995  0.110787  0  3.96132  0
C  C184  1  0.82931305  0.82892347  0.30363515  1  0.025055  0  -0.073637  -0.159144  0  3.914915  0
C  C185  1  0.17107771  0.17068469  0.19636534  1  0.025003  0  -0.073706  -0.1593  0  3.915037  0
C  C186  1  0.17068317  0.17107744  0.69636506  1  0.024886  0  -0.073684  -0.159194  0  3.914952  0
C  C187  1  0.82892276  0.82931617  0.80363451  1  0.02496  0  -0.07372  -0.159279  0  3.914951  0
C  C188  1  0.92534821  0.72907053  0.30466761  1  0.488628  0  0.052274  0.100803  0  3.923179  0
C  C189  1  0.27093157  0.07465021  0.19533339  1  0.488646  0  0.052274  0.100766  0  3.923253  0
C  C190  1  0.07464972  0.27093289  0.69533322  1  0.48867  0  0.052242  0.100747  0  3.923184  0
C  C191  1  0.72906805  0.92535098  0.80466651  1  0.488661  0  0.052284  0.10077  0  3.923127  0
C  C192  1  0.88189284  0.68318595  0.41398865  1  0.437801  0  0.053808  0.100197  0  3.927502  0
C  C193  1  0.31682028  0.11810643  0.08601386  1  0.437948  0  0.053817  0.100224  0  3.927534  0
C  C194  1  0.11810681  0.31681998  0.58601326  1  0.437932  0  0.053859  0.100273  0  3.92762  0
C  C195  1  0.68318104  0.88189253  0.91398608  1  0.437848  0  0.053851  0.10022  0  3.92767  0
C  C196  1  0.78468599  0.78160301  0.41682763  1  -0.005464  0  -0.068868  -0.145522  0  3.892195  0
C  C197  1  0.21840157  0.21531256  0.08317300  1  -0.005688  0  -0.068871  -0.145567  0  3.89224  0
C  C198  1  0.21531194  0.21840198  0.58317306  1  -0.005632  0  -0.068875  -0.145576  0  3.892367  0
C  C199  1  0.78159975  0.78468640  0.91682695  1  -0.005597  0  -0.068893  -0.145605  0  3.892337  0
N  N200  1  0.44534161  0.14782675  0.36564316  1  -1.265221  0  -0.326406  -0.238149  0  3.548997  0
N  N201  1  0.85217525  0.55465575  0.13435609  1  -1.265317  0  -0.326346  -0.238027  0  3.54884  0
N  N202  1  0.55465632  0.85217588  0.63435772  1  -1.265193  0  -0.326396  -0.238141  0  3.548989  0
N  N203  1  0.14782606  0.44534242  0.86564296  1  -1.26513  0  -0.326421  -0.238179  0  3.548865  0
N  N204  1  0.95208842  0.65780383  0.35911229  1  -1.263871  0  -0.334319  -0.231031  0  3.593139  0
N  N205  1  0.34220133  0.04791046  0.14088994  1  -1.263938  0  -0.334283  -0.230978  0  3.59317  0
N  N206  1  0.04791037  0.34220163  0.64088925  1  -1.263942  0  -0.334299  -0.23102  0  3.593301  0
N  N207  1  0.65779914  0.95208962  0.85911095  1  -1.263925  0  -0.334317  -0.230981  0  3.593234  0
O  O208  1  0.40300930  0.46295985  0.98125878  1  -1.077458  0  -0.177328  -0.179377  0  2.579481  0
O  O209  1  0.53704121  0.59699074  0.51874158  1  -1.077414  0  -0.177367  -0.179392  0  2.579356  0
O  O210  1  0.59699031  0.53704055  0.01874071  1  -1.077453  0  -0.177381  -0.179391  0  2.579481  0
O  O211  1  0.46296097  0.40300869  0.48125922  1  -1.077489  0  -0.177321  -0.179374  0  2.579536  0
O  O212  1  0.28337032  0.33067713  0.28034247  1  -1.190232  0  -0.316534  -0.561101  0  2.38913  0
O  O213  1  0.66932392  0.71662879  0.21965836  1  -1.190215  0  -0.31651  -0.561026  0  2.389232  0
O  O214  1  0.71662844  0.66932124  0.71965774  1  -1.190194  0  -0.316476  -0.561027  0  2.389198  0
O  O215  1  0.33067911  0.28337110  0.78034185  1  -1.19018  0  -0.316504  -0.561027  0  2.389201  0
O  O216  1  0.14915616  0.50790835  0.26418188  1  -1.178887  0  -0.321659  -0.547722  0  2.365616  0
O  O217  1  0.49209341  0.85084682  0.23581832  1  -1.178929  0  -0.321653  -0.547622  0  2.365583  0
O  O218  1  0.85084346  0.49208969  0.73581877  1  -1.178779  0  -0.32167  -0.547718  0  2.365646  0
O  O219  1  0.50790962  0.14915701  0.76418156  1  -1.17895  0  -0.321655  -0.54769  0  2.365557  0
O  O220  1  0.54109116  0.20596979  0.90000507  1  -1.184186  0  -0.321867  -0.534958  0  2.29895  0
O  O221  1  0.79403422  0.45890432  0.59999623  1  -1.183629  0  -0.321875  -0.534954  0  2.299034  0
O  O222  1  0.45891187  0.79403010  0.09999514  1  -1.184176  0  -0.321898  -0.535054  0  2.298978  0
O  O223  1  0.20597051  0.54109100  0.40000470  1  -1.184199  0  -0.321913  -0.535073  0  2.2989  0
O  O224  1  0.35528071  0.30352362  0.93268259  1  -1.173941  0  -0.30834  -0.537205  0  2.385784  0
O  O225  1  0.69647449  0.64471505  0.56732136  1  -1.173808  0  -0.308469  -0.53742  0  2.385863  0
O  O226  1  0.64472062  0.69647063  0.06731920  1  -1.174063  0  -0.308333  -0.537245  0  2.385782  0
O  O227  1  0.30352430  0.35528020  0.43268296  1  -1.173964  0  -0.308358  -0.537271  0  2.385723  0
O  O228  1  0.06587960  0.38219962  0.41091894  1  -1.168487  0  -0.338415  -0.594329  0  2.346997  0
O  O229  1  0.61779955  0.93411991  0.08908180  1  -1.169003  0  -0.338454  -0.594377  0  2.346974  0
O  O230  1  0.93412426  0.61779994  0.58908026  1  -1.168863  0  -0.338517  -0.594482  0  2.347099  0
O  O231  1  0.38220093  0.06587703  0.91091983  1  -1.168892  0  -0.338481  -0.594452  0  2.347035  0
O  O232  1  0.93607441  0.43145932  0.33773939  1  -1.182311  0  -0.31029  -0.54355  0  2.186611  0
O  O233  1  0.56854359  0.06392705  0.16226154  1  -1.182336  0  -0.310262  -0.543494  0  2.18663  0
O  O234  1  0.06392692  0.56854123  0.66226187  1  -1.182386  0  -0.310268  -0.54356  0  2.186597  0
O  O235  1  0.43145774  0.93606879  0.83774059  1  -1.182817  0  -0.310252  -0.543567  0  2.186677  0
O  O236  1  0.79403657  0.06165255  0.51861708  1  -1.070707  0  -0.171553  -0.172872  0  2.599182  0
O  O237  1  0.93834453  0.20596408  0.98138227  1  -1.070993  0  -0.171553  -0.172898  0  2.599252  0
O  O238  1  0.20596560  0.93834687  0.48138228  1  -1.070543  0  -0.17153  -0.172779  0  2.599266  0
O  O239  1  0.06165339  0.79403619  0.01861833  1  -1.070705  0  -0.171496  -0.17281  0  2.599273  0
O  O240  1  0.74893306  0.87593677  0.54885117  1  -1.161129  0  -0.305631  -0.53756  0  2.243702  0
O  O241  1  0.12405897  0.25107037  0.95115171  1  -1.161211  0  -0.305596  -0.537518  0  2.243827  0
O  O242  1  0.25106316  0.12406650  0.45114884  1  -1.16155  0  -0.305596  -0.537514  0  2.243706  0
O  O243  1  0.87594151  0.74892893  0.04884877  1  -1.161194  0  -0.305611  -0.53759  0  2.24371  0
O  O244  1  0.79908702  0.85240067  0.65035796  1  -1.172884  0  -0.32633  -0.558428  0  2.212224  0
O  O245  1  0.14759882  0.20091897  0.84964445  1  -1.172961  0  -0.326321  -0.558387  0  2.212321  0
O  O246  1  0.20091258  0.14759971  0.34964056  1  -1.172948  0  -0.326408  -0.55846  0  2.212154  0
O  O247  1  0.85240080  0.79908144  0.15035600  1  -1.173019  0  -0.326361  -0.558461  0  2.212286  0
