# generated using pymatgen
data_BaH9C11N3O5
_symmetry_space_group_name_H-M   'P 1'
_cell_length_a   7.14032111
_cell_length_b   13.43540783
_cell_length_c   13.99600000
_cell_angle_alpha   112.38544386
_cell_angle_beta   90.00000000
_cell_angle_gamma   90.00000000
_symmetry_Int_Tables_number   1
_chemical_formula_structural   BaH9C11N3O5
_chemical_formula_sum   'Ba4 H36 C44 N12 O20'
_cell_volume   1241.49944702
_cell_formula_units_Z   4
loop_
 _symmetry_equiv_pos_site_id
 _symmetry_equiv_pos_as_xyz
  1  'x, y, z'
loop_
 _atom_site_type_symbol
 _atom_site_label
 _atom_site_symmetry_multiplicity
 _atom_site_fract_x
 _atom_site_fract_y
 _atom_site_fract_z
 _atom_site_occupancy
 _atom_site_hle17_bader_spin_density
 _atom_site_hle17_ddec_charge
 _atom_site_hle17_ddec_spin_density
 _atom_site_hle17_ddec_sum_bond_order
 _atom_site_hle17_magmom
 _atom_site_hse06_10hf_bader_spin_density
 _atom_site_hse06_10hf_ddec_charge
 _atom_site_hse06_10hf_ddec_spin_density
 _atom_site_hse06_10hf_ddec_sum_bond_order
 _atom_site_hse06_10hf_magmom
 _atom_site_hse06_bader_spin_density
 _atom_site_hse06_ddec_charge
 _atom_site_hse06_ddec_spin_density
 _atom_site_hse06_ddec_sum_bond_order
 _atom_site_hse06_magmom
 _atom_site_pbe_bader_charge
 _atom_site_pbe_bader_spin_density
 _atom_site_pbe_cm5_charge
 _atom_site_pbe_ddec_charge
 _atom_site_pbe_ddec_spin_density
 _atom_site_pbe_ddec_sum_bond_order
 _atom_site_pbe_magmom
Ba  Ba0  1  0.46426904  0.31757022  0.45852281  1  0  1.649959  0  1.178927  0  0  1.506717  0  1.574942  0  0  1.54976  0  1.531024  0  1.689019  0  0.982198  1.474944  0  1.606194  0
Ba  Ba1  1  0.96427036  0.18243086  0.54147902  1  0  1.649925  0  1.178944  0  0  1.506688  0  1.57494  0  0  1.54973  0  1.53102  0  1.68902  0  0.982175  1.474914  0  1.606192  0
Ba  Ba2  1  0.53572941  0.68242951  0.54147710  1  0  1.649929  0  1.178975  0  0  1.506705  0  1.574961  0  0  1.549741  0  1.531039  0  1.689027  0  0.98218  1.474929  0  1.606211  0
Ba  Ba3  1  0.03572949  0.81756968  0.45852261  1  0  1.649946  0  1.178957  0  0  1.506712  0  1.574956  0  0  1.549749  0  1.531033  0  1.689002  0  0.982187  1.474936  0  1.606206  0
H  H4  1  0.02113210  0.00328263  0.23835783  1  0  0.125389  0  0.930107  0  0  0.139952  0  0.987888  0  0  0.142279  0  0.986188  0  0.095931  0  0.11682  0.138296  0  0.989117  0
H  H5  1  0.52113062  0.49671844  0.76164256  1  0  0.125391  0  0.930129  0  0  0.139941  0  0.987898  0  0  0.142269  0  0.986201  0  0.095826  0  0.116823  0.138285  0  0.989129  0
H  H6  1  0.97886914  0.99671871  0.76164338  1  0  0.125411  0  0.930099  0  0  0.13995  0  0.987882  0  0  0.142282  0  0.986183  0  0.095837  0  0.116816  0.138294  0  0.989112  0
H  H7  1  0.47886922  0.50328129  0.23835734  1  0  0.125374  0  0.930119  0  0  0.139933  0  0.987926  0  0  0.142259  0  0.986224  0  0.095833  0  0.116804  0.138276  0  0.989157  0
H  H8  1  0.86096268  0.08686582  0.20878212  1  0  0.12252  0  0.931448  0  0  0.135685  0  0.995001  0  0  0.137297  0  0.994345  0  0.101313  0  0.114094  0.134501  0  0.995539  0
H  H9  1  0.36096276  0.41313526  0.79121827  1  0  0.122514  0  0.931445  0  0  0.135659  0  0.994994  0  0  0.137272  0  0.994336  0  0.101333  0  0.114096  0.134477  0  0.995535  0
H  H10  1  0.13903856  0.91313633  0.79121866  1  0  0.122527  0  0.931472  0  0  0.135677  0  0.995  0  0  0.137293  0  0.994344  0  0.101361  0  0.114107  0.134497  0  0.995543  0
H  H11  1  0.63903849  0.58686448  0.20878163  1  0  0.122524  0  0.931469  0  0  0.135693  0  0.995025  0  0  0.137304  0  0.994367  0  0.10135  0  0.114112  0.134513  0  0.995568  0
H  H12  1  0.18397212  0.88009588  0.09471556  1  0  0.099678  0  0.933701  0  0  0.112296  0  0.990815  0  0  0.11487  0  0.989707  0  0.066218  0  0.10833  0.110353  0  0.99176  0
H  H13  1  0.68397344  0.61990654  0.90528532  1  0  0.099677  0  0.933686  0  0  0.112298  0  0.990799  0  0  0.114872  0  0.989691  0  0.066211  0  0.108342  0.110355  0  0.991743  0
H  H14  1  0.81602493  0.11990547  0.90528565  1  0  0.099692  0  0.933688  0  0  0.112309  0  0.990809  0  0  0.114884  0  0.9897  0  0.066225  0  0.10836  0.110366  0  0.991753  0
H  H15  1  0.31602640  0.38009319  0.09471458  1  0  0.099697  0  0.933687  0  0  0.112315  0  0.990801  0  0  0.114889  0  0.989692  0  0.066221  0  0.108368  0.110372  0  0.991745  0
H  H16  1  0.19232188  0.76139624  0.90525800  1  0  0.100201  0  0.970509  0  0  0.108197  0  1.033304  0  0  0.110801  0  1.033711  0  0.093605  0  0.104258  0.106279  0  1.033278  0
H  H17  1  0.69232181  0.73860537  0.09474331  1  0  0.100194  0  0.970541  0  0  0.108195  0  1.03332  0  0  0.110795  0  1.033738  0  0.093591  0  0.104253  0.106276  0  1.033294  0
H  H18  1  0.80767656  0.23860510  0.09474464  1  0  0.100192  0  0.970527  0  0  0.108193  0  1.03331  0  0  0.110793  0  1.033728  0  0.093587  0  0.104247  0.106274  0  1.033284  0
H  H19  1  0.30767664  0.26139517  0.90525546  1  0  0.100221  0  0.970496  0  0  0.108202  0  1.033297  0  0  0.110799  0  1.033723  0  0.093554  0  0.10425  0.106282  0  1.033271  0
H  H20  1  0.90543127  0.74833977  0.79924158  1  0  0.072857  0  0.965844  0  0  0.080187  0  1.032583  0  0  0.082064  0  1.031677  0  0.06642  0  0.116325  0.07876  0  1.033357  0
H  H21  1  0.40543135  0.75166184  0.20075973  1  0  0.072856  0  0.96585  0  0  0.080169  0  1.032614  0  0  0.082045  0  1.031707  0  0.066399  0  0.11631  0.078742  0  1.033387  0
H  H22  1  0.09456998  0.25166157  0.20076034  1  0  0.072845  0  0.965874  0  0  0.080158  0  1.03262  0  0  0.082035  0  1.031712  0  0.06638  0  0.116313  0.078731  0  1.033394  0
H  H23  1  0.59456990  0.24833869  0.79924047  1  0  0.072872  0  0.965875  0  0  0.080182  0  1.032623  0  0  0.082058  0  1.031717  0  0.066386  0  0.11632  0.078756  0  1.033396  0
H  H24  1  0.61613335  0.96145495  0.05010484  1  0  0.076152  0  0.930366  0  0  0.087116  0  0.992282  0  0  0.089728  0  0.990101  0  0.07178  0  0.112181  0.085198  0  0.993904  0
H  H25  1  0.11613483  0.53854505  0.94989588  1  0  0.076178  0  0.930389  0  0  0.087142  0  0.992301  0  0  0.089757  0  0.99012  0  0.071744  0  0.112193  0.085223  0  0.993922  0
H  H26  1  0.38386649  0.03854558  0.94989607  1  0  0.076184  0  0.930345  0  0  0.087144  0  0.992265  0  0  0.08976  0  0.990083  0  0.071572  0  0.112193  0.085226  0  0.993886  0
H  H27  1  0.88386361  0.46145468  0.05010403  1  0  0.076189  0  0.930374  0  0  0.087144  0  0.99229  0  0  0.089759  0  0.99011  0  0.071623  0  0.112192  0.085226  0  0.993912  0
H  H28  1  0.53870967  0.09365728  0.26724381  1  0  0.327804  0  0.911696  0  0  0.306787  0  0.975907  0  0  0.315879  0  0.96806  0  0.553616  0  0.317446  0.3004  0  0.981457  0
H  H29  1  0.03871114  0.40634219  0.73275600  1  0  0.327808  0  0.911671  0  0  0.306792  0  0.975881  0  0  0.315884  0  0.968035  0  0.553619  0  0.317453  0.300406  0  0.981431  0
H  H30  1  0.46128878  0.90634326  0.73275567  1  0  0.327825  0  0.911653  0  0  0.30681  0  0.97586  0  0  0.315899  0  0.968014  0  0.553625  0  0.317459  0.300425  0  0.981409  0
H  H31  1  0.96129010  0.59365594  0.26724332  1  0  0.327821  0  0.911688  0  0  0.306805  0  0.9759  0  0  0.315897  0  0.968053  0  0.553459  0  0.317447  0.300415  0  0.981452  0
H  H32  1  0.60322357  0.26755554  0.24186883  1  0  0.3893  0  0.928472  0  0  0.347894  0  1.011539  0  0  0.359461  0  0.9946  0  0.633514  0  0.281736  0.33974  0  1.023453  0
H  H33  1  0.10322085  0.23244231  0.75813039  1  0  0.389283  0  0.928494  0  0  0.347877  0  1.011561  0  0  0.359444  0  0.994622  0  0.633514  0  0.28172  0.339722  0  1.023477  0
H  H34  1  0.39677767  0.73244419  0.75813108  1  0  0.389295  0  0.928483  0  0  0.347892  0  1.011546  0  0  0.359458  0  0.994607  0  0.63352  0  0.281724  0.339736  0  1.023463  0
H  H35  1  0.89677760  0.76755661  0.24186922  1  0  0.389264  0  0.928526  0  0  0.347852  0  1.011604  0  0  0.359419  0  0.994664  0  0.633521  0  0.281714  0.339696  0  1.02352  0
H  H36  1  0.43061509  0.19012629  0.17444594  1  0  0.383385  0  0.93767  0  0  0.340351  0  1.020506  0  0  0.352031  0  1.00373  0  0.624047  0  0.275888  0.332149  0  1.032248  0
H  H37  1  0.93061361  0.30987157  0.82555328  1  0  0.383407  0  0.93765  0  0  0.340379  0  1.020476  0  0  0.352059  0  1.0037  0  0.624077  0  0.275903  0.332177  0  1.032219  0
H  H38  1  0.56938616  0.80987264  0.82555295  1  0  0.38337  0  0.937697  0  0  0.340338  0  1.02053  0  0  0.352016  0  1.003755  0  0.624083  0  0.275882  0.332136  0  1.032272  0
H  H39  1  0.06938624  0.69012736  0.17444633  1  0  0.383345  0  0.937724  0  0  0.340312  0  1.020561  0  0  0.35199  0  1.003786  0  0.62404  0  0.275872  0.332109  0  1.032304  0
C  C40  1  0.28063444  0.03139833  0.37778974  1  0  0.647705  0  3.9813  0  0  0.601045  0  4.280416  0  0  0.635414  0  4.26965  0  1.608363  0  0.21471  0.577674  0  4.287083  0
C  C41  1  0.78063156  0.46860113  0.62221006  1  0  0.647804  0  3.981286  0  0  0.601112  0  4.280436  0  0  0.635485  0  4.269665  0  1.608368  0  0.214735  0.577741  0  4.287104  0
C  C42  1  0.71936681  0.96860060  0.62220987  1  0  0.647874  0  3.981168  0  0  0.601194  0  4.2803  0  0  0.635565  0  4.269534  0  1.608421  0  0.214788  0.577823  0  4.286967  0
C  C43  1  0.21936829  0.53139538  0.37778795  1  0  0.647732  0  3.981153  0  0  0.601062  0  4.280284  0  0  0.635431  0  4.269517  0  1.608114  0  0.214694  0.577695  0  4.286953  0
C  C44  1  0.46345535  0.97930498  0.33591527  1  0  0.028966  0  3.639697  0  0  0.012255  0  3.902705  0  0  0.012303  0  3.918895  0  0.403172  0  0.10074  0.012169  0  3.892041  0
C  C45  1  0.96345387  0.52069422  0.66408515  1  0  0.028975  0  3.639701  0  0  0.012309  0  3.902678  0  0  0.012355  0  3.918873  0  0.403178  0  0.100802  0.012226  0  3.892012  0
C  C46  1  0.53654450  0.02069556  0.66408492  1  0  0.028902  0  3.639792  0  0  0.012234  0  3.902781  0  0  0.012275  0  3.918978  0  0.403191  0  0.100724  0.012149  0  3.892112  0
C  C47  1  0.03654598  0.47930471  0.33591518  1  0  0.028955  0  3.639751  0  0  0.01227  0  3.902757  0  0  0.012323  0  3.918946  0  0.403161  0  0.100749  0.012168  0  3.8921  0
C  C48  1  0.57263531  0.89461497  0.34051933  1  0  0.001501  0  3.717481  0  0  -0.003802  0  3.983067  0  0  -0.005196  0  3.999953  0  0.382434  0  0.091659  -0.00298  0  3.971798  0
C  C49  1  0.07263259  0.60538423  0.65947966  1  0  0.001441  0  3.717489  0  0  -0.003895  0  3.98311  0  0  -0.005294  0  4.000003  0  0.382527  0  0.091672  -0.003077  0  3.971847  0
C  C50  1  0.42736733  0.10538557  0.65947872  1  0  0.001554  0  3.717429  0  0  -0.003806  0  3.983077  0  0  -0.005205  0  3.999972  0  0.382485  0  0.09171  -0.002974  0  3.971795  0
C  C51  1  0.92736726  0.39461390  0.34052036  1  0  0.001532  0  3.717308  0  0  -0.003823  0  3.982947  0  0  -0.005221  0  3.99984  0  0.3825  0  0.091661  -0.002985  0  3.971665  0
C  C52  1  0.54675132  0.82364151  0.39940912  1  0  0.652561  0  3.961545  0  0  0.605034  0  4.254903  0  0  0.639353  0  4.245323  0  1.601132  0  0.215337  0.581728  0  4.260591  0
C  C53  1  0.04674720  0.67635608  0.60059071  1  0  0.652556  0  3.961457  0  0  0.605024  0  4.254835  0  0  0.639346  0  4.245256  0  1.601109  0  0.21531  0.58172  0  4.260523  0
C  C54  1  0.45325132  0.17635823  0.60059007  1  0  0.652553  0  3.961524  0  0  0.605046  0  4.254866  0  0  0.639369  0  4.245285  0  1.60111  0  0.215288  0.581738  0  4.26055  0
C  C55  1  0.95324985  0.32364204  0.39941074  1  0  0.652561  0  3.961594  0  0  0.605069  0  4.254909  0  0  0.639386  0  4.245323  0  1.601115  0  0.215336  0.581761  0  4.260595  0
C  C56  1  0.73586046  0.97129802  0.25622329  1  0  0.392773  0  3.705041  0  0  0.363907  0  3.985091  0  0  0.37822  0  3.99822  0  1.031499  0  0.234588  0.354598  0  3.975803  0
C  C57  1  0.23586054  0.52870198  0.74377600  1  0  0.39274  0  3.704989  0  0  0.36386  0  3.985023  0  0  0.378173  0  3.998151  0  1.031449  0  0.234556  0.354546  0  3.975743  0
C  C58  1  0.26413938  0.02870332  0.74377720  1  0  0.392841  0  3.70495  0  0  0.363956  0  3.984984  0  0  0.37827  0  3.998113  0  1.031646  0  0.234605  0.354648  0  3.975698  0
C  C59  1  0.76413790  0.47129614  0.25622332  1  0  0.392804  0  3.704831  0  0  0.363955  0  3.984906  0  0  0.378267  0  3.998032  0  1.031668  0  0.234583  0.354637  0  3.975626  0
C  C60  1  0.88714778  0.00324400  0.20002704  1  0  -0.253818  0  3.713165  0  0  -0.30144  0  3.957295  0  0  -0.302984  0  3.965686  0  -0.024778  0  -0.140379  -0.300249  0  3.951527  0
C  C61  1  0.38714926  0.49675708  0.79997335  1  0  -0.253837  0  3.713222  0  0  -0.301371  0  3.957227  0  0  -0.30292  0  3.965626  0  -0.02467  0  -0.140368  -0.300187  0  3.951469  0
C  C62  1  0.11285207  0.99675735  0.79997345  1  0  -0.25388  0  3.713263  0  0  -0.301437  0  3.957262  0  0  -0.303001  0  3.965682  0  -0.024684  0  -0.140386  -0.300255  0  3.951504  0
C  C63  1  0.61285059  0.50324265  0.20002584  1  0  -0.253806  0  3.713206  0  0  -0.301465  0  3.957329  0  0  -0.303002  0  3.965712  0  -0.024674  0  -0.140396  -0.300283  0  3.951575  0
C  C64  1  0.89946095  0.93084307  0.08724894  1  0  0.065217  0  3.742548  0  0  0.087744  0  3.984371  0  0  0.083606  0  4.010274  0  -0.012521  0  -0.00191  0.090267  0  3.966877  0
C  C65  1  0.39946243  0.56915774  0.91275136  1  0  0.065206  0  3.742539  0  0  0.087723  0  3.984343  0  0  0.083587  0  4.010248  0  -0.01248  0  -0.001945  0.090246  0  3.96685  0
C  C66  1  0.10053750  0.06915908  0.91275185  1  0  0.065142  0  3.742706  0  0  0.087752  0  3.984372  0  0  0.083622  0  4.010277  0  -0.012506  0  -0.001929  0.090274  0  3.96688  0
C  C67  1  0.60053882  0.43084280  0.08724741  1  0  0.065147  0  3.74261  0  0  0.08777  0  3.984318  0  0  0.083633  0  4.01022  0  -0.01254  0  -0.001918  0.090293  0  3.966826  0
C  C68  1  0.06238375  0.87319172  0.04530456  1  0  -0.069418  0  3.710054  0  0  -0.095118  0  3.955914  0  0  -0.093921  0  3.976365  0  -0.099654  0  -0.07114  -0.095546  0  3.941939  0
C  C69  1  0.56238507  0.62680908  0.95469573  1  0  -0.069403  0  3.71004  0  0  -0.095116  0  3.955917  0  0  -0.093918  0  3.976366  0  -0.099686  0  -0.071142  -0.095543  0  3.941941  0
C  C70  1  0.93761750  0.12680882  0.95469635  1  0  -0.069379  0  3.710073  0  0  -0.095114  0  3.955916  0  0  -0.093917  0  3.976364  0  -0.099668  0  -0.071143  -0.09554  0  3.94194  0
C  C71  1  0.43761477  0.37319145  0.04530303  1  0  -0.069394  0  3.709979  0  0  -0.095125  0  3.955817  0  0  -0.093928  0  3.976264  0  -0.099665  0  -0.071167  -0.095551  0  3.94184  0
C  C72  1  0.06749836  0.80703032  0.94068776  1  0  -0.116076  0  3.758246  0  0  -0.127651  0  4.01196  0  0  -0.13404  0  4.034851  0  0.00025  0  -0.087295  -0.123547  0  3.996536  0
C  C73  1  0.56749829  0.69297049  0.05931253  1  0  -0.11612  0  3.758375  0  0  -0.127696  0  4.012089  0  0  -0.134086  0  4.034975  0  0.000267  0  -0.087322  -0.123591  0  3.996664  0
C  C74  1  0.93250288  0.19297022  0.05931386  1  0  -0.116153  0  3.758394  0  0  -0.127736  0  4.012111  0  0  -0.134126  0  4.034998  0  0.000292  0  -0.087326  -0.123631  0  3.996685  0
C  C75  1  0.43250016  0.30703086  0.94068653  1  0  -0.116096  0  3.758288  0  0  -0.127654  0  4.011997  0  0  -0.134045  0  4.034885  0  0.000299  0  -0.087278  -0.123549  0  3.996572  0
C  C76  1  0.90787374  0.79958523  0.88120118  1  0  0.110026  0  3.721791  0  0  0.080555  0  3.97536  0  0  0.085596  0  3.993989  0  0.524394  0  0.041688  0.077353  0  3.962672  0
C  C77  1  0.40787381  0.70041558  0.11879911  1  0  0.110074  0  3.721962  0  0  0.080618  0  3.975512  0  0  0.085661  0  3.994141  0  0.524396  0  0.041757  0.077416  0  3.962819  0
C  C78  1  0.09212611  0.20041611  0.11880074  1  0  0.110109  0  3.722005  0  0  0.080667  0  3.975527  0  0  0.085711  0  3.994154  0  0.524355  0  0.041751  0.077464  0  3.962839  0
C  C79  1  0.59212603  0.29958416  0.88119936  1  0  0.109968  0  3.721951  0  0  0.080531  0  3.975482  0  0  0.085576  0  3.994107  0  0.524382  0  0.041692  0.077328  0  3.962794  0
C  C80  1  0.74670731  0.91802325  0.02068171  1  0  0.059171  0  3.71757  0  0  0.022559  0  3.976265  0  0  0.027493  0  3.993865  0  0.502785  0  0.041245  0.019471  0  3.964201  0
C  C81  1  0.24670879  0.58197755  0.97931930  1  0  0.059123  0  3.717687  0  0  0.022499  0  3.976393  0  0  0.027429  0  3.993998  0  0.502775  0  0.04123  0.019413  0  3.964326  0
C  C82  1  0.25328973  0.08197890  0.97931979  1  0  0.059148  0  3.71771  0  0  0.022503  0  3.976382  0  0  0.027434  0  3.993984  0  0.502977  0  0.041222  0.019416  0  3.964317  0
C  C83  1  0.75329105  0.41802379  0.02068119  1  0  0.059129  0  3.717592  0  0  0.022506  0  3.976245  0  0  0.027435  0  3.993851  0  0.502909  0  0.041241  0.019421  0  3.964179  0
N  N84  1  0.74041908  0.89019251  0.28911048  1  0  -0.456717  0  3.049415  0  0  -0.41065  0  3.310713  0  0  -0.425899  0  3.324452  0  -1.192848  0  -0.317535  -0.40017  0  3.301227  0
N  N85  1  0.24041776  0.60980669  0.71088923  1  0  -0.456665  0  3.04932  0  0  -0.41059  0  3.310626  0  0  -0.425836  0  3.324364  0  -1.192934  0  -0.317524  -0.400107  0  3.301143  0
N  N86  1  0.25958076  0.10980722  0.71088871  1  0  -0.456814  0  3.049344  0  0  -0.410736  0  3.310664  0  0  -0.425982  0  3.324403  0  -1.193058  0  -0.317578  -0.400258  0  3.301175  0
N  N87  1  0.75958068  0.39019224  0.28911109  1  0  -0.456767  0  3.049221  0  0  -0.410688  0  3.310536  0  0  -0.425934  0  3.324276  0  -1.193086  0  -0.317544  -0.400211  0  3.301049  0
N  N88  1  0.57140707  0.02520093  0.28196450  1  0  -0.351135  0  3.402323  0  0  -0.292148  0  3.633369  0  0  -0.308282  0  3.647071  0  -1.301862  0  -0.363502  -0.281419  0  3.624155  0
N  N89  1  0.07140715  0.47479853  0.71803531  1  0  -0.351139  0  3.402314  0  0  -0.292168  0  3.633358  0  0  -0.308296  0  3.647058  0  -1.301823  0  -0.363525  -0.281437  0  3.624144  0
N  N90  1  0.42859277  0.97479961  0.71803570  1  0  -0.351167  0  3.402239  0  0  -0.292183  0  3.633278  0  0  -0.308302  0  3.646973  0  -1.301848  0  -0.363529  -0.281458  0  3.624068  0
N  N91  1  0.92859549  0.52519959  0.28196472  1  0  -0.351148  0  3.402272  0  0  -0.29218  0  3.633331  0  0  -0.308315  0  3.647034  0  -1.301651  0  -0.363495  -0.281437  0  3.624116  0
N  N92  1  0.74901813  0.85358125  0.92030810  1  0  -0.313877  0  3.180444  0  0  -0.251723  0  3.43122  0  0  -0.265013  0  3.447269  0  -1.241601  0  -0.310279  -0.242641  0  3.420113  0
N  N93  1  0.24901961  0.64641875  0.07969191  1  0  -0.313849  0  3.180627  0  0  -0.2517  0  3.431398  0  0  -0.264992  0  3.447451  0  -1.241612  0  -0.310291  -0.242618  0  3.420291  0
N  N94  1  0.25098031  0.14641929  0.07969210  1  0  -0.313865  0  3.180611  0  0  -0.251721  0  3.43138  0  0  -0.265011  0  3.447431  0  -1.241618  0  -0.310287  -0.242639  0  3.420272  0
N  N95  1  0.75098023  0.35358098  0.92030728  1  0  -0.313827  0  3.180483  0  0  -0.2517  0  3.43126  0  0  -0.26499  0  3.447311  0  -1.241527  0  -0.310291  -0.242618  0  3.420153  0
O  O96  1  0.25630500  0.12502583  0.37693749  1  0  -0.707005  0  1.980151  0  0  -0.6524  0  2.217846  0  0  -0.677939  0  2.209618  0  -1.201416  0  -0.373537  -0.63443  0  2.222967  0
O  O97  1  0.75630352  0.37497444  0.62306261  1  0  -0.707019  0  1.980168  0  0  -0.652413  0  2.217859  0  0  -0.677957  0  2.209627  0  -1.201423  0  -0.37353  -0.634441  0  2.222976  0
O  O98  1  0.74369344  0.87497310  0.62306140  1  0  -0.707061  0  1.980095  0  0  -0.652463  0  2.21781  0  0  -0.678006  0  2.209578  0  -1.201448  0  -0.373572  -0.634492  0  2.222929  0
O  O99  1  0.24369632  0.62502368  0.37693742  1  0  -0.707012  0  1.979998  0  0  -0.652394  0  2.217662  0  0  -0.677938  0  2.209434  0  -1.201324  0  -0.373539  -0.63442  0  2.22277  0
O  O100  1  0.15824778  0.98382161  0.41115964  1  0  -0.733723  0  2.002647  0  0  -0.677557  0  2.25303  0  0  -0.703994  0  2.243253  0  -1.216273  0  -0.397722  -0.658944  0  2.259326  0
O  O101  1  0.65824771  0.51617919  0.58884208  1  0  -0.73379  0  2.00264  0  0  -0.677617  0  2.253056  0  0  -0.704053  0  2.243276  0  -1.216293  0  -0.397763  -0.659006  0  2.259353  0
O  O102  1  0.84175346  0.01617731  0.58884068  1  0  -0.733774  0  2.00255  0  0  -0.677615  0  2.252979  0  0  -0.704053  0  2.2432  0  -1.216284  0  -0.397763  -0.659002  0  2.259275  0
O  O103  1  0.34175494  0.48381813  0.41115551  1  0  -0.73374  0  2.002602  0  0  -0.677577  0  2.253006  0  0  -0.70401  0  2.243229  0  -1.216071  0  -0.397717  -0.658966  0  2.259302  0
O  O104  1  0.40933033  0.83947188  0.46076729  1  0  -0.71347  0  2.045228  0  0  -0.655689  0  2.291991  0  0  -0.682752  0  2.284765  0  -1.22548  0  -0.398752  -0.63659  0  2.296367  0
O  O105  1  0.90932465  0.66052490  0.53923296  1  0  -0.713439  0  2.045129  0  0  -0.655653  0  2.2919  0  0  -0.682709  0  2.284659  0  -1.22556  0  -0.39872  -0.636554  0  2.296276  0
O  O106  1  0.59067372  0.16052705  0.53923303  1  0  -0.713433  0  2.04513  0  0  -0.655656  0  2.291894  0  0  -0.682712  0  2.28465  0  -1.225554  0  -0.398706  -0.63657  0  2.2963  0
O  O107  1  0.09067099  0.33947403  0.46076950  1  0  -0.713465  0  2.045112  0  0  -0.655697  0  2.291879  0  0  -0.682797  0  2.284742  0  -1.22556  0  -0.398759  -0.636599  0  2.296258  0
O  O108  1  0.67267983  0.75215770  0.38821165  1  0  -0.723575  0  1.975066  0  0  -0.662818  0  2.216545  0  0  -0.689652  0  2.208415  0  -1.223781  0  -0.399983  -0.643779  0  2.221508  0
O  O109  1  0.17267431  0.74784150  0.61178806  1  0  -0.723573  0  1.974946  0  0  -0.662832  0  2.216455  0  0  -0.689666  0  2.208327  0  -1.223698  0  -0.40001  -0.643791  0  2.221416  0
O  O110  1  0.32732562  0.24784284  0.61178712  1  0  -0.723558  0  1.975084  0  0  -0.662795  0  2.216531  0  0  -0.689628  0  2.2084  0  -1.223733  0  -0.399972  -0.643755  0  2.221494  0
O  O111  1  0.82732414  0.25215663  0.38821126  1  0  -0.723556  0  1.975139  0  0  -0.662799  0  2.216591  0  0  -0.689628  0  2.208463  0  -1.223757  0  -0.399966  -0.643758  0  2.221553  0
O  O112  1  0.51460151  0.20820170  0.23618044  1  0  -0.866343  0  1.929411  0  0  -0.807282  0  2.127115  0  0  -0.826469  0  2.093215  0  -1.309251  0  -0.607193  -0.793577  0  2.150682  0
O  O113  1  0.01460018  0.29179857  0.76381966  1  0  -0.866327  0  1.929395  0  0  -0.807266  0  2.12708  0  0  -0.826452  0  2.093182  0  -1.309286  0  -0.607199  -0.79356  0  2.15065  0
O  O114  1  0.48539974  0.79179803  0.76381875  1  0  -0.866308  0  1.929435  0  0  -0.807253  0  2.127138  0  0  -0.82644  0  2.09324  0  -1.309295  0  -0.607177  -0.793548  0  2.150705  0
O  O115  1  0.98540106  0.70820036  0.23617995  1  0  -0.86627  0  1.929455  0  0  -0.807199  0  2.127136  0  0  -0.826386  0  2.09324  0  -1.309246  0  -0.607163  -0.793493  0  2.150707  0
