# generated using pymatgen
data_Pr2H10C10O13
_symmetry_space_group_name_H-M   'P 1'
_cell_length_a   8.31657423
_cell_length_b   9.43677104
_cell_length_c   11.60260530
_cell_angle_alpha   79.67213797
_cell_angle_beta   70.01007036
_cell_angle_gamma   75.50226584
_symmetry_Int_Tables_number   1
_chemical_formula_structural   Pr2H10C10O13
_chemical_formula_sum   'Pr4 H20 C20 O26'
_cell_volume   824.07666469
_cell_formula_units_Z   2
loop_
 _symmetry_equiv_pos_site_id
 _symmetry_equiv_pos_as_xyz
  1  'x, y, z'
loop_
 _atom_site_type_symbol
 _atom_site_label
 _atom_site_symmetry_multiplicity
 _atom_site_fract_x
 _atom_site_fract_y
 _atom_site_fract_z
 _atom_site_occupancy
 _atom_site_hle17_bader_spin_density
 _atom_site_hle17_ddec_charge
 _atom_site_hle17_ddec_spin_density
 _atom_site_hle17_ddec_sum_bond_order
 _atom_site_hle17_magmom
 _atom_site_hse06_10hf_bader_spin_density
 _atom_site_hse06_10hf_ddec_charge
 _atom_site_hse06_10hf_ddec_spin_density
 _atom_site_hse06_10hf_ddec_sum_bond_order
 _atom_site_hse06_10hf_magmom
 _atom_site_hse06_bader_spin_density
 _atom_site_hse06_ddec_charge
 _atom_site_hse06_ddec_spin_density
 _atom_site_hse06_ddec_sum_bond_order
 _atom_site_hse06_magmom
 _atom_site_pbe_bader_spin_density
 _atom_site_pbe_cm5_charge
 _atom_site_pbe_ddec_charge
 _atom_site_pbe_ddec_spin_density
 _atom_site_pbe_ddec_sum_bond_order
 _atom_site_pbe_magmom
Pr  Pr0  1  0.24993787  0.02857239  0.48674332  1  0  2.374097  0  1.575845  0  0  2.265737  0  1.924041  0  0  2.304134  0  1.884907  0  0  1.48665  2.189076  0  2.042789  0
Pr  Pr1  1  0.75006574  0.97142569  0.51325295  1  0  2.374079  0  1.575865  0  0  2.265716  0  1.924061  0  0  2.304117  0  1.884925  0  0  1.486631  2.189001  0  2.042899  0
Pr  Pr2  1  0.45186643  0.64672583  0.62831371  1  0  2.333782  0  1.694814  0  0  2.175425  0  2.151589  0  0  2.259646  0  2.023169  0  0  1.528381  2.143653  0  2.185258  0
Pr  Pr3  1  0.54813073  0.35327779  0.37168589  1  0  2.333765  0  1.694829  0  0  2.175391  0  2.151642  0  0  2.259627  0  2.023188  0  0  1.528394  2.143618  0  2.185313  0
H  H4  1  0.50919405  0.84650141  0.12889954  1  0  0.070705  0  0.916159  0  0  0.077785  0  0.976759  0  0  0.080172  0  0.974393  0  0  0.110573  0.075512  0  0.979336  0
H  H5  1  0.49081031  0.15349888  0.87109882  1  0  0.070663  0  0.916143  0  0  0.077723  0  0.976728  0  0  0.080107  0  0.974365  0  0  0.110552  0.07545  0  0.979307  0
H  H6  1  0.21818967  0.95751885  0.11038969  1  0  0.134934  0  0.89333  0  0  0.153443  0  0.940613  0  0  0.156349  0  0.939299  0  0  0.117562  0.151255  0  0.94215  0
H  H7  1  0.78181363  0.04248035  0.88961167  1  0  0.13496  0  0.893276  0  0  0.153455  0  0.940556  0  0  0.156356  0  0.939238  0  0  0.117575  0.151266  0  0.942092  0
H  H8  1  0.23934876  0.76714394  0.15413447  1  0  0.120656  0  0.923427  0  0  0.135635  0  0.98315  0  0  0.137346  0  0.98319  0  0  0.109863  0.134534  0  0.983106  0
H  H9  1  0.76065430  0.23285636  0.84586507  1  0  0.120653  0  0.92342  0  0  0.135611  0  0.98315  0  0  0.137315  0  0.983188  0  0  0.109852  0.134509  0  0.983105  0
H  H10  1  0.04311746  0.34162298  0.75055145  1  0  0.13624  0  0.922255  0  0  0.149017  0  0.980548  0  0  0.152035  0  0.978881  0  0  0.115348  0.146947  0  0.981591  0
H  H11  1  0.95688846  0.65837619  0.24944411  1  0  0.136234  0  0.922257  0  0  0.148992  0  0.980575  0  0  0.152005  0  0.978916  0  0  0.115331  0.14692  0  0.981619  0
H  H12  1  0.93172992  0.46459067  0.65698143  1  0  0.148408  0  0.893086  0  0  0.165674  0  0.942876  0  0  0.168334  0  0.942329  0  0  0.128877  0.163703  0  0.94355  0
H  H13  1  0.06827060  0.53540963  0.34301699  1  0  0.148419  0  0.893128  0  0  0.165683  0  0.94292  0  0  0.168344  0  0.942373  0  0  0.12889  0.163712  0  0.943594  0
H  H14  1  0.91724446  0.58508246  0.83299070  1  0  0.06923  0  0.904759  0  0  0.079373  0  0.959838  0  0  0.080901  0  0.958733  0  0  0.115732  0.078117  0  0.960898  0
H  H15  1  0.08275884  0.41491126  0.16701319  1  0  0.069184  0  0.904821  0  0  0.0794  0  0.959842  0  0  0.080888  0  0.958785  0  0  0.115752  0.078146  0  0.9609  0
H  H16  1  0.53610862  0.57866968  0.09130862  1  0  0.117216  0  0.998251  0  0  0.119098  0  1.071973  0  0  0.124141  0  1.068612  0  0  0.10586  0.115413  0  1.074645  0
H  H17  1  0.46388061  0.42132959  0.90869439  1  0  0.117221  0  0.998264  0  0  0.119065  0  1.072024  0  0  0.124104  0  1.06867  0  0  0.105858  0.115383  0  1.074696  0
H  H18  1  0.38665934  0.09040472  0.18577537  1  0  0.393489  0  0.906305  0  0  0.365005  0  0.980466  0  0  0.3774  0  0.96684  0  0  0.298297  0.356454  0  0.989237  0
H  H19  1  0.61334423  0.90959338  0.81422522  1  0  0.393459  0  0.906364  0  0  0.364959  0  0.980557  0  0  0.377353  0  0.966915  0  0  0.298269  0.356407  0  0.989328  0
H  H20  1  0.21372993  0.45424306  0.83395868  1  0  0.397365  0  0.817555  0  0  0.386591  0  0.864337  0  0  0.394084  0  0.856935  0  0  0.34144  0.38128  0  0.870002  0
H  H21  1  0.78627008  0.54575395  0.16604035  1  0  0.397394  0  0.817504  0  0  0.386623  0  0.86428  0  0  0.394116  0  0.856878  0  0  0.341426  0.381313  0  0.869944  0
H  H22  1  0.42173303  0.94049473  0.68714431  1  0  0.439718  0  0.850011  0  0  0.413852  0  0.905767  0  0  0.424486  0  0.889789  0  0  0.306123  0.406364  0  0.916852  0
H  H23  1  0.57826902  0.05950447  0.31285477  1  0  0.439755  0  0.849957  0  0  0.413898  0  0.905697  0  0  0.424532  0  0.88972  0  0  0.306152  0.40641  0  0.916783  0
C  C24  1  0.43274727  0.74467159  0.31338032  1  0  0.707942  0  3.782828  0  0  0.662558  0  4.081466  0  0  0.696453  0  4.072152  0  0  0.240939  0.639807  0  4.086389  0
C  C25  1  0.56725477  0.25532761  0.68661962  1  0  0.707965  0  3.782912  0  0  0.662566  0  4.081502  0  0  0.696459  0  4.072191  0  0  0.240971  0.639815  0  4.086422  0
C  C26  1  0.39963380  0.86921654  0.21435006  1  0  0.139142  0  3.644589  0  0  0.116177  0  3.894675  0  0  0.118894  0  3.901667  0  0  0.000738  0.114533  0  3.888524  0
C  C27  1  0.60036853  0.13078155  0.78564738  1  0  0.139138  0  3.644576  0  0  0.116319  0  3.894412  0  0  0.119031  0  3.901396  0  0  0.000739  0.114668  0  3.888264  0
C  C28  1  0.23117611  0.87212229  0.18667774  1  0  -0.308152  0  3.630606  0  0  -0.353802  0  3.880286  0  0  -0.359548  0  3.886508  0  0  -0.155167  -0.3504  0  3.876586  0
C  C29  1  0.76882720  0.12787691  0.81332275  1  0  -0.308139  0  3.630519  0  0  -0.353764  0  3.880096  0  0  -0.359474  0  3.886273  0  0  -0.155122  -0.350354  0  3.876385  0
C  C30  1  0.06592649  0.90068857  0.29513165  1  0  0.736218  0  3.824546  0  0  0.691915  0  4.13318  0  0  0.725273  0  4.122983  0  0  0.210528  0.669768  0  4.133296  0
C  C31  1  0.93407630  0.09931283  0.70486864  1  0  0.736186  0  3.824547  0  0  0.691874  0  4.133181  0  0  0.725222  0  4.122985  0  0  0.210483  0.669727  0  4.133299  0
C  C32  1  0.20882322  0.41221644  0.57664337  1  0  0.771353  0  3.78618  0  0  0.727481  0  4.082386  0  0  0.761016  0  4.076423  0  0  0.231808  0.703863  0  4.088811  0
C  C33  1  0.79117909  0.58778715  0.42335327  1  0  0.771297  0  3.786326  0  0  0.727478  0  4.082457  0  0  0.761005  0  4.0765  0  0  0.231764  0.703859  0  4.088885  0
C  C34  1  0.04803053  0.44382336  0.68739980  1  0  -0.327351  0  3.620088  0  0  -0.369973  0  3.866242  0  0  -0.376145  0  3.871194  0  0  -0.148883  -0.365422  0  3.862463  0
C  C35  1  0.95196920  0.55618024  0.31259919  1  0  -0.327303  0  3.620083  0  0  -0.369933  0  3.8663  0  0  -0.376098  0  3.871243  0  0  -0.148884  -0.365382  0  3.86252  0
C  C36  1  0.03780430  0.57387911  0.75377634  1  0  0.148796  0  3.586332  0  0  0.123852  0  3.8422  0  0  0.127501  0  3.849117  0  0  0.007751  0.120871  0  3.839371  0
C  C37  1  0.96219544  0.42611900  0.24622431  1  0  0.148861  0  3.586283  0  0  0.123776  0  3.842228  0  0  0.127447  0  3.849133  0  0  0.007712  0.120798  0  3.839399  0
C  C38  1  0.02540478  0.72163856  0.67197270  1  0  0.704797  0  3.79757  0  0  0.662732  0  4.091344  0  0  0.695441  0  4.083361  0  0  0.241737  0.639763  0  4.095397  0
C  C39  1  0.97459111  0.27835958  0.32802974  1  0  0.704588  0  3.797767  0  0  0.66274  0  4.091203  0  0  0.695459  0  4.083198  0  0  0.241732  0.639764  0  4.095272  0
C  C40  1  0.54833439  0.68285544  0.90319130  1  0  0.722275  0  3.879278  0  0  0.681042  0  4.168473  0  0  0.715268  0  4.15925  0  0  0.222452  0.658049  0  4.174195  0
C  C41  1  0.45166046  0.31714710  0.09681075  1  0  0.722311  0  3.879451  0  0  0.681044  0  4.168695  0  0  0.715271  0  4.159467  0  0  0.222473  0.65805  0  4.174418  0
C  C42  1  0.52124447  0.56205896  0.00514237  1  0  -0.185021  0  3.670309  0  0  -0.204195  0  3.924314  0  0  -0.210143  0  3.938374  0  0  -0.086983  -0.199915  0  3.913725  0
C  C43  1  0.47874679  0.43794249  0.99486069  1  0  -0.184959  0  3.670381  0  0  -0.204088  0  3.924409  0  0  -0.210034  0  3.938471  0  0  -0.086905  -0.199813  0  3.913821  0
O  O44  1  0.39704207  0.00410955  0.25355683  1  0  -0.657323  0  2.215521  0  0  -0.599759  0  2.443218  0  0  -0.61679  0  2.430183  0  0  -0.436173  -0.583393  0  2.452169  0
O  O45  1  0.60295766  0.99588856  0.74644382  1  0  -0.657289  0  2.215538  0  0  -0.599771  0  2.443201  0  0  -0.616803  0  2.430154  0  0  -0.43615  -0.583399  0  2.452153  0
O  O46  1  0.07899039  0.91122369  0.40108539  1  0  -0.829696  0  2.119495  0  0  -0.780163  0  2.372774  0  0  -0.803499  0  2.361557  0  0  -0.437168  -0.753257  0  2.379541  0
O  O47  1  0.92100984  0.08877773  0.59891553  1  0  -0.829623  0  2.119411  0  0  -0.780106  0  2.372735  0  0  -0.803447  0  2.361531  0  0  -0.43713  -0.753199  0  2.379505  0
O  O48  1  0.88704324  0.76671604  0.64480487  1  0  -0.665106  0  2.052315  0  0  -0.635094  0  2.311455  0  0  -0.657629  0  2.30295  0  0  -0.347114  -0.613936  0  2.318324  0
O  O49  1  0.11295543  0.23328100  0.35520051  1  0  -0.665061  0  2.052204  0  0  -0.635146  0  2.311286  0  0  -0.65768  0  2.302771  0  0  -0.347157  -0.613988  0  2.318158  0
O  O50  1  0.91893571  0.91146086  0.28198594  1  0  -0.667401  0  1.893014  0  0  -0.631159  0  2.116503  0  0  -0.652426  0  2.105846  0  0  -0.352229  -0.611901  0  2.123526  0
O  O51  1  0.08106864  0.08853942  0.71801242  1  0  -0.667405  0  1.892953  0  0  -0.631173  0  2.116454  0  0  -0.652443  0  2.105802  0  0  -0.352218  -0.611921  0  2.12348  0
O  O52  1  0.23840886  0.30139843  0.51943575  1  0  -0.746286  0  2.044881  0  0  -0.70215  0  2.301039  0  0  -0.728639  0  2.290279  0  0  -0.372044  -0.680983  0  2.309489  0
O  O53  1  0.76159474  0.69860515  0.48055972  1  0  -0.746308  0  2.044879  0  0  -0.702203  0  2.301023  0  0  -0.728688  0  2.290268  0  0  -0.372057  -0.681023  0  2.30946  0
O  O54  1  0.43104773  0.77913618  0.41546063  1  0  -0.756722  0  2.110953  0  0  -0.70623  0  2.365164  0  0  -0.733821  0  2.353876  0  0  -0.395793  -0.684725  0  2.371731  0
O  O55  1  0.56895635  0.22085972  0.58454102  1  0  -0.756681  0  2.110905  0  0  -0.706227  0  2.36518  0  0  -0.73382  0  2.353891  0  0  -0.395799  -0.684718  0  2.371749  0
O  O56  1  0.45199807  0.90644709  0.60612136  1  0  -1.228439  0  1.816785  0  0  -1.178656  0  2.05242  0  0  -1.204516  0  2.01961  0  0  -0.810296  -1.151718  0  2.076857  0
O  O57  1  0.54800526  0.09355210  0.39387654  1  0  -1.228488  0  1.816754  0  0  -1.178737  0  2.052422  0  0  -1.204598  0  2.019609  0  0  -0.810329  -1.151797  0  2.076862  0
O  O58  1  0.15480526  0.78666639  0.63964485  1  0  -0.776205  0  2.102976  0  0  -0.724026  0  2.350022  0  0  -0.753187  0  2.33919  0  0  -0.407285  -0.701865  0  2.356255  0
O  O59  1  0.84518908  0.21333285  0.36035866  1  0  -0.776115  0  2.103135  0  0  -0.723984  0  2.350051  0  0  -0.753155  0  2.339228  0  0  -0.407269  -0.701812  0  2.356287  0
O  O60  1  0.31582669  0.50009434  0.54020988  1  0  -0.810657  0  2.145216  0  0  -0.750119  0  2.396101  0  0  -0.783705  0  2.385034  0  0  -0.428925  -0.733431  0  2.403653  0
O  O61  1  0.68417383  0.49991145  0.45978600  1  0  -0.8106  0  2.145284  0  0  -0.750093  0  2.396173  0  0  -0.783677  0  2.385111  0  0  -0.428861  -0.733406  0  2.403727  0
O  O62  1  0.46382180  0.61476724  0.28554385  1  0  -0.722683  0  2.037469  0  0  -0.678712  0  2.29316  0  0  -0.708292  0  2.280876  0  0  -0.37642  -0.662394  0  2.300583  0
O  O63  1  0.53617845  0.38523417  0.71445533  1  0  -0.722688  0  2.037459  0  0  -0.678718  0  2.293142  0  0  -0.708295  0  2.280859  0  0  -0.376419  -0.662403  0  2.300565  0
O  O64  1  0.18614857  0.55498513  0.79715124  1  0  -0.61419  0  2.105239  0  0  -0.567997  0  2.32328  0  0  -0.585737  0  2.309952  0  0  -0.424646  -0.558628  0  2.332284  0
O  O65  1  0.81385273  0.44501187  0.20284748  1  0  -0.614174  0  2.105134  0  0  -0.567978  0  2.323224  0  0  -0.585715  0  2.309881  0  0  -0.42457  -0.558608  0  2.332223  0
O  O66  1  0.50920083  0.67717368  0.80701223  1  0  -0.771337  0  2.01823  0  0  -0.717431  0  2.276261  0  0  -0.747725  0  2.258461  0  0  -0.433799  -0.701097  0  2.285851  0
O  O67  1  0.49079222  0.32283106  0.19298992  1  0  -0.771403  0  2.018305  0  0  -0.717467  0  2.276338  0  0  -0.747763  0  2.258535  0  0  -0.433854  -0.701134  0  2.285929  0
O  O68  1  0.61059675  0.78555180  0.91871588  1  0  -0.599852  0  1.904507  0  0  -0.552928  0  2.114871  0  0  -0.577075  0  2.104251  0  0  -0.307782  -0.535882  0  2.121712  0
O  O69  1  0.38940400  0.21444741  0.08128523  1  0  -0.599834  0  1.904486  0  0  -0.552919  0  2.114875  0  0  -0.577064  0  2.104252  0  0  -0.307786  -0.535872  0  2.121716  0
