# generated using pymatgen
data_ZnH21C31N7O6
_symmetry_space_group_name_H-M   'P 1'
_cell_length_a   17.67897964
_cell_length_b   17.96666860
_cell_length_c   18.48102990
_cell_angle_alpha   65.48353418
_cell_angle_beta   61.42635742
_cell_angle_gamma   60.52653203
_symmetry_Int_Tables_number   1
_chemical_formula_structural   ZnH21C31N7O6
_chemical_formula_sum   'Zn4 H84 C124 N28 O24'
_cell_volume   4362.41000102
_cell_formula_units_Z   4
loop_
 _symmetry_equiv_pos_site_id
 _symmetry_equiv_pos_as_xyz
  1  'x, y, z'
loop_
 _atom_site_type_symbol
 _atom_site_label
 _atom_site_symmetry_multiplicity
 _atom_site_fract_x
 _atom_site_fract_y
 _atom_site_fract_z
 _atom_site_occupancy
 _atom_site_pbe_bader_charge
 _atom_site_pbe_bader_spin_density
 _atom_site_pbe_cm5_charge
 _atom_site_pbe_ddec_charge
 _atom_site_pbe_ddec_spin_density
 _atom_site_pbe_ddec_sum_bond_order
 _atom_site_pbe_magmom
Zn  Zn0  1  0.57439560  0.83728776  0.42111235  1  1.251053  0  0.693791  0.75602  0  2.389693  0
Zn  Zn1  1  0.83279670  0.66269428  0.07889632  1  1.257105  0  0.693697  0.755889  0  2.389406  0
Zn  Zn2  1  0.42560108  0.16271794  0.57888635  1  1.250805  0  0.693813  0.756043  0  2.389671  0
Zn  Zn3  1  0.16721101  0.33730967  0.92109537  1  1.257007  0  0.69369  0.755868  0  2.389449  0
H  H4  1  0.27457669  0.96049488  0.55561431  1  0.084174  0  0.107943  0.117451  0  0.989071  0
H  H5  1  0.10463376  0.98676749  0.60775853  1  0.088468  0  0.108954  0.112411  0  0.991507  0
H  H6  1  0.13771431  0.97333423  0.36712925  1  0.093795  0  0.104033  0.105163  0  1.02017  0
H  H7  1  0.30671694  0.94798839  0.31507097  1  0.08763  0  0.098789  0.097803  0  1.029699  0
H  H8  1  0.84247980  0.81363940  0.20490641  1  0.099646  0  0.100571  0.103823  0  1.037088  0
H  H9  1  0.97000577  0.85916497  0.08118371  1  0.086384  0  0.10203  0.10122  0  1.029706  0
H  H10  1  0.82329173  0.12237272  0.11897617  1  0.110824  0  0.104538  0.119285  0  1.04476  0
H  H11  1  0.69739277  0.07601580  0.24400851  1  0.092776  0  0.10299  0.105933  0  1.011115  0
H  H12  1  0.43552617  0.75214142  0.49088057  1  0.12249  0  0.117017  0.089056  0  0.992246  0
H  H13  1  0.42067737  0.63643211  0.46201136  1  0.133733  0  0.114192  0.142085  0  1.013951  0
H  H14  1  0.70380962  0.58158036  0.28865131  1  0.140502  0  0.113892  0.144006  0  1.014939  0
H  H15  1  0.70714095  0.69777054  0.32562357  1  0.113933  0  0.118298  0.095161  0  1.031782  0
H  H16  1  0.38083276  0.42585525  0.40894533  1  0.12066  0  0.120026  0.132039  0  0.978073  0
H  H17  1  0.42270671  0.30957368  0.33852803  1  0.082051  0  0.108671  0.103356  0  1.009947  0
H  H18  1  0.58690664  0.25188349  0.23938083  1  0.114817  0  0.119354  0.12888  0  0.98672  0
H  H19  1  0.05121584  0.23313458  0.97416202  1  0.081212  0  0.121196  0.092546  0  0.988337  0
H  H20  1  0.89309061  0.23619958  0.07296840  1  0.147876  0  0.114922  0.138699  0  1.028911  0
H  H21  1  0.87781110  0.42718877  0.17058619  1  0.158672  0  0.115495  0.145647  0  1.01133  0
H  H22  1  0.03479598  0.41505870  0.06983226  1  0.140556  0  0.125373  0.110794  0  0.990882  0
H  H23  1  0.74681522  0.39432967  0.21543287  1  0.501965  0  0.31347  0.273068  0  0.983383  0
H  H24  1  0.61951913  0.50765601  0.30348174  1  0.503595  0  0.311712  0.27435  0  0.991553  0
H  H25  1  0.79068935  0.53951267  0.94437619  1  0.096351  0  0.107909  0.117404  0  0.989287  0
H  H26  1  0.69916473  0.51323580  0.89223489  1  0.106098  0  0.108907  0.112367  0  0.991552  0
H  H27  1  0.47821445  0.52663604  0.13287936  1  0.106462  0  0.104021  0.1051  0  1.020547  0
H  H28  1  0.56981567  0.55197511  0.18493296  1  0.071992  0  0.098702  0.097859  0  1.02989  0
H  H29  1  0.86104085  0.68633123  0.29507696  1  0.094543  0  0.10056  0.10373  0  1.037186  0
H  H30  1  0.91034569  0.64083605  0.41880740  1  0.074811  0  0.101988  0.101133  0  1.029555  0
H  H31  1  0.06481455  0.37764100  0.38094868  1  0.130465  0  0.104627  0.119358  0  1.044875  0
H  H32  1  0.01761160  0.42398720  0.25590426  1  0.081917  0  0.102857  0.105945  0  1.010793  0
H  H33  1  0.67853185  0.74783880  0.00913464  1  0.081829  0  0.117013  0.089147  0  0.992006  0
H  H34  1  0.51909288  0.86355871  0.03800055  1  0.124334  0  0.114144  0.14207  0  1.013665  0
H  H35  1  0.57402929  0.91842485  0.21134210  1  0.134377  0  0.113883  0.144039  0  1.014802  0
H  H36  1  0.73052878  0.80222503  0.17437218  1  0.109319  0  0.118268  0.095169  0  1.031714  0
H  H37  1  0.21560179  0.07415318  0.09105747  1  0.119832  0  0.120042  0.131983  0  0.978135  0
H  H38  1  0.07078195  0.19044756  0.16148331  1  0.082775  0  0.108672  0.103206  0  1.01013  0
H  H39  1  0.07816250  0.24811061  0.26062047  1  0.126927  0  0.119414  0.128995  0  0.986864  0
H  H40  1  0.25850106  0.26687791  0.52582741  1  0.091496  0  0.121185  0.092504  0  0.988391  0
H  H41  1  0.20224162  0.26378936  0.42704155  1  0.144014  0  0.114915  0.138629  0  1.028993  0
H  H42  1  0.47557770  0.07279463  0.32942322  1  0.15757  0  0.115473  0.145563  0  1.011329  0
H  H43  1  0.51968434  0.08494085  0.43016656  1  0.162606  0  0.125347  0.110761  0  0.990883  0
H  H44  1  0.35655622  0.10567496  0.28457201  1  0.500759  0  0.313478  0.273068  0  0.983401  0
H  H45  1  0.43063228  0.99234551  0.19651724  1  0.523203  0  0.31168  0.274336  0  0.991452  0
H  H46  1  0.72541214  0.03950149  0.44439040  1  0.084087  0  0.107916  0.117482  0  0.989209  0
H  H47  1  0.89535846  0.01323500  0.39223854  1  0.08885  0  0.108925  0.112365  0  0.991475  0
H  H48  1  0.86227614  0.02666620  0.63287101  1  0.094945  0  0.104044  0.105167  0  1.020187  0
H  H49  1  0.69327588  0.05200612  0.68493048  1  0.087834  0  0.098751  0.097801  0  1.029643  0
H  H50  1  0.15752222  0.18636934  0.79507791  1  0.099663  0  0.100602  0.103784  0  1.037315  0
H  H51  1  0.02998922  0.14085475  0.91880500  1  0.086243  0  0.102021  0.101191  0  1.029644  0
H  H52  1  0.17670473  0.87763305  0.88104209  1  0.111053  0  0.104515  0.119134  0  1.04494  0
H  H53  1  0.30260864  0.92398085  0.75600882  1  0.092976  0  0.102925  0.105801  0  1.011236  0
H  H54  1  0.56447491  0.24784825  0.50912982  1  0.122414  0  0.117007  0.089055  0  0.992083  0
H  H55  1  0.57933084  0.36355103  0.53799885  1  0.133667  0  0.114146  0.141983  0  1.01396  0
H  H56  1  0.29619710  0.41842257  0.71135258  1  0.140464  0  0.113865  0.144025  0  1.014983  0
H  H57  1  0.29285341  0.30223761  0.67438066  1  0.113727  0  0.118301  0.095229  0  1.03166  0
H  H58  1  0.61917711  0.57413986  0.59105795  1  0.120635  0  0.120023  0.132049  0  0.978059  0
H  H59  1  0.57729645  0.69042541  0.66147297  1  0.081876  0  0.108666  0.10335  0  1.009903  0
H  H60  1  0.41309350  0.74812173  0.76061216  1  0.114764  0  0.119401  0.12894  0  0.986692  0
H  H61  1  0.94877952  0.76688603  0.02581861  1  0.080839  0  0.121175  0.092492  0  0.988427  0
H  H62  1  0.10690881  0.76382382  0.92700664  1  0.147869  0  0.114938  0.138712  0  1.028884  0
H  H63  1  0.12220292  0.57280228  0.82942163  1  0.158715  0  0.11545  0.145519  0  1.011499  0
H  H64  1  0.96521736  0.58493573  0.93017188  1  0.140996  0  0.125356  0.110839  0  0.990886  0
H  H65  1  0.25319359  0.60568235  0.78457312  1  0.499859  0  0.313509  0.273127  0  0.983436  0
H  H66  1  0.38049812  0.49234339  0.69650901  1  0.503439  0  0.311782  0.274523  0  0.991264  0
H  H67  1  0.20931151  0.46047433  0.05563586  1  0.09638  0  0.107887  0.117359  0  0.989219  0
H  H68  1  0.30083927  0.48675782  0.10777431  1  0.105919  0  0.108831  0.112317  0  0.991526  0
H  H69  1  0.52178668  0.47336165  0.86712471  1  0.106417  0  0.104004  0.105118  0  1.020463  0
H  H70  1  0.43018489  0.44801592  0.81507553  1  0.072139  0  0.098698  0.097751  0  1.029838  0
H  H71  1  0.13894767  0.31368351  0.70492523  1  0.094801  0  0.100526  0.103749  0  1.037207  0
H  H72  1  0.08964181  0.35917797  0.58119715  1  0.074883  0  0.102052  0.10121  0  1.029506  0
H  H73  1  0.93517694  0.62237119  0.61905151  1  0.130366  0  0.104634  0.119316  0  1.044895  0
H  H74  1  0.98237975  0.57602693  0.74409689  1  0.08161  0  0.102845  0.105893  0  1.010784  0
H  H75  1  0.32147385  0.25214924  0.99086454  1  0.072543  0  0.117032  0.089156  0  0.992079  0
H  H76  1  0.48090683  0.13642649  0.96200621  1  0.124223  0  0.114163  0.142117  0  1.013794  0
H  H77  1  0.42596983  0.08157969  0.78865162  1  0.134286  0  0.113863  0.143983  0  1.014851  0
H  H78  1  0.26947223  0.19778286  0.82561887  1  0.109526  0  0.118286  0.095189  0  1.031659  0
H  H79  1  0.78438948  0.92584201  0.90894279  1  0.119962  0  0.120011  0.131991  0  0.977936  0
H  H80  1  0.92921536  0.80955822  0.83851291  1  0.08241  0  0.108679  0.103232  0  1.010128  0
H  H81  1  0.92184220  0.75188797  0.73937570  1  0.127174  0  0.119395  0.128936  0  0.98691  0
H  H82  1  0.74149884  0.73311334  0.47417371  1  0.091377  0  0.121207  0.09251  0  0.988425  0
H  H83  1  0.79775944  0.73620062  0.57295845  1  0.144027  0  0.114918  0.138665  0  1.028986  0
H  H84  1  0.52442601  0.92719999  0.67057436  1  0.157705  0  0.115428  0.145511  0  1.011481  0
H  H85  1  0.48031821  0.91505508  0.56983105  1  0.162554  0  0.125377  0.110827  0  0.990823  0
H  H86  1  0.64344311  0.89430966  0.71543243  1  0.482236  0  0.313523  0.273183  0  0.983387  0
H  H87  1  0.56936280  0.00765315  0.80347620  1  0.523033  0  0.311692  0.274396  0  0.991321  0
C  C88  1  0.40082951  0.93916525  0.39818877  1  1.558878  0  0.20421  0.565755  0  4.225672  0
C  C89  1  0.29987507  0.95423961  0.43175108  1  -0.031316  0  -0.019063  -0.035373  0  3.972672  0
C  C90  1  0.24378608  0.96401355  0.51480352  1  -0.04704  0  -0.0848  -0.088274  0  3.971341  0
C  C91  1  0.15020162  0.97835561  0.54368382  1  -0.025318  0  -0.080389  -0.13948  0  3.950492  0
C  C92  1  0.11203663  0.98227591  0.49010679  1  0.35238  0  0.086314  0.170857  0  4.040164  0
C  C93  1  0.16858226  0.97109572  0.40715810  1  0.034324  0  -0.086954  -0.140331  0  3.949093  0
C  C94  1  0.26146937  0.95732889  0.37877602  1  -0.097897  0  -0.089447  -0.088525  0  3.997303  0
C  C95  1  0.68601799  0.91713589  0.30455887  1  1.539616  0  0.192655  0.550865  0  4.228394  0
C  C96  1  0.76237813  0.94273985  0.23112090  1  -0.011359  0  -0.016217  -0.023234  0  3.970331  0
C  C97  1  0.83904387  0.88107716  0.18540932  1  -0.003928  0  -0.087003  -0.093284  0  3.984039  0
C  C98  1  0.90921681  0.90589171  0.11674986  1  -0.06782  0  -0.088276  -0.146977  0  3.965399  0
C  C99  1  0.90259098  0.99364673  0.09255442  1  0.308312  0  0.085505  0.173111  0  4.055524  0
C  C100  1  0.82681553  0.05504899  0.13837569  1  0.005754  0  -0.081569  -0.141965  0  3.94502  0
C  C101  1  0.75700594  0.02950592  0.20742177  1  -0.060429  0  -0.083841  -0.084434  0  3.978832  0
C  C102  1  0.49320147  0.50073619  0.38518264  1  1.423478  0  0.245106  0.445776  0  4.115579  0
C  C103  1  0.49368580  0.71158068  0.44751002  1  0.390943  0  0.041831  0.101051  0  3.984851  0
C  C104  1  0.48507295  0.64800501  0.43119011  1  0.068872  0  -0.092145  -0.229939  0  3.926184  0
C  C105  1  0.56188214  0.59864827  0.37352729  1  0.324489  0  0.129454  0.312547  0  3.984134  0
C  C106  1  0.64351183  0.61651125  0.33537160  1  0.052944  0  -0.085109  -0.218012  0  3.894315  0
C  C107  1  0.64558645  0.68123151  0.35556917  1  0.468045  0  0.044868  0.105762  0  3.951748  0
C  C108  1  0.72537142  0.30338669  0.19685636  1  1.412942  0  0.251255  0.455581  0  4.097131  0
C  C109  1  0.51854515  0.42818288  0.34723126  1  0.504799  0  0.118326  0.108514  0  4.003877  0
C  C110  1  0.45030718  0.39803872  0.36559855  1  -0.074717  0  -0.064177  -0.118478  0  3.90364  0
C  C111  1  0.47419131  0.33374663  0.32682067  1  0.033855  0  -0.061855  -0.02142  0  3.953935  0
C  C112  1  0.56463606  0.30140141  0.27211023  1  0.011684  0  -0.061776  -0.113848  0  3.897655  0
C  C113  1  0.62825504  0.33506577  0.25825098  1  0.49023  0  0.118937  0.112474  0  4.000534  0
C  C114  1  0.01042240  0.27445067  0.01970080  1  0.476716  0  0.045585  0.096858  0  3.980044  0
C  C115  1  0.92221710  0.27621994  0.07449299  1  0.027872  0  -0.08877  -0.229106  0  3.920068  0
C  C116  1  0.87085526  0.33261957  0.13051076  1  0.329094  0  0.124668  0.296581  0  3.994532  0
C  C117  1  0.91362644  0.38165489  0.12970885  1  -0.008767  0  -0.085694  -0.219837  0  3.895627  0
C  C118  1  0.00189396  0.37566684  0.07267880  1  0.455292  0  0.052243  0.113582  0  3.921188  0
C  C119  1  0.73820127  0.56081617  0.10181411  1  1.541458  0  0.204256  0.566042  0  4.225114  0
C  C120  1  0.68588446  0.54574740  0.06824959  1  -0.028872  0  -0.018911  -0.035284  0  3.972186  0
C  C121  1  0.72261624  0.53597560  0.98518776  1  -0.005066  0  -0.084727  -0.088264  0  3.97116  0
C  C122  1  0.67224479  0.52164938  0.95630639  1  -0.05632  0  -0.080339  -0.139372  0  3.950476  0
C  C123  1  0.58442688  0.51771854  0.00989463  1  0.33421  0  0.086207  0.170849  0  4.04009  0
C  C124  1  0.54685990  0.52888778  0.09284746  1  -0.015492  0  -0.086866  -0.1403  0  3.949506  0
C  C125  1  0.59759945  0.54264586  0.12123445  1  -0.085711  0  -0.089518  -0.088681  0  3.99748  0
C  C126  1  0.90777194  0.58283193  0.19541361  1  1.537305  0  0.192426  0.55038  0  4.229209  0
C  C127  1  0.93634026  0.55724585  0.26882085  1  -0.056351  0  -0.016239  -0.023169  0  3.969931  0
C  C128  1  0.90558087  0.61890747  0.31456078  1  -0.095795  0  -0.087143  -0.093441  0  3.983312  0
C  C129  1  0.93190012  0.59409139  0.38323202  1  0.004705  0  -0.088199  -0.146837  0  3.964905  0
C  C130  1  0.98889209  0.50635311  0.40740376  1  0.357466  0  0.085458  0.173163  0  4.055608  0
C  C131  1  0.02039825  0.44496217  0.36155151  1  -0.05787  0  -0.081839  -0.142434  0  3.944889  0
C  C132  1  0.99412296  0.47049927  0.29248062  1  0.017716  0  -0.083479  -0.084133  0  3.977659  0
C  C133  1  0.37909892  0.99927009  0.11481378  1  1.403579  0  0.245151  0.445909  0  4.115901  0
C  C134  1  0.65275999  0.78840088  0.05250541  1  0.45227  0  0.041739  0.100809  0  3.984734  0
C  C135  1  0.56425106  0.85198579  0.06881823  1  0.031331  0  -0.09203  -0.229877  0  3.925949  0
C  C136  1  0.53404195  0.90133908  0.12647972  1  0.368705  0  0.129499  0.312811  0  3.983815  0
C  C137  1  0.59538938  0.88348211  0.16462752  1  0.02704  0  -0.085094  -0.218102  0  3.894157  0
C  C138  1  0.68237905  0.81875556  0.14443081  1  0.498468  0  0.044979  0.105855  0  3.95198  0
C  C139  1  0.22559543  0.19658348  0.30317373  1  1.419442  0  0.251358  0.455579  0  4.096806  0
C  C140  1  0.29394524  0.07182972  0.15275709  1  0.484165  0  0.118149  0.108307  0  4.004365  0
C  C141  1  0.21392743  0.10197721  0.13439485  1  0.004892  0  -0.064121  -0.118258  0  3.903612  0
C  C142  1  0.13473766  0.16626209  0.17318627  1  -0.032023  0  -0.061835  -0.021296  0  3.953864  0
C  C143  1  0.13812584  0.19859550  0.22790414  1  0.021165  0  -0.061846  -0.113888  0  3.897868  0
C  C144  1  0.22155135  0.16491508  0.24176988  1  0.494348  0  0.118862  0.112253  0  4.000767  0
C  C145  1  0.30456326  0.22555146  0.48029798  1  0.454985  0  0.045718  0.097061  0  3.980071  0
C  C146  1  0.27292033  0.22377586  0.42550826  1  0.007466  0  -0.088578  -0.228861  0  3.920084  0
C  C147  1  0.33397364  0.16737259  0.36949684  1  0.372489  0  0.124533  0.296339  0  3.995115  0
C  C148  1  0.42497936  0.11833680  0.37029488  1  -0.011551  0  -0.085649  -0.21962  0  3.895594  0
C  C149  1  0.45023216  0.12432999  0.42732279  1  0.440595  0  0.052303  0.113641  0  3.920981  0
C  C150  1  0.59917306  0.06082741  0.60180899  1  1.558863  0  0.204179  0.565861  0  4.225711  0
C  C151  1  0.70011956  0.04575353  0.56825223  1  -0.031955  0  -0.018947  -0.035093  0  3.97256  0
C  C152  1  0.75620726  0.03597964  0.48519820  1  -0.047371  0  -0.084773  -0.088467  0  3.97145  0
C  C153  1  0.84979026  0.02164285  0.45631654  1  -0.025834  0  -0.080348  -0.139358  0  3.950373  0
C  C154  1  0.88795522  0.01772589  0.50989125  1  0.352674  0  0.086215  0.170786  0  4.040413  0
C  C155  1  0.83141102  0.02890413  0.59283949  1  0.020087  0  -0.086875  -0.140332  0  3.949228  0
C  C156  1  0.73852503  0.04266164  0.62122731  1  -0.084362  0  -0.089502  -0.088624  0  3.997277  0
C  C157  1  0.31398555  0.08286388  0.69544171  1  1.539714  0  0.192652  0.550883  0  4.22849  0
C  C158  1  0.23762164  0.05726454  0.76887799  1  -0.011032  0  -0.01621  -0.023217  0  3.970274  0
C  C159  1  0.16095740  0.11893014  0.81457967  1  -0.004347  0  -0.087052  -0.093385  0  3.984267  0
C  C160  1  0.09077934  0.09411536  0.88324694  1  -0.067546  0  -0.088217  -0.146733  0  3.965174  0
C  C161  1  0.09740244  0.00636532  0.90745037  1  0.307858  0  0.085261  0.172672  0  4.055792  0
C  C162  1  0.17318434  0.94495970  0.86163234  1  0.006266  0  -0.081391  -0.141861  0  3.945134  0
C  C163  1  0.24299648  0.97049159  0.79258829  1  -0.061082  0  -0.0838  -0.084075  0  3.978564  0
C  C164  1  0.50681415  0.49925912  0.61481364  1  1.422731  0  0.245175  0.445915  0  4.115697  0
C  C165  1  0.50631529  0.28840892  0.55250256  1  0.390624  0  0.041774  0.100877  0  3.984855  0
C  C166  1  0.51493495  0.35198210  0.56881818  1  0.070026  0  -0.092036  -0.229732  0  3.926138  0
C  C167  1  0.43812881  0.40134094  0.62647666  1  0.323357  0  0.129472  0.312803  0  3.983596  0
C  C168  1  0.35649134  0.38348770  0.66463432  1  0.053571  0  -0.084975  -0.218036  0  3.894245  0
C  C169  1  0.35441608  0.31876745  0.64443650  1  0.467959  0  0.044845  0.105684  0  3.951885  0
C  C170  1  0.27463013  0.69663121  0.80312794  1  1.414101  0  0.251084  0.455385  0  4.097164  0
C  C171  1  0.48146162  0.57181359  0.65277019  1  0.504737  0  0.118296  0.108508  0  4.004042  0
C  C172  1  0.54969496  0.60195980  0.63439989  1  -0.074934  0  -0.064169  -0.118501  0  3.903732  0
C  C173  1  0.52581128  0.66625720  0.67317500  1  0.034112  0  -0.061841  -0.021383  0  3.953924  0
C  C174  1  0.43537340  0.69860777  0.72788140  1  0.011359  0  -0.061867  -0.11393  0  3.897758  0
C  C175  1  0.37175152  0.66493933  0.74174566  1  0.490439  0  0.118969  0.112557  0  4.000395  0
C  C176  1  0.98957865  0.72556518  0.98028612  1  0.480648  0  0.04563  0.096889  0  3.980165  0
C  C177  1  0.07778253  0.72379791  0.92549273  1  0.024181  0  -0.088703  -0.228956  0  3.919905  0
C  C178  1  0.12914455  0.66739285  0.86948181  1  0.328699  0  0.124583  0.296393  0  3.99457  0
C  C179  1  0.08638207  0.61834691  0.87028925  1  -0.008714  0  -0.085651  -0.219609  0  3.895578  0
C  C180  1  0.99811286  0.62433755  0.92732016  1  0.454534  0  0.05224  0.113528  0  3.921175  0
C  C181  1  0.26179601  0.43918138  0.89819499  1  1.562891  0  0.204164  0.565854  0  4.225474  0
C  C182  1  0.31411434  0.45425288  0.93175563  1  -0.029452  0  -0.018957  -0.035353  0  3.972333  0
C  C183  1  0.27738766  0.46401358  0.01481722  1  -0.004116  0  -0.084676  -0.088157  0  3.970934  0
C  C184  1  0.32775998  0.47834239  0.04369938  1  -0.056838  0  -0.080345  -0.139476  0  3.95033  0
C  C185  1  0.41557335  0.48227974  0.99011179  1  0.334176  0  0.086275  0.170999  0  4.039962  0
C  C186  1  0.45313995  0.47110980  0.90716048  1  -0.01478  0  -0.086886  -0.14048  0  3.949376  0
C  C187  1  0.40239667  0.45735298  0.87877523  1  -0.086385  0  -0.089452  -0.088407  0  3.997392  0
C  C188  1  0.09221402  0.41718281  0.80458865  1  1.536851  0  0.192318  0.550237  0  4.229299  0
C  C189  1  0.06365111  0.44276510  0.73117716  1  -0.053499  0  -0.016176  -0.023161  0  3.970286  0
C  C190  1  0.09440844  0.38110532  0.68544126  1  -0.098482  0  -0.087171  -0.093429  0  3.983327  0
C  C191  1  0.06809134  0.40592409  0.61676748  1  0.00459  0  -0.088155  -0.146884  0  3.965001  0
C  C192  1  0.01110019  0.49365709  0.59259738  1  0.357477  0  0.085432  0.173166  0  4.055894  0
C  C193  1  0.97959554  0.55505069  0.63844793  1  -0.057801  0  -0.08175  -0.1423  0  3.945028  0
C  C194  1  0.00586661  0.52951296  0.70751826  1  0.017614  0  -0.083598  -0.084171  0  3.977937  0
C  C195  1  0.62088959  0.00071904  0.88519274  1  1.40283  0  0.245229  0.445925  0  4.11557  0
C  C196  1  0.34724097  0.21158768  0.94749843  1  0.460768  0  0.041784  0.100912  0  3.984829  0
C  C197  1  0.43574733  0.14800275  0.93118622  1  0.03263  0  -0.092099  -0.230006  0  3.926276  0
C  C198  1  0.46595550  0.09865349  0.87352092  1  0.368376  0  0.129542  0.312762  0  3.984119  0
C  C199  1  0.40461328  0.11651513  0.83537008  1  0.026881  0  -0.085084  -0.217946  0  3.894284  0
C  C200  1  0.31762406  0.18124712  0.85555965  1  0.498784  0  0.04497  0.10581  0  3.951824  0
C  C201  1  0.77440971  0.80340922  0.69682286  1  1.419775  0  0.251094  0.455302  0  4.09723  0
C  C202  1  0.70605464  0.92815045  0.84724284  1  0.481836  0  0.118377  0.108709  0  4.003763  0
C  C203  1  0.78607047  0.89800941  0.86560840  1  0.005556  0  -0.064201  -0.118503  0  3.903457  0
C  C204  1  0.86526047  0.83372710  0.82681805  1  -0.031785  0  -0.061746  -0.021198  0  3.953891  0
C  C205  1  0.86187316  0.80139638  0.77209768  1  0.020677  0  -0.061903  -0.113862  0  3.897951  0
C  C206  1  0.77844873  0.83507103  0.75822824  1  0.494375  0  0.118905  0.1122  0  4.000665  0
C  C207  1  0.69544123  0.77444123  0.51969890  1  0.456044  0  0.045683  0.097108  0  3.980012  0
C  C208  1  0.72708251  0.77621612  0.57449018  1  0.006735  0  -0.088643  -0.228941  0  3.920176  0
C  C209  1  0.66603074  0.83261875  0.63050114  1  0.372481  0  0.124605  0.29633  0  3.99504  0
C  C210  1  0.57502359  0.88165654  0.62970191  1  -0.012064  0  -0.085629  -0.219568  0  3.895709  0
C  C211  1  0.54976959  0.87566797  0.57267224  1  0.441209  0  0.052266  0.113631  0  3.921112  0
N  N212  1  0.57197312  0.72874534  0.41091697  1  -1.249774  0  -0.344983  -0.26488  0  3.587074  0
N  N213  1  0.56198637  0.53351282  0.35169929  1  -1.268064  0  -0.38347  -0.356672  0  3.566551  0
N  N214  1  0.78035630  0.34392315  0.18537193  1  -1.267717  0  -0.383155  -0.358189  0  3.572715  0
N  N215  1  0.05031295  0.32317072  0.01766665  1  -1.250275  0  -0.343604  -0.260649  0  3.616641  0
N  N216  1  0.60585359  0.39688517  0.29520886  1  -1.205748  0  -0.30139  -0.306015  0  3.391904  0
N  N217  1  0.01675982  0.99634460  0.52547211  1  -0.510483  0  -0.151638  -0.140963  0  3.285837  0
N  N218  1  0.96927340  0.02635525  0.02362627  1  -0.473635  0  -0.153164  -0.141358  0  3.298  0
N  N219  1  0.71162312  0.77124302  0.08909000  1  -1.268589  0  -0.34506  -0.264934  0  3.587447  0
N  N220  1  0.44717669  0.96647894  0.14830250  1  -1.280641  0  -0.383415  -0.356837  0  3.566362  0
N  N221  1  0.30963311  0.15607838  0.31463578  1  -1.261432  0  -0.383158  -0.358112  0  3.573254  0
N  N222  1  0.39114226  0.17682887  0.48233668  1  -1.25915  0  -0.34373  -0.260836  0  3.616844  0
N  N223  1  0.29792836  0.10310355  0.20479887  1  -1.222236  0  -0.301298  -0.305948  0  3.392219  0
N  N224  1  0.53858265  0.50364756  0.97452649  1  -0.492019  0  -0.151621  -0.140961  0  3.285859  0
N  N225  1  0.01928825  0.47366181  0.47636362  1  -0.510131  0  -0.153024  -0.141066  0  3.298626  0
N  N226  1  0.42802672  0.27125228  0.58908987  1  -1.249702  0  -0.344987  -0.264799  0  3.587222  0
N  N227  1  0.43803528  0.46648190  0.64829504  1  -1.267266  0  -0.383541  -0.357014  0  3.56643  0
N  N228  1  0.21964719  0.65609443  0.81462298  1  -1.26653  0  -0.383157  -0.358142  0  3.572735  0
N  N229  1  0.94968845  0.67683762  0.98233109  1  -1.249622  0  -0.343592  -0.260707  0  3.616816  0
N  N230  1  0.39415534  0.60311381  0.70479607  1  -1.205527  0  -0.301327  -0.306029  0  3.391829  0
N  N231  1  0.98323112  0.00365788  0.47452499  1  -0.473409  0  -0.151694  -0.140917  0  3.285853  0
N  N232  1  0.03072387  0.97365676  0.97638005  1  -0.515817  0  -0.152938  -0.140843  0  3.297947  0
N  N233  1  0.28837886  0.22875755  0.91090556  1  -1.268935  0  -0.345051  -0.264963  0  3.587293  0
N  N234  1  0.55281820  0.03351364  0.85169767  1  -1.280368  0  -0.383509  -0.356901  0  3.566424  0
N  N235  1  0.69036901  0.84390891  0.68536693  1  -1.24285  0  -0.383114  -0.358124  0  3.573166  0
N  N236  1  0.60885965  0.82316707  0.51766067  1  -1.259543  0  -0.343695  -0.260928  0  3.616958  0
N  N237  1  0.70206862  0.89688382  0.79520071  1  -1.220494  0  -0.301488  -0.306136  0  3.391984  0
N  N238  1  0.46141618  0.49634946  0.02547833  1  -0.465388  0  -0.151623  -0.140907  0  3.285855  0
N  N239  1  0.98070120  0.52634902  0.52363856  1  -0.468948  0  -0.153141  -0.141249  0  3.298721  0
O  O240  1  0.69031456  0.83792871  0.31964979  1  -1.175643  0  -0.335001  -0.561873  0  2.29523  0
O  O241  1  0.62042422  0.97048236  0.34873838  1  -1.181612  0  -0.319699  -0.551524  0  2.166902  0
O  O242  1  0.44141403  0.96043699  0.31949442  1  -1.192457  0  -0.321315  -0.569724  0  2.175896  0
O  O243  1  0.43951967  0.90357389  0.45487472  1  -1.177712  0  -0.331473  -0.554219  0  2.34527  0
O  O244  1  0.41714670  0.52651834  0.44004733  1  -1.126776  0  -0.282578  -0.454358  0  2.098303  0
O  O245  1  0.75012923  0.24641165  0.16103981  1  -1.119876  0  -0.269691  -0.445314  0  2.144542  0
O  O246  1  0.84793078  0.66203743  0.18034815  1  -1.175067  0  -0.334947  -0.561798  0  2.295316  0
O  O247  1  0.93971364  0.52948534  0.15123746  1  -1.174719  0  -0.319417  -0.551013  0  2.167067  0
O  O248  1  0.72137334  0.53954656  0.18050954  1  -1.172733  0  -0.321325  -0.569873  0  2.175578  0
O  O249  1  0.79798845  0.59639989  0.04512465  1  -1.17764  0  -0.331544  -0.554336  0  2.345101  0
O  O250  1  0.38369400  0.97348342  0.05994899  1  -1.113345  0  -0.282641  -0.454405  0  2.098326  0
O  O251  1  0.15754532  0.25354555  0.33901431  1  -1.129968  0  -0.269843  -0.445316  0  2.143905  0
O  O252  1  0.30968806  0.16207186  0.68034547  1  -1.175765  0  -0.334964  -0.561838  0  2.295385  0
O  O253  1  0.37957600  0.02951604  0.65126421  1  -1.181616  0  -0.319698  -0.551572  0  2.166969  0
O  O254  1  0.55858157  0.03956031  0.68050092  1  -1.192446  0  -0.321316  -0.569796  0  2.175858  0
O  O255  1  0.56047991  0.09642457  0.54512597  1  -1.177737  0  -0.331536  -0.5544  0  2.345338  0
O  O256  1  0.58287394  0.47346432  0.55995692  1  -1.126305  0  -0.282715  -0.4545  0  2.098201  0
O  O257  1  0.24986217  0.75363034  0.83892582  1  -1.119956  0  -0.269586  -0.44528  0  2.1445  0
O  O258  1  0.15206670  0.33797757  0.81964557  1  -1.174878  0  -0.334931  -0.561859  0  2.295453  0
O  O259  1  0.06027721  0.47052674  0.84876631  1  -1.174365  0  -0.319329  -0.550874  0  2.167063  0
O  O260  1  0.27862756  0.46044836  0.81950002  1  -1.193824  0  -0.321341  -0.569842  0  2.175576  0
O  O261  1  0.20201335  0.40359448  0.95488147  1  -1.177648  0  -0.33144  -0.554156  0  2.345387  0
O  O262  1  0.61629451  0.02649445  0.94006235  1  -1.112517  0  -0.282639  -0.45445  0  2.098476  0
O  O263  1  0.84246088  0.74645588  0.66097415  1  -1.130394  0  -0.269661  -0.445077  0  2.144155  0
