# generated using pymatgen
data_UH2(C3O4)2
_symmetry_space_group_name_H-M   'P 1'
_cell_length_a   8.93005506
_cell_length_b   8.93109011
_cell_length_c   11.26091550
_cell_angle_alpha   109.25484837
_cell_angle_beta   109.17675049
_cell_angle_gamma   99.79428386
_symmetry_Int_Tables_number   1
_chemical_formula_structural   UH2(C3O4)2
_chemical_formula_sum   'U4 H8 C24 O32'
_cell_volume   760.78298540
_cell_formula_units_Z   4
loop_
 _symmetry_equiv_pos_site_id
 _symmetry_equiv_pos_as_xyz
  1  'x, y, z'
loop_
 _atom_site_type_symbol
 _atom_site_label
 _atom_site_symmetry_multiplicity
 _atom_site_fract_x
 _atom_site_fract_y
 _atom_site_fract_z
 _atom_site_occupancy
 _atom_site_pbe_cm5_charge
 _atom_site_pbe_ddec_charge
 _atom_site_pbe_ddec_spin_density
 _atom_site_pbe_ddec_sum_bond_order
 _atom_site_pbe_magmom
U  U0  1  0.59413468  0.85203066  0.45497130  1  1.975838  2.558183  -1.100792  3.688266  -1.057
U  U1  1  0.39696688  0.13912686  0.54501861  1  1.975859  2.560459  -1.100638  3.683686  -1.058
U  U2  1  0.38945859  0.14622662  0.04205920  1  1.981575  2.56256  -1.114909  3.69092  -1.065
U  U3  1  0.10402625  0.34723082  0.95785672  1  1.982015  2.562361  -1.115648  3.693009  -1.068
H  H4  1  0.81121707  0.73519863  0.68586341  1  0.30663  0.407548  9.3e-05  0.911641  0.0
H  H5  1  0.04919209  0.12514212  0.31413081  1  0.30627  0.407661  9.3e-05  0.911692  0.0
H  H6  1  0.37513361  0.79647485  0.81261730  1  0.305723  0.407058  0.000164  0.913095  0.0
H  H7  1  0.98380217  0.56244176  0.18741459  1  0.305951  0.406851  0.000164  0.913005  0.0
H  H8  1  0.62775509  0.71866732  0.68009323  1  0.305043  0.404097  -5e-06  0.921261  0.0
H  H9  1  0.03852172  0.94747797  0.31991080  1  0.305006  0.403833  -6e-06  0.921417  0.0
H  H10  1  0.19762855  0.78893212  0.81793099  1  0.306256  0.405245  6e-06  0.919197  0.0
H  H11  1  0.97107120  0.37967481  0.18216749  1  0.306341  0.40559  4e-06  0.918661  0.0
C  C12  1  0.90780759  0.73914128  0.39331495  1  0.242745  0.628865  -0.000796  4.162099  -0.002
C  C13  1  0.34578522  0.51449123  0.60667748  1  0.242663  0.628046  -0.000801  4.164147  -0.002
C  C14  1  0.76635904  0.09644044  0.10877405  1  0.245907  0.633989  0.000338  4.156082  0.0
C  C15  1  0.98778316  0.65757533  0.89140747  1  0.245078  0.632631  0.000334  4.159252  0.0
C  C16  1  0.82700628  0.48384892  0.43991512  1  0.010794  -0.076095  0.000383  3.899936  0.0
C  C17  1  0.04377545  0.38701167  0.55988535  1  0.010941  -0.075466  0.000387  3.898392  0.0
C  C18  1  0.63775044  0.79438879  0.06066357  1  0.011996  -0.072511  0.000508  3.89452  0.0
C  C19  1  0.73370906  0.57712735  0.93946087  1  0.0121  -0.072505  0.000506  3.895041  0.0
C  C20  1  0.94991131  0.61102446  0.44653936  1  0.017686  -0.037236  -0.000181  3.895893  -0.001
C  C21  1  0.16442164  0.50332902  0.55330110  1  0.017209  -0.038358  -0.00018  3.896494  -0.001
C  C22  1  0.75474663  0.91501484  0.05470657  1  0.018276  -0.039519  -0.000717  3.896762  -0.002
C  C23  1  0.86043660  0.70006349  0.94549366  1  0.017683  -0.040045  -0.000715  3.895588  -0.002
C  C24  1  0.24772546  0.74766696  0.49991396  1  0.256697  0.647272  -0.002858  4.113742  -0.008
C  C25  1  0.99845834  0.99832912  0.00014158  1  0.254055  0.642503  -0.003815  4.114687  -0.01
C  C26  1  0.74451682  0.24461275  0.49983081  1  0.24946  0.652218  -0.002495  4.1287  -0.007
C  C27  1  0.49501929  0.49511122  0.00013492  1  0.250564  0.654545  -0.004739  4.119115  -0.012
C  C28  1  0.11772233  0.61768657  0.49987794  1  0.006816  -0.064461  0.001316  3.90208  0.001
C  C29  1  0.86830840  0.86818963  0.00016264  1  0.007551  -0.060674  0.001738  3.898365  0.002
C  C30  1  0.87509316  0.37509618  0.49985318  1  0.022831  -0.011887  0.00011  3.868556  0.0
C  C31  1  0.62544327  0.62546628  0.00010888  1  0.021324  -0.015937  -0.000162  3.868562  -0.001
C  C32  1  0.64584963  0.45037226  0.35400695  1  0.269752  0.682668  -0.0009  4.058257  -0.003
C  C33  1  0.09622121  0.29180662  0.64582685  1  0.269355  0.682654  -0.000906  4.057145  -0.003
C  C34  1  0.54073677  0.84603256  0.14541094  1  0.269424  0.681978  -0.000961  4.055619  -0.003
C  C35  1  0.70043475  0.39533032  0.85461777  1  0.269451  0.681822  -0.000958  4.059168  -0.003
O  O36  1  0.58665554  0.02349878  0.61837568  1  -0.760737  -0.87571  0.058591  1.947717  0.055
O  O37  1  0.40489747  0.96812017  0.38162116  1  -0.761142  -0.875257  0.05859  1.94747  0.055
O  O38  1  0.21579860  0.15446233  0.88151777  1  -0.761833  -0.874415  0.070624  1.956886  0.066
O  O39  1  0.27273889  0.33412481  0.11839405  1  -0.761966  -0.873827  0.070758  1.957255  0.066
O  O40  1  0.93284253  0.74143847  0.29041562  1  -0.266559  -0.509666  0.000185  2.167665  -0.001
O  O41  1  0.45100169  0.64245858  0.70958681  1  -0.266116  -0.508808  0.000181  2.168202  -0.001
O  O42  1  0.89372590  0.20218503  0.21131839  1  -0.262852  -0.504948  0.00309  2.168831  0.003
O  O43  1  0.99112778  0.68249183  0.78895808  1  -0.261874  -0.504079  0.003087  2.169859  0.003
O  O44  1  0.70933974  0.76509659  0.64893809  1  -0.606119  -0.832813  0.001626  2.081701  0.003
O  O45  1  0.11610936  0.06017491  0.35092827  1  -0.605751  -0.833077  0.001627  2.081282  0.003
O  O46  1  0.31103473  0.86522116  0.84916906  1  -0.605705  -0.832371  0.001321  2.077856  0.002
O  O47  1  0.01589529  0.46175429  0.15077099  1  -0.605816  -0.832188  0.001332  2.078237  0.002
O  O48  1  0.85347388  0.84325642  0.46394450  1  -0.382126  -0.611616  0.009557  2.316168  0.01
O  O49  1  0.37929907  0.38947885  0.53616941  1  -0.382102  -0.611282  0.009579  2.317561  0.01
O  O50  1  0.64040358  0.12912394  0.03835190  1  -0.38667  -0.61312  0.010309  2.32249  0.01
O  O51  1  0.09078665  0.60189542  0.96177315  1  -0.386637  -0.611968  0.010383  2.323852  0.01
O  O52  1  0.64340462  0.29458293  0.54808566  1  -0.346031  -0.594433  0.003403  2.334927  0.005
O  O53  1  0.74619577  0.09518882  0.45159064  1  -0.346887  -0.595258  0.003427  2.336154  0.005
O  O54  1  0.34623674  0.49972470  0.95649605  1  -0.348284  -0.595649  0.009363  2.346047  0.011
O  O55  1  0.54324750  0.38993102  0.04374237  1  -0.348524  -0.595667  0.009332  2.344086  0.011
O  O56  1  0.24149455  0.89652433  0.54015327  1  -0.344017  -0.582654  0.011489  2.320583  0.012
O  O57  1  0.35643394  0.70123041  0.45976921  1  -0.344853  -0.582636  0.011486  2.32029  0.012
O  O58  1  0.95254023  0.10937821  0.96338209  1  -0.342232  -0.578836  0.011086  2.317318  0.012
O  O59  1  0.14628774  0.98913781  0.03680926  1  -0.341254  -0.578415  0.011045  2.316423  0.012
O  O60  1  0.56615133  0.29622795  0.27275767  1  -0.36332  -0.601148  0.010094  2.316566  0.011
O  O61  1  0.02341248  0.29345520  0.72712783  1  -0.362688  -0.601259  0.010148  2.314832  0.011
O  O62  1  0.54126131  0.77193419  0.22595207  1  -0.369063  -0.606217  0.009819  2.324158  0.01
O  O63  1  0.54575921  0.31534258  0.77414472  1  -0.369716  -0.607281  0.009801  2.325885  0.01
O  O64  1  0.58165037  0.56569858  0.35753394  1  -0.330166  -0.579451  0.007675  2.345567  0.008
O  O65  1  0.20793228  0.22397158  0.64221925  1  -0.330346  -0.579556  0.007676  2.345287  0.008
O  O66  1  0.47196077  0.95673639  0.14157606  1  -0.326022  -0.576296  0.005166  2.345583  0.006
O  O67  1  0.81496890  0.33036138  0.85836081  1  -0.325458  -0.57604  0.005194  2.345675  0.006
