# generated using pymatgen
data_CuH18C18(N3Cl)2
_symmetry_space_group_name_H-M   'P 1'
_cell_length_a   7.81067111
_cell_length_b   9.91994743
_cell_length_c   13.53306856
_cell_angle_alpha   72.63315203
_cell_angle_beta   77.62105344
_cell_angle_gamma   83.97040165
_symmetry_Int_Tables_number   1
_chemical_formula_structural   CuH18C18(N3Cl)2
_chemical_formula_sum   'Cu2 H36 C36 N12 Cl4'
_cell_volume   976.54626661
_cell_formula_units_Z   2
loop_
 _symmetry_equiv_pos_site_id
 _symmetry_equiv_pos_as_xyz
  1  'x, y, z'
loop_
 _atom_site_type_symbol
 _atom_site_label
 _atom_site_symmetry_multiplicity
 _atom_site_fract_x
 _atom_site_fract_y
 _atom_site_fract_z
 _atom_site_occupancy
 _atom_site_hle17_ddec_charge
 _atom_site_hle17_ddec_spin_density
 _atom_site_hle17_ddec_sum_bond_order
 _atom_site_hle17_magmom
 _atom_site_hse06_10hf_ddec_charge
 _atom_site_hse06_10hf_ddec_spin_density
 _atom_site_hse06_10hf_ddec_sum_bond_order
 _atom_site_hse06_10hf_magmom
 _atom_site_hse06_ddec_charge
 _atom_site_hse06_ddec_spin_density
 _atom_site_hse06_ddec_sum_bond_order
 _atom_site_hse06_magmom
 _atom_site_pbe_cm5_charge
 _atom_site_pbe_ddec_charge
 _atom_site_pbe_ddec_spin_density
 _atom_site_pbe_ddec_sum_bond_order
 _atom_site_pbe_magmom
Cu  Cu0  1  0.17213227  0.95669148  0.27391579  1  0.720662  -0.669071  1.997756  -0.47  0.697064  -0.765817  2.406585  -0.591  0.788449  -0.847059  2.33542  -0.68  0.627289  0.64155  -0.709089  2.456027  -0.534
Cu  Cu1  1  0.82787736  0.04331518  0.72607506  1  0.720611  0.669062  1.997917  0.47  0.697103  0.765808  2.40668  0.591  0.788412  0.847051  2.33557  0.68  0.627321  0.641554  0.709085  2.456118  0.534
H  H2  1  0.64000593  0.59412255  0.43395278  1  0.105291  -0.000161  0.948348  0.0  0.11721  -0.000225  1.003494  0.0  0.120716  -0.000145  1.002478  0.0  0.105355  0.114843  -0.00021  1.004067  0.0
H  H3  1  0.36000479  0.40587207  0.56604995  1  0.10518  0.000162  0.948381  0.0  0.117095  0.000225  1.003528  0.0  0.1206  0.000145  1.002513  0.0  0.105315  0.114731  0.00021  1.004102  0.0
H  H4  1  0.82213423  0.39655253  0.37715594  1  0.087896  -0.000209  0.95879  0.0  0.098061  -0.000201  1.021622  0.0  0.100421  -0.000137  1.020099  0.0  0.102864  0.09689  -0.000314  1.022186  0.0
H  H5  1  0.17788139  0.60344816  0.62284876  1  0.087984  0.000208  0.958712  0.0  0.09811  0.000201  1.021597  0.0  0.10047  0.000136  1.020075  0.0  0.102858  0.096943  0.000314  1.022159  0.0
H  H6  1  0.14629663  0.42058215  0.31698425  1  0.107071  -0.001488  0.973439  0.0  0.119642  -0.001468  1.029751  0.0  0.123333  -0.001108  1.02819  0.0  0.095447  0.116148  -0.001469  1.032888  -0.001
H  H7  1  0.85371558  0.57940504  0.68301979  1  0.107002  0.001491  0.973546  0.0  0.11958  0.001468  1.029848  0.0  0.123271  0.001109  1.028287  0.0  0.09546  0.116088  0.001469  1.032992  0.001
H  H8  1  0.27389228  0.64909614  0.30539318  1  0.075298  -5.6e-05  0.94974  0.0  0.083302  -0.000201  1.013461  -0.001  0.086419  -7.3e-05  1.010426  0.0  0.105554  0.081232  -0.000224  1.015527  -0.001
H  H9  1  0.72611445  0.35088776  0.69461801  1  0.075348  5.4e-05  0.949757  0.0  0.083289  0.000201  1.013533  0.001  0.086407  7.3e-05  1.010498  0.0  0.105558  0.081223  0.000224  1.015597  0.001
H  H10  1  0.82766800  0.94389019  0.38779549  1  0.088158  0.000385  0.95736  0.0  0.093101  0.000243  1.039127  0.0  0.093268  0.000271  1.039715  0.0  0.109329  0.092411  0.00021  1.039849  0.0
H  H11  1  0.17234304  0.05609715  0.61220569  1  0.088178  -0.000389  0.95733  0.0  0.093071  -0.000243  1.039167  0.0  0.093222  -0.000271  1.03974  0.0  0.10936  0.092377  -0.00021  1.039887  0.0
H  H12  1  0.78200772  0.83243817  0.51777572  1  0.108289  -5.1e-05  0.961185  0.0  0.123955  0.000134  1.022763  0.0  0.126632  0.000124  1.02052  0.0  0.105215  0.122306  0.000132  1.024337  0.0
H  H13  1  0.21801105  0.16756827  0.48221493  1  0.108254  4.9e-05  0.96117  0.0  0.123929  -0.000134  1.022787  0.0  0.126587  -0.000124  1.020532  0.0  0.105176  0.122273  -0.000132  1.024368  0.0
H  H14  1  0.58845262  0.91326420  0.26611234  1  0.093774  4e-05  0.989948  0.0  0.097826  -4.1e-05  1.062892  0.0  0.100125  -3.8e-05  1.060691  0.0  0.12446  0.096059  -5.1e-05  1.064631  0.0
H  H15  1  0.41156734  0.08673243  0.73388679  1  0.093732  -4.2e-05  0.98999  0.0  0.097713  4.1e-05  1.063014  0.0  0.099988  3.8e-05  1.060843  0.0  0.1244  0.095952  5.1e-05  1.064737  0.0
H  H16  1  0.15712049  0.85000572  0.52173421  1  0.108237  -0.000101  0.98574  0.0  0.113012  -0.00019  1.055516  -0.001  0.115879  -0.000129  1.053534  0.0  0.104749  0.110727  -0.000216  1.057414  -0.001
H  H17  1  0.84290105  0.14999432  0.47825741  1  0.108227  0.000102  0.985576  0.0  0.112994  0.00019  1.055398  0.001  0.115858  0.00013  1.053419  0.0  0.104757  0.11072  0.000216  1.05727  0.001
H  H18  1  0.46771691  0.79759940  0.60055332  1  0.125858  -0.000741  0.935256  -0.001  0.134718  -0.000604  0.996502  -0.001  0.138227  -0.000452  0.99366  -0.001  0.126401  0.132067  -0.00072  0.998751  -0.001
H  H19  1  0.53228990  0.20239747  0.39944790  1  0.125847  0.000741  0.935226  0.001  0.134692  0.000605  0.99648  0.001  0.1382  0.000452  0.993639  0.001  0.126405  0.132037  0.00072  0.998727  0.001
H  H20  1  0.73634139  0.38660854  0.90026231  1  0.106102  -5.4e-05  0.959748  0.0  0.114538  -1.4e-05  1.024193  0.0  0.117976  -1.2e-05  1.023085  0.0  0.099658  0.112086  -1e-05  1.025073  0.0
H  H21  1  0.26361498  0.61339535  0.09975177  1  0.106072  5.2e-05  0.959723  0.0  0.114528  1.5e-05  1.024161  0.0  0.117966  1.2e-05  1.023053  0.0  0.099647  0.112076  1e-05  1.025045  0.0
H  H22  1  0.84056024  0.63527075  0.85030217  1  0.086527  3e-06  0.982873  0.0  0.095613  5.5e-05  1.048983  0.0  0.098445  2.7e-05  1.047114  0.0  0.092388  0.093566  2.3e-05  1.050399  0.0
H  H23  1  0.15937135  0.36473808  0.14970915  1  0.086495  -1e-06  0.982796  0.0  0.095546  -5.5e-05  1.048951  0.0  0.098378  -2.6e-05  1.047082  0.0  0.092311  0.093504  -2.3e-05  1.050359  0.0
H  H24  1  0.82480049  0.74948471  0.99393363  1  0.103  -7.6e-05  0.950097  0.0  0.115165  -8.5e-05  1.006213  0.0  0.117577  -7.4e-05  1.006574  0.0  0.103729  0.11316  -9.5e-05  1.006711  0.0
H  H25  1  0.17515604  0.25053759  0.00606570  1  0.102988  7.5e-05  0.95034  0.0  0.115197  8.5e-05  1.006351  0.0  0.117606  7.4e-05  1.006719  0.0  0.103793  0.1132  9.5e-05  1.006848  0.0
H  H26  1  0.70756117  0.61367244  0.18061375  1  0.061404  1e-06  0.941996  0.0  0.069252  -1.7e-05  1.006505  0.0  0.071488  -1.1e-05  1.005147  0.0  0.101995  0.067599  -1.9e-05  1.007496  0.0
H  H27  1  0.29244990  0.38632030  0.81938339  1  0.061448  -1e-06  0.941865  0.0  0.069284  1.8e-05  1.006386  0.0  0.071528  1.1e-05  1.005034  0.0  0.102002  0.067627  1.9e-05  1.007372  0.0
H  H28  1  0.56204367  0.20093733  0.03589600  1  0.10348  0.000833  0.944  0.0  0.117297  0.000812  1.007936  0.0  0.119364  0.000619  1.006716  0.0  0.108478  0.115948  0.000932  1.00875  0.0
H  H29  1  0.43794429  0.79907245  0.96410838  1  0.10353  -0.000833  0.943992  0.0  0.11732  -0.000813  1.007927  0.0  0.119389  -0.000619  1.006704  0.0  0.108504  0.115975  -0.000933  1.008748  0.0
H  H30  1  0.50485137  0.20788387  0.16931137  1  0.093069  0.000243  0.920394  0.0  0.099812  0.000214  0.995291  0.0  0.100879  0.000191  0.993829  0.0  0.108619  0.098841  0.000231  0.996598  0.0
H  H31  1  0.49514625  0.79210888  0.83069387  1  0.093159  -0.000242  0.920468  0.0  0.099895  -0.000214  0.995319  0.0  0.10096  -0.000191  0.993859  0.0  0.108644  0.098929  -0.000231  0.996628  0.0
H  H32  1  0.87903240  0.21049795  0.21528496  1  0.104289  0.000187  0.967678  0.0  0.10954  7.2e-05  1.036833  0.0  0.112679  6.1e-05  1.032834  0.0  0.125398  0.107162  6.6e-05  1.039674  0.0
H  H33  1  0.12096660  0.78950667  0.78471112  1  0.104335  -0.000187  0.967615  0.0  0.109541  -7.2e-05  1.036822  0.0  0.112672  -6.1e-05  1.032833  0.0  0.125406  0.107167  -6.6e-05  1.039661  0.0
H  H34  1  0.00179700  0.83044688  0.13065927  1  0.10922  -5.6e-05  0.948166  0.0  0.118901  -0.00028  1.007844  0.0  0.121017  -0.000213  1.007619  0.0  0.115418  0.117161  -0.000351  1.008451  0.0
H  H35  1  0.99821275  0.16956955  0.86932298  1  0.1093  5.4e-05  0.948065  0.0  0.118938  0.00028  1.007818  0.0  0.121062  0.000213  1.007579  0.0  0.115347  0.117196  0.000351  1.008422  0.0
H  H36  1  0.71040061  0.96965879  0.04608051  1  0.125864  -0.001045  0.981068  -0.001  0.134063  -0.000848  1.044132  -0.001  0.138109  -0.000631  1.040505  0.0  0.110277  0.131061  -0.000994  1.047072  -0.001
H  H37  1  0.28960510  0.03035227  0.95390766  1  0.125788  0.001049  0.981137  0.001  0.133981  0.000848  1.044228  0.001  0.138028  0.000631  1.040601  0.0  0.110256  0.130987  0.000994  1.047146  0.001
C  C38  1  0.86367129  0.72356870  0.39902042  1  0.239374  0.000641  3.732643  0.001  0.24389  -0.000303  3.983298  0.0  0.252449  3.2e-05  4.00426  0.0  0.117877  0.238467  -0.000452  3.968223  0.0
C  C39  1  0.13633417  0.27642494  0.60098381  1  0.239129  -0.000621  3.73255  -0.001  0.243624  0.000302  3.983307  0.0  0.252151  -3.1e-05  4.004255  0.0  0.117722  0.238203  0.000452  3.968213  0.0
C  C40  1  0.78124400  0.60196869  0.40529062  1  -0.179909  -0.001199  3.729974  -0.001  -0.196721  -0.000849  3.97353  -0.001  -0.204867  -0.000722  3.993907  -0.001  -0.092323  -0.190864  -0.001154  3.958692  -0.001
C  C41  1  0.21876918  0.39802466  0.59471580  1  -0.179639  0.001173  3.729602  0.001  -0.196406  0.00085  3.973145  0.001  -0.20455  0.000723  3.993527  0.001  -0.092156  -0.190555  0.001155  3.958308  0.001
C  C42  1  0.88259176  0.49203069  0.37430953  1  0.008518  0.000778  3.737105  0.001  -0.006985  -0.000114  3.98208  0.0  -0.002025  6.2e-05  3.999904  0.0  -0.06798  -0.010088  6.4e-05  3.969093  0.0
C  C43  1  0.11742286  0.50796705  0.62569143  1  0.008273  -0.000751  3.736914  -0.001  -0.007225  0.000113  3.981938  0.0  -0.002267  -6.1e-05  3.999763  0.0  -0.06803  -0.010326  -6.4e-05  3.968949  0.0
C  C44  1  0.06319974  0.50561662  0.34012877  1  -0.129278  -0.003042  3.733415  -0.003  -0.140278  -0.002127  3.972827  -0.002  -0.14782  -0.001675  3.993908  -0.002  -0.091569  -0.13468  -0.003061  3.959135  -0.003
C  C45  1  0.93681489  0.49437360  0.65987663  1  -0.128978  0.003008  3.733385  0.003  -0.139959  0.002128  3.972721  0.002  -0.147498  0.001673  3.993803  0.002  -0.091516  -0.13437  0.003061  3.959034  0.003
C  C46  1  0.13435455  0.63082263  0.33515976  1  0.125113  0.001623  3.734028  0.002  0.101534  0.000491  3.987089  0.001  0.108931  0.000678  4.005642  0.001  0.039654  0.096601  4e-06  3.97394  0.0
C  C47  1  0.86565074  0.36916872  0.66484937  1  0.124844  -0.00159  3.73414  -0.002  0.101316  -0.000493  3.987198  -0.001  0.108711  -0.000677  4.00575  -0.001  0.039526  0.096381  -4e-06  3.974044  0.0
C  C48  1  0.76733308  0.84436583  0.43626538  1  -0.090031  -0.000791  3.659724  -0.001  -0.156623  -0.000618  3.904098  -0.001  -0.154402  -0.000415  3.91449  -0.001  -0.051922  -0.158122  -0.000885  3.89708  -0.001
C  C49  1  0.23267166  0.15562401  0.56373005  1  -0.089827  0.000805  3.659183  0.001  -0.156509  0.000618  3.903858  0.001  -0.15418  0.000415  3.914109  0.001  -0.051891  -0.158023  0.000886  3.896875  0.001
C  C50  1  0.51194481  0.89208123  0.34565958  1  0.155178  0.006697  3.636375  0.006  0.099554  0.001466  3.899917  0.001  0.115905  0.002306  3.912951  0.003  0.136515  0.089139  0.000778  3.891213  0.001
C  C51  1  0.48806600  0.10792099  0.65433646  1  0.155271  -0.006693  3.636423  -0.006  0.099667  -0.001468  3.899977  -0.001  0.11603  -0.002306  3.913027  -0.003  0.136595  0.089246  -0.000779  3.891268  -0.001
C  C52  1  0.29274328  0.85440588  0.48032249  1  0.001141  -0.00061  3.730866  0.0  -0.031426  -0.001582  4.002764  -0.001  -0.028047  -0.00067  4.024059  0.0  -0.005505  -0.0334  -0.002139  3.988748  -0.002
C  C53  1  0.70727430  0.14559207  0.51967145  1  0.00123  0.000604  3.730517  0.0  -0.031389  0.001582  4.002447  0.001  -0.028009  0.00067  4.023733  0.0  -0.0055  -0.03337  0.002139  3.988456  0.002
C  C54  1  0.44434170  0.82957961  0.52043797  1  -0.068486  -0.004557  3.655549  -0.004  -0.106876  -0.002625  3.911138  -0.003  -0.105493  -0.002287  3.928906  -0.002  0.000625  -0.107832  -0.002794  3.898951  -0.003
C  C55  1  0.55567290  0.17042027  0.47956182  1  -0.068532  0.004563  3.655464  0.004  -0.106869  0.002625  3.910993  0.003  -0.105487  0.002287  3.928767  0.002  0.00063  -0.107816  0.002794  3.898802  0.003
C  C56  1  0.67143845  0.37271339  0.06617887  1  0.218869  0.000113  3.760598  0.0  0.226943  5.1e-05  4.009365  0.0  0.232197  6.3e-05  4.031195  0.0  0.110679  0.223727  2.5e-05  3.994407  0.0
C  C57  1  0.32854995  0.62727952  0.93382806  1  0.218821  -0.000138  3.760445  0.0  0.226882  -5.3e-05  4.009191  0.0  0.232124  -6.2e-05  4.031034  0.0  0.11068  0.22366  -2.5e-05  3.994245  0.0
C  C58  1  0.73488131  0.44072005  0.95982406  1  -0.158465  -0.000417  3.705435  0.0  -0.175423  -0.000176  3.946325  0.0  -0.182574  -0.000132  3.969268  0.0  -0.08776  -0.170796  -0.000209  3.930839  0.0
C  C59  1  0.26508970  0.55928264  0.04018501  1  -0.158368  0.000455  3.705424  0.0  -0.17536  0.000175  3.946341  0.0  -0.182502  0.000134  3.969286  0.0  -0.087762  -0.170733  0.000209  3.930861  0.0
C  C60  1  0.79234390  0.57778116  0.93249540  1  -0.008307  0.000176  3.73833  0.0  -0.024398  3.6e-05  3.982154  0.0  -0.023212  2e-05  4.003805  0.0  -0.074668  -0.024774  1.5e-05  3.967021  0.0
C  C61  1  0.20759816  0.42223173  0.06751252  1  -0.00823  -0.000215  3.738163  0.0  -0.024287  -3.5e-05  3.982031  0.0  -0.023101  -2.1e-05  4.003679  0.0  -0.074603  -0.024666  -1.5e-05  3.966894  0.0
C  C62  1  0.78343291  0.64176222  0.01238189  1  -0.12447  -0.00056  3.734877  0.0  -0.135711  -0.000336  3.979819  0.0  -0.142329  -0.000257  4.00295  0.0  -0.087681  -0.131409  -0.000381  3.964507  0.0
C  C63  1  0.21653804  0.35825009  0.98762232  1  -0.124533  0.000587  3.73509  0.0  -0.135797  0.000334  3.980048  0.0  -0.142413  0.000258  4.003181  0.0  -0.087699  -0.131513  0.00038  3.964743  0.0
C  C64  1  0.71809679  0.56582383  0.11640628  1  0.121789  -9.7e-05  3.763862  0.0  0.099139  -0.000132  4.022534  0.0  0.104838  -7.7e-05  4.039939  0.0  0.035918  0.095537  -0.000172  4.010572  0.0
C  C65  1  0.28189043  0.43417352  0.88359546  1  0.121853  8.2e-05  3.763715  0.0  0.09921  0.000132  4.022387  0.0  0.104894  7.7e-05  4.039807  0.0  0.035952  0.095612  0.000172  4.010416  0.0
C  C66  1  0.61053985  0.22351314  0.09926512  1  -0.076696  -0.000155  3.62512  0.0  -0.144561  0.000126  3.869931  0.0  -0.141019  6e-05  3.8792  0.0  -0.049534  -0.146942  0.000129  3.863643  0.0
C  C67  1  0.38945635  0.77648277  0.90074038  1  -0.07698  0.000152  3.625181  0.0  -0.144773  -0.000125  3.86992  0.0  -0.141225  -6e-05  3.879189  0.0  -0.04963  -0.147157  -0.00013  3.863641  0.0
C  C68  1  0.87431162  0.12513237  0.18155660  1  0.140911  0.005248  3.648066  0.005  0.085034  0.000859  3.911067  0.001  0.100288  0.0016  3.924999  0.002  0.128962  0.07523  0.000308  3.901924  0.0
C  C69  1  0.12569522  0.87486668  0.81844271  1  0.140924  -0.005243  3.647913  -0.005  0.085089  -0.000858  3.910941  -0.001  0.100348  -0.001599  3.924874  -0.002  0.12895  0.075272  -0.000307  3.901809  0.0
C  C70  1  0.93047506  0.92807697  0.13715931  1  -0.007898  -0.000218  3.744936  0.0  -0.040454  -0.000964  4.014389  -0.001  -0.037999  -0.000176  4.036861  0.0  -0.010067  -0.041925  -0.001527  3.999608  -0.001
C  C71  1  0.06953092  0.07193752  0.86282150  1  -0.008008  0.000247  3.744627  0.0  -0.040525  0.000962  4.014022  0.001  -0.038077  0.000176  4.036494  0.0  -0.010019  -0.041987  0.001526  3.999228  0.001
C  C72  1  0.78860152  0.99495744  0.09478036  1  -0.058494  -0.00381  3.668141  -0.004  -0.093495  -0.002262  3.917259  -0.002  -0.090762  -0.001964  3.932403  -0.002  0.001272  -0.095051  -0.002478  3.906899  -0.003
C  C73  1  0.21139749  0.00504826  0.90521477  1  -0.058399  0.003776  3.667996  0.004  -0.093404  0.002262  3.917072  0.002  -0.090672  0.001964  3.932219  0.002  0.001259  -0.094969  0.002479  3.906716  0.003
N  N74  1  0.03676268  0.73873583  0.36222504  1  -0.359678  -0.010238  3.193932  -0.013  -0.316672  -0.013295  3.469969  -0.018  -0.339501  -0.010415  3.489651  -0.015  -0.324041  -0.299087  -0.018684  3.456056  -0.024
N  N75  1  0.96324408  0.26125670  0.63778000  1  -0.359522  0.010224  3.194223  0.013  -0.316457  0.013305  3.470154  0.018  -0.339277  0.010422  3.489836  0.015  -0.323907  -0.298858  0.018696  3.456203  0.024
N  N76  1  0.58121934  0.85481223  0.43428963  1  -0.052165  -0.001569  3.607841  -0.002  0.042371  -0.001253  3.821042  -0.002  0.02767  -0.000855  3.847136  -0.001  -0.244904  0.052206  -0.001534  3.802981  -0.002
N  N77  1  0.41878756  0.14518579  0.56570914  1  -0.052228  0.001563  3.607914  0.002  0.04234  0.001255  3.821139  0.002  0.02761  0.000854  3.847209  0.001  -0.244962  0.052174  0.001533  3.803071  0.002
N  N78  1  0.33775189  0.89269556  0.37154516  1  -0.334997  -0.079976  3.40574  -0.098  -0.285816  -0.05672  3.710903  -0.073  -0.320728  -0.046913  3.73631  -0.064  -0.379758  -0.265093  -0.062216  3.695974  -0.078
N  N79  1  0.66226303  0.10730242  0.62844980  1  -0.335112  0.079982  3.405896  0.098  -0.285869  0.056724  3.711015  0.073  -0.32075  0.046915  3.736383  0.064  -0.379779  -0.26513  0.062219  3.696063  0.078
N  N80  1  0.66327864  0.43343643  0.14397378  1  -0.376106  -7.7e-05  3.039999  0.0  -0.346868  -3.8e-05  3.303793  0.0  -0.358254  -3.9e-05  3.318041  0.0  -0.334345  -0.339089  -3.2e-05  3.294096  0.0
N  N81  1  0.33672293  0.56655518  0.85603126  1  -0.376125  9.2e-05  3.039897  0.0  -0.346876  3.8e-05  3.303683  0.0  -0.358258  4.1e-05  3.317939  0.0  -0.334373  -0.339098  3.2e-05  3.293987  0.0
N  N82  1  0.75540699  0.11913381  0.12345325  1  -0.049198  -0.001528  3.549646  -0.002  0.048026  -0.001201  3.760209  -0.002  0.033504  -0.000797  3.785028  -0.001  -0.239253  0.05767  -0.00148  3.74314  -0.002
N  N83  1  0.24459982  0.88087166  0.87654257  1  -0.049195  0.001533  3.54958  0.002  0.04802  0.001202  3.760102  0.002  0.033498  0.000797  3.784916  0.001  -0.239269  0.057671  0.00148  3.743032  0.002
N  N84  1  0.98281408  0.01030428  0.19085402  1  -0.356142  -0.072281  3.402852  -0.088  -0.306192  -0.051217  3.711  -0.066  -0.340799  -0.042782  3.736544  -0.057  -0.383873  -0.285536  -0.055725  3.695955  -0.069
N  N85  1  0.01719582  0.98969613  0.80913582  1  -0.356114  0.072274  3.40261  0.088  -0.306191  0.051218  3.710742  0.066  -0.340772  0.042782  3.73626  0.057  -0.383813  -0.285522  0.055725  3.695682  0.069
Cl  Cl86  1  0.11385148  0.16148629  0.32971958  1  -0.542088  -0.10127  0.945739  -0.116  -0.531285  -0.067281  1.217171  -0.082  -0.558586  -0.052056  1.193409  -0.066  -0.293032  -0.513653  -0.076106  1.23601  -0.09
Cl  Cl87  1  0.88615940  0.83850953  0.67027919  1  -0.542035  0.101285  0.945679  0.116  -0.531279  0.067288  1.217086  0.082  -0.55857  0.05206  1.193333  0.066  -0.293032  -0.513638  0.076109  1.235925  0.09
Cl  Cl88  1  0.36605585  0.88148923  0.14091058  1  -0.551974  -0.113584  0.872945  -0.131  -0.558767  -0.066993  1.149561  -0.082  -0.588364  -0.050009  1.12789  -0.064  -0.325895  -0.541033  -0.075423  1.165497  -0.09
Cl  Cl89  1  0.63394745  0.11850269  0.85908607  1  -0.551997  0.113565  0.872987  0.131  -0.558789  0.06698  1.14955  0.082  -0.588367  0.049999  1.127883  0.064  -0.325905  -0.541064  0.07541  1.165512  0.09
