# generated using pymatgen
data_CdH8C4(BrN4)2
_symmetry_space_group_name_H-M   'P 1'
_cell_length_a   3.94505106
_cell_length_b   8.38534400
_cell_length_c   17.07795975
_cell_angle_alpha   90.00013417
_cell_angle_beta   92.38157521
_cell_angle_gamma   90.00038893
_symmetry_Int_Tables_number   1
_chemical_formula_structural   CdH8C4(BrN4)2
_chemical_formula_sum   'Cd2 H16 C8 Br4 N16'
_cell_volume   564.46135164
_cell_formula_units_Z   2
loop_
 _symmetry_equiv_pos_site_id
 _symmetry_equiv_pos_as_xyz
  1  'x, y, z'
loop_
 _atom_site_type_symbol
 _atom_site_label
 _atom_site_symmetry_multiplicity
 _atom_site_fract_x
 _atom_site_fract_y
 _atom_site_fract_z
 _atom_site_occupancy
 _atom_site_hle17_bader_spin_density
 _atom_site_hle17_ddec_charge
 _atom_site_hle17_ddec_spin_density
 _atom_site_hle17_ddec_sum_bond_order
 _atom_site_hle17_magmom
 _atom_site_hse06_10hf_bader_spin_density
 _atom_site_hse06_10hf_ddec_charge
 _atom_site_hse06_10hf_ddec_spin_density
 _atom_site_hse06_10hf_ddec_sum_bond_order
 _atom_site_hse06_10hf_magmom
 _atom_site_hse06_bader_spin_density
 _atom_site_hse06_ddec_charge
 _atom_site_hse06_ddec_spin_density
 _atom_site_hse06_ddec_sum_bond_order
 _atom_site_hse06_magmom
 _atom_site_pbe_bader_spin_density
 _atom_site_pbe_cm5_charge
 _atom_site_pbe_ddec_charge
 _atom_site_pbe_ddec_spin_density
 _atom_site_pbe_ddec_sum_bond_order
 _atom_site_pbe_magmom
Cd  Cd0  1  0.50000506  0.00000317  0.99999953  1  0  0.983897  0  1.977138  0  0  0.838622  0  2.433754  0  0  0.885358  0  2.393015  0  0  0.578964  0.805509  0  2.461921  0
Cd  Cd1  1  0.00000420  0.50000083  0.50000053  1  0  0.983873  0  1.977186  0  0  0.8386  0  2.433759  0  0  0.885346  0  2.393023  0  0  0.57895  0.805487  0  2.461953  0
H  H2  1  0.23495157  0.79413073  0.34928130  1  0  0.325887  0  0.929401  0  0  0.307713  0  0.997037  0  0  0.315647  0  0.990636  0  0  0.277509  0.302076  0  1.001644  0
H  H3  1  0.26508219  0.29413298  0.15072235  1  0  0.325866  0  0.929486  0  0  0.307671  0  0.997153  0  0  0.315603  0  0.990763  0  0  0.277497  0.302037  0  1.001759  0
H  H4  1  0.76505430  0.20587250  0.65071806  1  0  0.325882  0  0.929428  0  0  0.307711  0  0.997049  0  0  0.315646  0  0.990649  0  0  0.277501  0.302074  0  1.001654  0
H  H5  1  0.73493601  0.70586906  0.84928302  1  0  0.325879  0  0.92944  0  0  0.307715  0  0.997063  0  0  0.315648  0  0.990663  0  0  0.277509  0.30208  0  1.001664  0
H  H6  1  0.96615864  0.76553180  0.26661594  1  0  0.333553  0  0.921672  0  0  0.309751  0  0.994385  0  0  0.317603  0  0.988219  0  0  0.300505  0.304249  0  0.998693  0
H  H7  1  0.53383939  0.26553129  0.23338205  1  0  0.333739  0  0.921599  0  0  0.309888  0  0.994343  0  0  0.317741  0  0.988174  0  0  0.300569  0.304385  0  0.998643  0
H  H8  1  0.03385213  0.23447023  0.73338641  1  0  0.333566  0  0.921567  0  0  0.309767  0  0.994292  0  0  0.317618  0  0.98813  0  0  0.300465  0.304265  0  0.998595  0
H  H9  1  0.46615129  0.73446836  0.76661653  1  0  0.333636  0  0.921609  0  0  0.309824  0  0.994323  0  0  0.31768  0  0.988149  0  0  0.300528  0.304322  0  0.998625  0
H  H10  1  0.26378392  0.04335431  0.41024059  1  0  0.341568  0  0.884917  0  0  0.320611  0  0.953954  0  0  0.32822  0  0.947343  0  0  0.29748  0.315198  0  0.958755  0
H  H11  1  0.23624357  0.54336289  0.08976268  1  0  0.341559  0  0.885011  0  0  0.320576  0  0.954085  0  0  0.328202  0  0.94744  0  0  0.297536  0.315155  0  0.958909  0
H  H12  1  0.73622448  0.95664772  0.58975880  1  0  0.341589  0  0.884981  0  0  0.320615  0  0.954034  0  0  0.328233  0  0.947413  0  0  0.297477  0.315193  0  0.958849  0
H  H13  1  0.76377213  0.45663557  0.91024208  1  0  0.341481  0  0.885055  0  0  0.320525  0  0.954124  0  0  0.328142  0  0.947491  0  0  0.29748  0.315119  0  0.95893  0
H  H14  1  0.05387988  0.20659585  0.36668385  1  0  0.351612  0  0.912931  0  0  0.327734  0  0.984305  0  0  0.335629  0  0.977711  0  0  0.297935  0.322189  0  0.988928  0
H  H15  1  0.44611203  0.70658500  0.13331858  1  0  0.351636  0  0.913054  0  0  0.327744  0  0.984405  0  0  0.335635  0  0.977817  0  0  0.298024  0.322206  0  0.98903  0
H  H16  1  0.94612095  0.79340857  0.63331486  1  0  0.351595  0  0.912988  0  0  0.327685  0  0.984407  0  0  0.33558  0  0.977813  0  0  0.297937  0.322141  0  0.989038  0
H  H17  1  0.55387097  0.29340392  0.86668107  1  0  0.351541  0  0.913062  0  0  0.327693  0  0.98436  0  0  0.335585  0  0.977772  0  0  0.29797  0.322153  0  0.988981  0
C  C18  1  0.67482284  0.98828889  0.19050629  1  0  0.53917  0  3.968661  0  0  0.494514  0  4.254146  0  0  0.523206  0  4.264067  0  0  0.300856  0.474985  0  4.247179  0
C  C19  1  0.82517593  0.48829677  0.30949257  1  0  0.538828  0  3.968723  0  0  0.494282  0  4.254235  0  0  0.522983  0  4.264164  0  0  0.300672  0.474757  0  4.247253  0
C  C20  1  0.32517040  0.01170837  0.80949174  1  0  0.5389  0  3.968605  0  0  0.494313  0  4.254094  0  0  0.52302  0  4.264023  0  0  0.300715  0.474782  0  4.247128  0
C  C21  1  0.17483237  0.51171003  0.69050858  1  0  0.53891  0  3.968476  0  0  0.494249  0  4.253979  0  0  0.522942  0  4.263905  0  0  0.300707  0.474723  0  4.247  0
C  C22  1  0.99923215  0.99506814  0.30703926  1  0  0.764669  0  3.850913  0  0  0.704232  0  4.136055  0  0  0.736111  0  4.13663  0  0  0.367486  0.682706  0  4.134985  0
C  C23  1  0.50075177  0.49507212  0.19295473  1  0  0.764541  0  3.851509  0  0  0.704228  0  4.136499  0  0  0.736083  0  4.137118  0  0  0.367562  0.682704  0  4.135437  0
C  C24  1  0.00076613  0.00493031  0.69295942  1  0  0.764659  0  3.850651  0  0  0.704256  0  4.135805  0  0  0.736184  0  4.136313  0  0  0.367493  0.682736  0  4.134735  0
C  C25  1  0.49923637  0.50492872  0.80704382  1  0  0.764659  0  3.850762  0  0  0.704162  0  4.136004  0  0  0.736039  0  4.136583  0  0  0.367521  0.682638  0  4.134943  0
Br  Br26  1  0.00770187  0.23254032  0.02645463  1  0  -0.534143  0  1.042241  0  0  -0.470756  0  1.338965  0  0  -0.491606  0  1.317913  0  0  -0.250666  -0.455675  0  1.353979  0
Br  Br27  1  0.49229573  0.73253583  0.47354381  1  0  -0.534124  0  1.042295  0  0  -0.470763  0  1.339028  0  0  -0.491608  0  1.317972  0  0  -0.250658  -0.455688  0  1.354045  0
Br  Br28  1  0.99229892  0.76746887  0.97354467  1  0  -0.534142  0  1.042279  0  0  -0.470779  0  1.339018  0  0  -0.491632  0  1.317969  0  0  -0.250658  -0.455696  0  1.354032  0
Br  Br29  1  0.50771010  0.26746501  0.52645614  1  0  -0.534116  0  1.042275  0  0  -0.470747  0  1.338995  0  0  -0.491591  0  1.317934  0  0  -0.250649  -0.455675  0  1.354008  0
N  N30  1  0.54228852  0.93434682  0.13273968  1  0  -0.642421  0  2.852013  0  0  -0.587057  0  3.127794  0  0  -0.611565  0  3.132402  0  0  -0.407257  -0.570253  0  3.12437  0
N  N31  1  0.95770928  0.43433510  0.36726203  1  0  -0.642359  0  2.851681  0  0  -0.586992  0  3.127406  0  0  -0.611513  0  3.132041  0  0  -0.4072  -0.570174  0  3.123949  0
N  N32  1  0.45771981  0.06565402  0.86726089  1  0  -0.642345  0  2.851929  0  0  -0.586992  0  3.127681  0  0  -0.611507  0  3.1323  0  0  -0.407266  -0.570176  0  3.124223  0
N  N33  1  0.04228650  0.56566336  0.63273603  1  0  -0.642263  0  2.851308  0  0  -0.586867  0  3.12707  0  0  -0.611392  0  3.131717  0  0  -0.40713  -0.570048  0  3.123609  0
N  N34  1  0.78902399  0.06280660  0.25185378  1  0  -0.57506  0  3.140658  0  0  -0.510704  0  3.398033  0  0  -0.537856  0  3.402973  0  0  -0.337061  -0.492067  0  3.394181  0
N  N35  1  0.71094806  0.56278476  0.24814597  1  0  -0.574605  0  3.140959  0  0  -0.510534  0  3.398517  0  0  -0.537695  0  3.403484  0  0  -0.336964  -0.491904  0  3.394672  0
N  N36  1  0.21097173  0.93718590  0.74814545  1  0  -0.574807  0  3.140521  0  0  -0.510584  0  3.39798  0  0  -0.537784  0  3.402933  0  0  -0.336914  -0.491953  0  3.394136  0
N  N37  1  0.28902994  0.43719700  0.75185245  1  0  -0.574954  0  3.140952  0  0  -0.510579  0  3.398364  0  0  -0.537725  0  3.403301  0  0  -0.337061  -0.49195  0  3.394516  0
N  N38  1  0.09843228  0.84290003  0.30286237  1  0  -0.703451  0  3.096082  0  0  -0.662572  0  3.328746  0  0  -0.68464  0  3.323635  0  0  -0.572116  -0.647492  0  3.332141  0
N  N39  1  0.40158979  0.34290410  0.19713651  1  0  -0.70364  0  3.096439  0  0  -0.662729  0  3.329095  0  0  -0.684791  0  3.323993  0  0  -0.572253  -0.647646  0  3.332484  0
N  N40  1  0.90156594  0.15710200  0.69713748  1  0  -0.70349  0  3.095911  0  0  -0.662636  0  3.328567  0  0  -0.684717  0  3.323436  0  0  -0.572124  -0.64756  0  3.331958  0
N  N41  1  0.59842108  0.65710032  0.80286409  1  0  -0.703493  0  3.09602  0  0  -0.66262  0  3.328767  0  0  -0.684688  0  3.323653  0  0  -0.572149  -0.647544  0  3.332158  0
N  N42  1  0.10913673  0.08713512  0.36639558  1  0  -0.693404  0  3.084717  0  0  -0.65281  0  3.32261  0  0  -0.673459  0  3.315874  0  0  -0.564165  -0.638703  0  3.327152  0
N  N43  1  0.39087116  0.58714199  0.13360690  1  0  -0.693313  0  3.085425  0  0  -0.652637  0  3.323227  0  0  -0.673281  0  3.316477  0  0  -0.564235  -0.63853  0  3.327795  0
N  N44  1  0.89085656  0.91286572  0.63360186  1  0  -0.693362  0  3.084692  0  0  -0.65271  0  3.322641  0  0  -0.673379  0  3.315858  0  0  -0.564135  -0.638604  0  3.327208  0
N  N45  1  0.60912182  0.41285647  0.86639581  1  0  -0.693202  0  3.085028  0  0  -0.652612  0  3.322939  0  0  -0.673256  0  3.316208  0  0  -0.564186  -0.638528  0  3.327476  0
