# generated using pymatgen
data_ZnH4C20I4(NO7)2
_symmetry_space_group_name_H-M   'P 1'
_cell_length_a   7.75807431
_cell_length_b   8.90087652
_cell_length_c   23.36278797
_cell_angle_alpha   88.12110373
_cell_angle_beta   86.75390920
_cell_angle_gamma   90.63271697
_symmetry_Int_Tables_number   1
_chemical_formula_structural   ZnH4C20I4(NO7)2
_chemical_formula_sum   'Zn2 H8 C40 I8 N4 O28'
_cell_volume   1609.69710472
_cell_formula_units_Z   2
loop_
 _symmetry_equiv_pos_site_id
 _symmetry_equiv_pos_as_xyz
  1  'x, y, z'
loop_
 _atom_site_type_symbol
 _atom_site_label
 _atom_site_symmetry_multiplicity
 _atom_site_fract_x
 _atom_site_fract_y
 _atom_site_fract_z
 _atom_site_occupancy
 _atom_site_pbe_bader_charge
 _atom_site_pbe_bader_spin_density
 _atom_site_pbe_cm5_charge
 _atom_site_pbe_ddec_charge
 _atom_site_pbe_ddec_spin_density
 _atom_site_pbe_ddec_sum_bond_order
 _atom_site_pbe_magmom
Zn  Zn0  1  0.70467880  0.52065142  0.49382461  1  1.292715  0  0.679676  0.832113  0  2.439404  0
Zn  Zn1  1  0.35158906  0.47313534  0.50278852  1  1.279045  0  0.678094  0.830169  0  2.477718  0
H  H2  1  0.59982106  0.06110777  0.35534167  1  0.651149  0  0.322937  0.380463  0  0.904003  0
H  H3  1  0.36376901  0.92471727  0.67794665  1  0.664002  0  0.314777  0.381316  0  0.933233  0
H  H4  1  0.32567664  0.95133688  0.33229991  1  0.666413  0  0.308197  0.372081  0  0.947242  0
H  H5  1  0.67083007  0.05659587  0.61992129  1  0.661849  0  0.330971  0.388471  0  0.881148  0
H  H6  1  0.59319346  0.89714172  0.13382647  1  0.600346  0  0.309873  0.342255  0  0.944521  0
H  H7  1  0.35309616  0.98936373  0.82366401  1  0.605863  0  0.308238  0.344969  0  0.944259  0
H  H8  1  0.06607572  0.96861842  0.54917657  1  0.670496  0  0.306319  0.362338  0  0.957262  0
H  H9  1  0.99789113  0.01119336  0.45356031  1  0.638684  0  0.304894  0.360732  0  0.965589  0
C  C10  1  0.50482672  0.78263439  0.49574030  1  1.624323  0  0.222707  0.619859  0  4.144404  0
C  C11  1  0.50332419  0.32353950  0.69599932  1  0.033472  0  0.009375  -0.047312  0  3.876654  0
C  C12  1  0.50240119  0.64584180  0.23448373  1  0.048139  0  0.008751  -0.091736  0  3.857214  0
C  C13  1  0.47366774  0.29598653  0.75531265  1  0.09793  0  0.010485  -0.083923  0  3.903005  0
C  C14  1  0.46463730  0.51391481  0.20628580  1  0.441347  0  0.104734  0.170495  0  3.970417  0
C  C15  1  0.46383692  0.41558643  0.79232714  1  0.386016  0  0.097158  0.157192  0  3.997464  0
C  C16  1  0.46702557  0.94582454  0.50029752  1  -0.008965  0  0.013474  -0.118078  0  3.814056  0
C  C17  1  0.59640219  0.04727862  0.50096351  1  0.006046  0  0.008143  -0.132795  0  3.83676  0
C  C18  1  0.51167294  0.48949674  0.38881001  1  1.622939  0  0.214601  0.592574  0  4.190332  0
C  C19  1  0.51257322  0.49891081  0.60946145  1  1.598412  0  0.217527  0.602854  0  4.179127  0
C  C20  1  0.56483563  0.31519920  0.88215213  1  1.328994  0  0.23303  0.434514  0  4.119206  0
C  C21  1  0.56549952  0.21225404  0.50289227  1  1.617144  0  0.216049  0.605229  0  4.173156  0
C  C22  1  0.30520640  0.55436637  0.12077658  1  1.400545  0  0.238176  0.450177  0  4.087297  0
C  C23  1  0.27751399  0.43860496  0.87789521  1  1.339451  0  0.236952  0.442906  0  4.078779  0
C  C24  1  0.60073536  0.44453213  0.11657174  1  1.364045  0  0.232934  0.437422  0  4.123443  0
C  C25  1  0.27661975  0.46670412  0.94037362  1  0.031834  0  -0.013021  -0.092801  0  3.954515  0
C  C26  1  0.56641315  0.38100835  0.06054949  1  0.001984  0  -0.014181  -0.095147  0  3.988736  0
C  C27  1  0.41535462  0.40760711  0.97160982  1  0.013564  0  0.00257  0.046179  0  3.964705  0
C  C28  1  0.42606800  0.44065245  0.03049687  1  0.013558  0  0.003821  0.047605  0  3.959794  0
C  C29  1  0.53994277  0.31065795  0.94555681  1  0.027137  0  -0.015092  -0.086366  0  3.946402  0
C  C30  1  0.30035943  0.53515637  0.05762229  1  0.017042  0  -0.010272  -0.080387  0  3.910551  0
C  C31  1  0.14989018  0.55408383  0.96802515  1  -0.157218  0  -0.038184  0.015132  0  3.809749  0
C  C32  1  0.43369165  0.37706908  0.23732099  1  -0.136531  0  -0.02655  -0.02641  0  3.813351  0
C  C33  1  0.66711982  0.26604737  0.03722347  1  -0.117294  0  -0.042497  0.008435  0  3.847827  0
C  C34  1  0.16767160  0.59568494  0.02608758  1  -0.198043  0  -0.038817  0.0236  0  3.817101  0
C  C35  1  0.64886496  0.22587126  0.97963956  1  -0.18549  0  -0.04365  0.016446  0  3.853372  0
C  C36  1  0.45141233  0.21472716  0.32646135  1  1.601455  0  0.24418  0.59996  0  4.086051  0
C  C37  1  0.50273582  0.75022890  0.68411061  1  1.571471  0  0.23008  0.588099  0  4.12367  0
C  C38  1  0.49168452  0.78915672  0.32594219  1  1.578887  0  0.239089  0.5969  0  4.088585  0
C  C39  1  0.51026790  0.18584627  0.65987668  1  1.574976  0  0.249379  0.612347  0  4.084508  0
C  C40  1  0.55745303  0.79138170  0.20450753  1  1.544295  0  0.234471  0.589203  0  4.070778  0
C  C41  1  0.47341233  0.13578627  0.77629063  1  1.553454  0  0.233277  0.588764  0  4.116043  0
C  C42  1  0.27664204  0.97996211  0.50108311  1  1.625169  0  0.242309  0.625082  0  4.10826  0
C  C43  1  0.48780616  0.56324091  0.77027969  1  -0.166195  0  -0.025984  -0.014867  0  3.80937  0
C  C44  1  0.78551398  0.00910279  0.50092294  1  1.603078  0  0.242465  0.62666  0  4.115892  0
C  C45  1  0.46017253  0.36780322  0.29608867  1  0.004634  0  0.008574  -0.035851  0  3.877255  0
C  C46  1  0.50034084  0.59320471  0.71092836  1  0.060981  0  0.004172  -0.044651  0  3.88515  0
C  C47  1  0.49490696  0.50091637  0.32485989  1  -0.010265  0  0.012351  -0.03379  0  3.861131  0
C  C48  1  0.50929850  0.47154441  0.67377623  1  0.035966  0  0.016669  -0.017858  0  3.85127  0
C  C49  1  0.50432962  0.64058861  0.29512079  1  0.076662  0  0.017917  -0.023091  0  3.820978  0
I  I50  1  0.92609151  0.62026120  0.92615377  1  0.220861  0  0.115195  0.047745  0  1.833912  0
I  I51  1  0.84183464  0.14861494  0.08832819  1  0.198596  0  0.127349  0.050626  0  1.794269  0
I  I52  1  0.00444388  0.76194381  0.06024869  1  0.224819  0  0.0931  0.016026  0  1.876358  0
I  I53  1  0.77338513  0.03463830  0.94727559  1  0.21174  0  0.093525  0.007977  0  1.785592  0
I  I54  1  0.34676329  0.18983162  0.19337333  1  0.190163  0  0.134118  0.057872  0  1.597363  0
I  I55  1  0.53262086  0.73086695  0.82991411  1  0.164223  0  0.140913  0.03886  0  1.720278  0
I  I56  1  0.00764649  0.32836167  0.58034175  1  0.515714  0  0.350313  0.312716  0  1.595937  0
I  I57  1  0.05338913  0.65706155  0.40629255  1  0.477816  0  0.326842  0.284099  0  1.495369  0
N  N58  1  0.43715708  0.39004920  0.85301156  1  -1.166333  0  -0.246804  -0.2364  0  3.682412  0
N  N59  1  0.45786209  0.50932995  0.14522541  1  -1.231748  0  -0.24921  -0.235408  0  3.69323  0
N  N60  1  0.08498469  0.46574604  0.50822917  1  -0.35375  0  -0.167792  -0.056789  0  3.253491  0
N  N61  1  0.97262509  0.52697264  0.48091079  1  -0.361932  0  -0.161586  -0.052552  0  3.21869  0
O  O62  1  0.65992920  0.74218056  0.49961207  1  -1.133841  0  -0.289209  -0.494454  0  2.362677  0
O  O63  1  0.18703456  0.60285339  0.15164575  1  -1.084239  0  -0.260323  -0.398027  0  2.169335  0
O  O64  1  0.15873869  0.46354376  0.84682683  1  -1.072127  0  -0.247755  -0.377388  0  2.182765  0
O  O65  1  0.74026142  0.44099940  0.13867566  1  -1.084252  0  -0.2563  -0.394514  0  2.176924  0
O  O66  1  0.31790348  0.13831633  0.33072150  1  -1.132551  0  -0.263758  -0.464265  0  2.20821  0
O  O67  1  0.60433491  0.17055943  0.34322525  1  -1.123741  0  -0.30603  -0.429955  0  2.234048  0
O  O68  1  0.62130644  0.79919528  0.65171456  1  -1.117693  0  -0.27831  -0.460829  0  2.081775  0
O  O69  1  0.35744652  0.82294492  0.69799919  1  -1.148228  0  -0.329611  -0.469975  0  2.252455  0
O  O70  1  0.60122584  0.84942162  0.35360231  1  -1.129814  0  -0.269779  -0.46853  0  2.166443  0
O  O71  1  0.33250295  0.84344234  0.31954012  1  -1.167064  0  -0.335042  -0.492551  0  2.299883  0
O  O72  1  0.38086184  0.10735137  0.65500318  1  -1.151427  0  -0.27197  -0.49107  0  2.202578  0
O  O73  1  0.41623614  0.25546761  0.51959563  1  -1.142259  0  -0.300884  -0.524811  0  2.385935  0
O  O74  1  0.66690431  0.15773014  0.63663920  1  -1.145057  0  -0.310975  -0.455849  0  2.341446  0
O  O75  1  0.61847229  0.89549808  0.22995332  1  -1.11665  0  -0.272022  -0.469857  0  2.169091  0
O  O76  1  0.54185301  0.79928569  0.14691450  1  -1.117851  0  -0.331792  -0.46377  0  2.301677  0
O  O77  1  0.57934443  0.04798949  0.75697735  1  -1.10907  0  -0.267081  -0.460559  0  2.195722  0
O  O78  1  0.34502003  0.09874429  0.81602195  1  -1.113192  0  -0.328885  -0.45065  0  2.243713  0
O  O79  1  0.20638474  0.01444897  0.45625815  1  -1.147836  0  -0.276227  -0.490714  0  2.191751  0
O  O80  1  0.19595046  0.95503834  0.55170770  1  -1.166147  0  -0.313345  -0.445437  0  2.299296  0
O  O81  1  0.85499490  0.99249334  0.54738159  1  -1.148903  0  -0.274674  -0.503927  0  2.213393  0
O  O82  1  0.86677120  0.01379981  0.45007448  1  -1.136641  0  -0.311646  -0.446665  0  2.319179  0
O  O83  1  0.37523151  0.69839287  0.48821267  1  -1.158178  0  -0.311539  -0.559724  0  2.437282  0
O  O84  1  0.69561289  0.29473256  0.48726246  1  -1.153929  0  -0.306526  -0.537936  0  2.405514  0
O  O85  1  0.64801614  0.54152017  0.40798235  1  -1.14344  0  -0.298384  -0.524767  0  2.392623  0
O  O86  1  0.36588035  0.51583334  0.58896291  1  -1.144413  0  -0.308749  -0.535035  0  2.337263  0
O  O87  1  0.38472075  0.42731025  0.41768033  1  -1.156714  0  -0.313731  -0.548423  0  2.372462  0
O  O88  1  0.65713342  0.49636121  0.58184466  1  -1.148908  0  -0.304152  -0.543764  0  2.424141  0
O  O89  1  0.69234563  0.26684951  0.85554225  1  -1.09152  0  -0.258414  -0.398806  0  2.178276  0
