# generated using pymatgen
data_Zn2H39C42N7O30
_symmetry_space_group_name_H-M   'P 1'
_cell_length_a   10.14031584
_cell_length_b   10.65546918
_cell_length_c   11.61104896
_cell_angle_alpha   85.11410995
_cell_angle_beta   94.82240573
_cell_angle_gamma   82.35039201
_symmetry_Int_Tables_number   1
_chemical_formula_structural   Zn2H39C42N7O30
_chemical_formula_sum   'Zn2 H39 C42 N7 O30'
_cell_volume   1233.09328231
_cell_formula_units_Z   1
loop_
 _symmetry_equiv_pos_site_id
 _symmetry_equiv_pos_as_xyz
  1  'x, y, z'
loop_
 _atom_site_type_symbol
 _atom_site_label
 _atom_site_symmetry_multiplicity
 _atom_site_fract_x
 _atom_site_fract_y
 _atom_site_fract_z
 _atom_site_occupancy
 _atom_site_pbe_bader_charge
 _atom_site_pbe_bader_spin_density
 _atom_site_pbe_cm5_charge
 _atom_site_pbe_ddec_charge
 _atom_site_pbe_ddec_spin_density
 _atom_site_pbe_ddec_sum_bond_order
 _atom_site_pbe_magmom
Zn  Zn0  1  0.59242525  0.49022392  0.47066621  1  1.32835  0  0.709851  0.894463  0  2.203661  0
Zn  Zn1  1  0.28914515  0.52998781  0.55179369  1  1.294645  0  0.701703  0.862971  0  2.327761  0
H  H2  1  0.69104914  0.42946841  0.84099733  1  0.122837  0  0.121371  0.102962  0  1.089572  0
H  H3  1  0.47028028  0.64803467  0.06763413  1  0.171583  0  0.119519  0.124226  0  1.060184  0
H  H4  1  0.72793670  0.86475884  0.38773813  1  0.066314  0  0.104056  0.097367  0  1.005179  0
H  H5  1  0.72931506  0.11226131  0.50318663  1  0.101778  0  0.096025  0.117267  0  1.05685  0
H  H6  1  0.69605480  0.10218859  0.35246634  1  0.107272  0  0.107311  0.140534  0  0.964976  0
H  H7  1  0.78439285  0.62095101  0.36547241  1  0.192184  0  0.135945  0.117064  0  1.003403  0
H  H8  1  0.85315390  0.33683009  0.76148624  1  0.200375  0  0.128074  0.163002  0  1.018575  0
H  H9  1  0.07271773  0.38268213  0.79065512  1  0.201434  0  0.13616  0.128846  0  0.985592  0
H  H10  1  0.23621785  0.47287250  0.27809599  1  0.649775  0  0.325167  0.365111  0  0.94579  0
H  H11  1  0.45871741  0.93201192  0.88754452  1  0.601427  0  0.334905  0.365053  0  0.882199  0
H  H12  1  0.10117901  0.10295264  0.50021208  1  0.441232  0  0.2943  0.224572  0  1.028325  0
H  H13  1  0.00254853  0.28610373  0.38462175  1  0.095426  0  0.10026  0.121614  0  1.011144  0
H  H14  1  0.08684828  0.18044645  0.29522217  1  0.012678  0  0.095474  0.103289  0  0.979765  0
H  H15  1  0.16281619  0.31102109  0.34069099  1  0.070539  0  0.097896  0.112526  0  1.051044  0
H  H16  1  0.09577692  0.94961555  0.44442503  1  0.443638  0  0.30826  0.254372  0  0.952731  0
H  H17  1  0.11542799  0.89706763  0.66015251  1  -0.010758  0  0.074683  0.064098  0  1.033336  0
H  H18  1  0.25562622  0.78434709  0.64114791  1  0.105644  0  0.101493  0.124659  0  1.037993  0
H  H19  1  0.09208556  0.76404356  0.58302071  1  0.053935  0  0.089072  0.095575  0  1.03874  0
H  H20  1  0.74857618  0.85696182  0.73333742  1  0.61238  0  0.316554  0.342834  0  0.955428  0
H  H21  1  0.18415754  0.66616958  0.25388425  1  0.66168  0  0.341125  0.403468  0  0.85756  0
H  H22  1  0.59568702  0.10207795  0.84432492  1  0.583564  0  0.324805  0.34594  0  0.900748  0
H  H23  1  0.81580481  0.03551669  0.70419095  1  0.647143  0  0.314271  0.348077  0  0.971995  0
H  H24  1  0.17785960  0.21922760  0.61441429  1  0.496214  0  0.293854  0.230069  0  1.016338  0
H  H25  1  0.08790097  0.07329137  0.76030093  1  0.061488  0  0.099301  0.103657  0  1.054224  0
H  H26  1  0.17271461  0.15140177  0.87060129  1  0.151591  0  0.118694  0.150771  0  0.98989  0
H  H27  1  0.26533542  0.06039841  0.77248311  1  0.054632  0  0.108699  0.119648  0  0.985067  0
H  H28  1  0.74455905  0.27135795  0.16934810  1  0.457004  0  0.288238  0.243059  0  1.025581  0
H  H29  1  0.82200334  0.07256564  0.09841848  1  0.01183  0  0.09295  0.103169  0  0.98405  0
H  H30  1  0.93212564  0.18885422  0.07881385  1  0.028213  0  0.083474  0.081787  0  1.013227  0
H  H31  1  0.82527226  0.15534077  0.95981867  1  0.071107  0  0.090455  0.10198  0  1.046513  0
H  H32  1  0.99223300  0.47875507  0.06121154  1  0.662604  0  0.334932  0.390896  0  0.861369  0
H  H33  1  0.68535905  0.61147329  0.78482448  1  0.422859  0  0.29687  0.252734  0  0.96005  0
H  H34  1  0.73909553  0.81649919  0.88294376  1  -0.023005  0  0.081665  0.065797  0  1.039582  0
H  H35  1  0.86659728  0.70503622  0.83166525  1  0.045835  0  0.104062  0.11653  0  0.992556  0
H  H36  1  0.84006632  0.69993863  0.98082744  1  0.111164  0  0.106464  0.136353  0  1.018462  0
H  H37  1  0.60824904  0.83255651  0.22488032  1  0.613186  0  0.333191  0.365817  0  0.884464  0
H  H38  1  0.20644778  0.75369303  0.91222977  1  0.616048  0  0.35189  0.385802  0  0.834338  0
H  H39  1  0.26315720  0.27692382  0.73980298  1  0.551946  0  0.298274  0.274921  0  1.001958  0
H  H40  1  0.45019926  0.11968323  0.11432696  1  0.632117  0  0.351534  0.386339  0  0.835835  0
C  C41  1  0.41950099  0.28772379  0.47970050  1  1.586456  0  0.234838  0.63555  0  4.10352  0
C  C42  1  0.60090391  0.47086254  0.09958201  1  -0.003208  0  0.013776  -0.023055  0  3.523458  0
C  C43  1  0.57386670  0.61607036  0.05259201  1  -0.058019  0  -0.088935  -0.218269  0  3.718274  0
C  C44  1  0.45350010  0.42904718  0.08791074  1  0.015516  0  0.015246  -0.138198  0  3.537784  0
C  C45  1  0.52591502  0.06997228  0.44969700  1  0.00344  0  -0.008365  0.078726  0  3.950326  0
C  C46  1  0.40914837  0.15225667  0.46004192  1  -0.057975  0  -0.011524  -0.139882  0  3.896436  0
C  C47  1  0.29242551  0.09204859  0.46685530  1  0.367507  0  0.097705  0.118765  0  3.927988  0
C  C48  1  0.29821722  0.95549098  0.47483889  1  0.450866  0  0.099608  0.126478  0  3.965631  0
C  C49  1  0.42137190  0.87541659  0.47014818  1  0.044587  0  -0.014048  -0.134464  0  3.937639  0
C  C50  1  0.53190434  0.93897308  0.45689489  1  -0.007018  0  -0.019109  0.004403  0  3.937689  0
C  C51  1  0.68446521  0.91627516  0.45657376  1  0.011006  0  -0.075645  -0.16161  0  3.835305  0
C  C52  1  0.45433991  0.53007802  0.74668357  1  1.582412  0  0.210937  0.588903  0  4.120056  0
C  C53  1  0.67271554  0.06708782  0.43896719  1  0.008822  0  -0.151742  -0.209769  0  3.818719  0
C  C54  1  0.02497617  0.43802311  0.60030280  1  0.559878  0  0.141602  0.135218  0  3.834912  0
C  C55  1  0.98723116  0.58229606  0.44451439  1  0.490996  0  0.136947  0.072854  0  3.874379  0
C  C56  1  0.85198811  0.56630441  0.43522353  1  0.561975  0  0.088204  0.085059  0  3.820652  0
C  C57  1  0.89187908  0.41770877  0.58723069  1  0.569544  0  0.156981  0.210086  0  3.849694  0
C  C58  1  0.90731557  0.31398243  0.68651524  1  -0.016049  0  -0.065955  -0.249182  0  3.748226  0
C  C59  1  0.05894040  0.34212856  0.70708270  1  0.265394  0  0.041343  0.06155  0  3.637281  0
C  C60  1  0.43792050  0.73460803  0.47101022  1  1.530629  0  0.227702  0.631868  0  4.111622  0
C  C61  1  0.65218734  0.45481474  0.23308198  1  1.635622  0  0.204646  0.556415  0  4.180783  0
C  C62  1  0.62018874  0.39436834  0.89693530  1  -0.029861  0  -0.086981  -0.221842  0  3.710515  0
C  C63  1  0.69425883  0.38613148  0.02282477  1  0.361637  0  0.088933  0.088439  0  3.694301  0
C  C64  1  0.57061331  0.62909816  0.91824225  1  0.376504  0  0.095188  0.092673  0  3.69913  0
C  C65  1  0.38637371  0.47267529  0.95600273  1  -0.005267  0  0.001639  -0.143239  0  3.541681  0
C  C66  1  0.50074447  0.50715388  0.87939164  1  0.033939  0  0.011256  -0.021935  0  3.538349  0
C  C67  1  0.36041666  0.49982251  0.16994361  1  1.542335  0  0.242721  0.598556  0  4.012488  0
C  C68  1  0.49882264  0.75944142  0.85992278  1  1.522253  0  0.221138  0.529372  0  4.097556  0
C  C69  1  0.10105724  0.23978450  0.36739945  1  0.236797  0  -0.148429  -0.215034  0  3.888972  0
C  C70  1  0.16037034  0.83390313  0.59847556  1  0.28561  0  -0.151433  -0.209006  0  3.971511  0
C  C71  1  0.75388829  0.85344781  0.57020897  1  1.467051  0  0.248365  0.628352  0  3.977406  0
C  C72  1  0.03338196  0.67302635  0.35510075  1  1.592381  0  0.25521  0.586838  0  4.086589  0
C  C73  1  0.60131955  0.27388300  0.83650296  1  1.535548  0  0.229821  0.626698  0  4.000571  0
C  C74  1  0.89165618  0.18247309  0.65445716  1  1.538337  0  0.245464  0.629187  0  4.056293  0
C  C75  1  0.17268399  0.12303853  0.78193024  1  0.169668  0  -0.140108  -0.236328  0  3.800488  0
C  C76  1  0.83148357  0.16530632  0.05287549  1  0.269735  0  -0.160331  -0.214448  0  3.988897  0
C  C77  1  0.83558107  0.42275374  0.00238288  1  1.515662  0  0.231501  0.53931  0  4.051538  0
C  C78  1  0.78957810  0.71612142  0.89265002  1  0.261669  0  -0.152034  -0.238753  0  3.960648  0
C  C79  1  0.64640413  0.70218175  0.12809869  1  1.521956  0  0.234962  0.619579  0  4.008031  0
C  C80  1  0.26489389  0.58020315  0.95352406  1  1.533746  0  0.232335  0.581409  0  4.048211  0
C  C81  1  0.31285533  0.36253956  0.90405582  1  1.665542  0  0.203179  0.56987  0  4.171606  0
C  C82  1  0.47191780  0.28630216  0.13762587  1  1.581049  0  0.233952  0.579666  0  4.087298  0
N  N83  1  0.07811182  0.51927715  0.53010002  1  -1.183105  0  -0.274691  -0.211367  0  3.414562  0
N  N84  1  0.80071076  0.48259140  0.50714360  1  -1.195216  0  -0.273272  -0.182553  0  3.419774  0
N  N85  1  0.16588890  0.16260965  0.47352648  1  -1.122214  0  -0.468087  -0.314102  0  3.562803  0
N  N86  1  0.18067874  0.90352998  0.48986424  1  -1.187064  0  -0.468866  -0.315191  0  3.603694  0
N  N87  1  0.17147335  0.23990361  0.70185483  1  -1.109947  0  -0.472203  -0.209044  0  3.536408  0
N  N88  1  0.72273629  0.25729773  0.08381437  1  -1.049909  0  -0.479264  -0.34835  0  3.397684  0
N  N89  1  0.70138911  0.62154595  0.87172644  1  -1.047267  0  -0.462857  -0.313719  0  3.428511  0
O  O90  1  0.53481740  0.32158781  0.48051440  1  -1.136553  0  -0.286194  -0.489021  0  2.386165  0
O  O91  1  0.31328745  0.35949152  0.49955340  1  -1.182406  0  -0.319951  -0.570258  0  2.443232  0
O  O92  1  0.54291854  0.52504259  0.67771354  1  -1.160978  0  -0.303212  -0.550231  0  2.294407  0
O  O93  1  0.32719461  0.55278225  0.71576434  1  -1.148479  0  -0.331979  -0.554021  0  2.374708  0
O  O94  1  0.55783976  0.67903979  0.47732596  1  -1.134613  0  -0.298571  -0.519529  0  2.366347  0
O  O95  1  0.33502346  0.67702747  0.46075893  1  -1.184336  0  -0.326318  -0.569371  0  2.451524  0
O  O96  1  0.75944137  0.38843301  0.27192340  1  -1.156112  0  -0.309274  -0.513729  0  2.202811  0
O  O97  1  0.57293606  0.52045816  0.29397990  1  -1.183175  0  -0.326233  -0.566766  0  2.38833  0
O  O98  1  0.32888240  0.61613689  0.16404094  1  -1.115887  0  -0.273474  -0.475072  0  2.240813  0
O  O99  1  0.30201555  0.42039257  0.23722360  1  -1.144585  0  -0.319199  -0.451803  0  2.38085  0
O  O100  1  0.47046409  0.78599751  0.75558430  1  -1.156811  0  -0.289637  -0.483453  0  2.219893  0
O  O101  1  0.49364040  0.85173712  0.93453510  1  -1.121345  0  -0.335983  -0.469607  0  2.320947  0
O  O102  1  0.83222282  0.75503786  0.58614213  1  -1.153839  0  -0.27163  -0.477018  0  2.166865  0
O  O103  1  0.71877600  0.91784125  0.66435930  1  -1.128914  0  -0.337102  -0.490117  0  2.312396  0
O  O104  1  0.98270769  0.78295687  0.33092475  1  -1.104541  0  -0.255951  -0.436202  0  2.101667  0
O  O105  1  0.13652931  0.61259840  0.30636102  1  -1.162774  0  -0.3137  -0.488135  0  2.408972  0
O  O106  1  0.61284701  0.27072940  0.73266096  1  -1.153177  0  -0.304157  -0.504853  0  2.212976  0
O  O107  1  0.59224216  0.16384098  0.90241517  1  -1.089515  0  -0.338473  -0.470152  0  2.350707  0
O  O108  1  0.92093821  0.14334690  0.56213613  1  -1.160629  0  -0.272339  -0.483494  0  2.187519  0
O  O109  1  0.84654215  0.11060846  0.73847788  1  -1.15783  0  -0.326096  -0.467306  0  2.341106  0
O  O110  1  0.89313920  0.38413178  0.92019117  1  -1.167624  0  -0.293049  -0.495046  0  2.256603  0
O  O111  1  0.90208324  0.47413163  0.08677591  1  -1.147321  0  -0.320255  -0.439473  0  2.311353  0
O  O112  1  0.76603999  0.69656699  0.15580537  1  -1.147598  0  -0.283326  -0.48731  0  2.177775  0
O  O113  1  0.55596362  0.78746700  0.17142426  1  -1.100554  0  -0.338186  -0.464576  0  2.259698  0
O  O114  1  0.15546815  0.56894734  0.98630738  1  -1.145716  0  -0.282549  -0.488419  0  2.207974  0
O  O115  1  0.28835951  0.69520989  0.90687905  1  -1.108863  0  -0.314014  -0.455323  0  2.396718  0
O  O116  1  0.21193732  0.33394452  0.94694907  1  -1.155082  0  -0.318381  -0.526166  0  2.222639  0
O  O117  1  0.36372581  0.31753059  0.81612379  1  -1.167581  0  -0.312411  -0.527184  0  2.356278  0
O  O118  1  0.52233633  0.25518725  0.23681179  1  -1.14465  0  -0.268668  -0.483421  0  2.301231  0
O  O119  1  0.42389223  0.20338105  0.07075083  1  -1.122367  0  -0.313835  -0.438646  0  2.383972  0
