# generated using pymatgen
data_Zn4H9C28S2ClO13F4
_symmetry_space_group_name_H-M   'P 1'
_cell_length_a   18.56878350
_cell_length_b   19.73684677
_cell_length_c   32.85178988
_cell_angle_alpha   86.05951877
_cell_angle_beta   73.58855934
_cell_angle_gamma   61.94477591
_symmetry_Int_Tables_number   1
_chemical_formula_structural   Zn4H9C28S2ClO13F4
_chemical_formula_sum   'Zn16 H36 C112 S8 Cl4 O52 F16'
_cell_volume   10162.87524803
_cell_formula_units_Z   4
loop_
 _symmetry_equiv_pos_site_id
 _symmetry_equiv_pos_as_xyz
  1  'x, y, z'
loop_
 _atom_site_type_symbol
 _atom_site_label
 _atom_site_symmetry_multiplicity
 _atom_site_fract_x
 _atom_site_fract_y
 _atom_site_fract_z
 _atom_site_occupancy
 _atom_site_pbe_bader_charge
 _atom_site_pbe_bader_spin_density
 _atom_site_pbe_cm5_charge
 _atom_site_pbe_ddec_charge
 _atom_site_pbe_ddec_spin_density
 _atom_site_pbe_ddec_sum_bond_order
 _atom_site_pbe_magmom
Zn  Zn0  1  0.87429586  0.55574630  0.51870837  1  1.323447  0  0.671711  0.960039  0  2.360042  0
Zn  Zn1  1  0.03824202  0.48533248  0.43838083  1  1.315235  0  0.676687  0.9636  0  2.412398  0
Zn  Zn2  1  0.04176086  0.39809386  0.52354084  1  1.316926  0  0.673191  0.965463  0  2.359586  0
Zn  Zn3  1  0.04683585  0.56003878  0.51846156  1  1.319168  0  0.67356  0.966713  0  2.358456  0
Zn  Zn4  1  0.62508476  0.19048106  0.73198684  1  1.308121  0  0.673508  0.962016  0  2.373058  0
Zn  Zn5  1  0.46495101  0.34966829  0.72561312  1  1.31258  0  0.673854  0.961769  0  2.384317  0
Zn  Zn6  1  0.45830284  0.26560194  0.81264912  1  1.317304  0  0.674489  0.966992  0  2.356883  0
Zn  Zn7  1  0.45221060  0.19298977  0.72947131  1  1.319547  0  0.673295  0.963891  0  2.367296  0
Zn  Zn8  1  0.46196221  0.76359222  0.31307529  1  1.314622  0  0.669406  0.955997  0  2.354008  0
Zn  Zn9  1  0.45322845  0.69292589  0.23089345  1  1.321101  0  0.677464  0.965462  0  2.410187  0
Zn  Zn10  1  0.62530741  0.69264676  0.22922523  1  1.312436  0  0.673995  0.966302  0  2.358841  0
Zn  Zn11  1  0.45884573  0.85145118  0.22615551  1  1.317349  0  0.673379  0.962795  0  2.370706  0
Zn  Zn12  1  0.03618042  0.89893134  0.02385893  1  1.318436  0  0.673376  0.960511  0  2.37393  0
Zn  Zn13  1  0.04979364  0.05727666  0.01903993  1  1.313438  0  0.670333  0.957722  0  2.35088  0
Zn  Zn14  1  0.87633320  0.05873766  0.01963655  1  1.319728  0  0.676337  0.965803  0  2.396301  0
Zn  Zn15  1  0.03623644  0.98514955  0.93751139  1  1.311061  0  0.673101  0.962888  0  2.371185  0
H  H16  1  0.80297828  0.96632768  0.65549829  1  0.116613  0  0.122348  0.148255  0  0.968926  0
H  H17  1  0.31136107  0.97582334  0.40161115  1  0.120366  0  0.120176  0.145616  0  0.972612  0
H  H18  1  0.54301441  0.48227009  0.62175915  1  0.057972  0  0.102058  0.115023  0  0.974125  0
H  H19  1  0.54816423  0.52251071  0.66708209  1  0.083908  0  0.100692  0.11327  0  0.977524  0
H  H20  1  0.64423109  0.57067520  0.61898135  1  0.054994  0  0.099412  0.110799  0  0.979107  0
H  H21  1  0.63901636  0.53044826  0.57363744  1  0.059147  0  0.099015  0.108897  0  0.980687  0
H  H22  1  0.35299947  0.67389869  0.43100255  1  0.062784  0  0.097992  0.107285  0  0.982798  0
H  H23  1  0.26228944  0.76213323  0.42843482  1  0.027908  0  0.099387  0.11045  0  0.97742  0
H  H24  1  0.16602644  0.71407197  0.47637794  1  0.06493  0  0.10036  0.111939  0  0.97636  0
H  H25  1  0.25660558  0.62584086  0.47894236  1  0.056521  0  0.101062  0.113084  0  0.974799  0
H  H26  1  0.54726439  0.76229248  0.42816412  1  0.030745  0  0.099478  0.110808  0  0.977608  0
H  H27  1  0.54228699  0.67404315  0.43059109  1  0.02496  0  0.09817  0.107591  0  0.982452  0
H  H28  1  0.63840598  0.62588097  0.47864215  1  0.064389  0  0.098374  0.108165  0  0.981285  0
H  H29  1  0.64353256  0.71404098  0.47619826  1  0.064186  0  0.09924  0.110989  0  0.979969  0
H  H30  1  0.33371889  0.17930107  0.63110726  1  0.075816  0  0.101076  0.112131  0  0.976301  0
H  H31  1  0.24313552  0.21943540  0.67648695  1  0.090985  0  0.102258  0.114979  0  0.972616  0
H  H32  1  0.14684642  0.26753290  0.62840277  1  0.04682  0  0.102104  0.115137  0  0.974048  0
H  H33  1  0.23757468  0.22735628  0.58307394  1  0.076427  0  0.100869  0.112465  0  0.976125  0
H  H34  1  0.18890566  0.65978056  0.96263630  1  0.122953  0  0.123363  0.149311  0  0.967392  0
H  H35  1  0.95710870  0.07645842  0.81942327  1  0.069693  0  0.102084  0.114423  0  0.974122  0
H  H36  1  0.95195227  0.98836161  0.82198655  1  0.042222  0  0.100969  0.112458  0  0.976186  0
H  H37  1  0.85593101  0.03624134  0.77392577  1  0.065538  0  0.100056  0.110745  0  0.977277  0
H  H38  1  0.86083634  0.12448916  0.77134355  1  0.067938  0  0.101704  0.114116  0  0.974246  0
H  H39  1  0.16626583  0.21370068  0.97599733  1  0.065684  0  0.09989  0.110561  0  0.977407  0
H  H40  1  0.25701340  0.12556234  0.97857657  1  0.055567  0  0.099803  0.109405  0  0.980368  0
H  H41  1  0.35306371  0.17366155  0.93043804  1  0.080203  0  0.103262  0.116905  0  0.97183  0
H  H42  1  0.26233122  0.26175026  0.92793463  1  0.036002  0  0.100895  0.112926  0  0.975753  0
H  H43  1  0.92634643  0.28348723  0.09451549  1  0.094928  0  0.11973  0.144287  0  0.974193  0
H  H44  1  0.25682057  0.03110714  0.07344132  1  0.081174  0  0.098832  0.108191  0  0.981383  0
H  H45  1  0.16597133  0.07142251  0.11877346  1  0.067237  0  0.100328  0.111233  0  0.97594  0
H  H46  1  0.26194241  0.02325103  0.16690574  1  0.077803  0  0.10161  0.113842  0  0.974325  0
H  H47  1  0.35272384  0.98301801  0.12162152  1  0.047656  0  0.102098  0.114809  0  0.973598  0
H  H48  1  0.95196492  0.72689621  0.08315756  1  0.040442  0  0.100235  0.110768  0  0.97705  0
H  H49  1  0.95716652  0.76713223  0.12848034  1  0.058218  0  0.103204  0.116302  0  0.972677  0
H  H50  1  0.86082866  0.71926872  0.17656848  1  0.062903  0  0.10321  0.116448  0  0.971923  0
H  H51  1  0.85581872  0.67888649  0.13124514  1  0.051493  0  0.100603  0.111648  0  0.977177  0
C  C52  1  0.86228907  0.56816085  0.43109124  1  1.566453  0  0.229633  0.628384  0  4.171122  0
C  C53  1  0.12334816  0.31585359  0.43857119  1  1.57297  0  0.213588  0.617189  0  4.218941  0
C  C54  1  0.86338704  0.43026068  0.56848074  1  1.579375  0  0.2285  0.626172  0  4.172526  0
C  C55  1  0.13807260  0.43206563  0.56842152  1  1.584878  0  0.229911  0.628918  0  4.16916  0
C  C56  1  0.87605757  0.68383431  0.56079931  1  1.598628  0  0.215311  0.623066  0  4.211891  0
C  C57  1  0.13740911  0.56921443  0.43100772  1  1.571201  0  0.230434  0.626751  0  4.172135  0
C  C58  1  0.63908428  0.31741371  0.68129763  1  1.595739  0  0.228067  0.624567  0  4.173349  0
C  C59  1  0.37750533  0.43419077  0.81087741  1  1.559814  0  0.215047  0.622478  0  4.210902  0
C  C60  1  0.63639006  0.18122662  0.81927844  1  1.557486  0  0.229776  0.628731  0  4.168223  0
C  C61  1  0.36172559  0.18129435  0.81824366  1  1.579209  0  0.229386  0.627279  0  4.16786  0
C  C62  1  0.62335428  0.06551224  0.68850768  1  1.558407  0  0.218309  0.610573  0  4.218258  0
C  C63  1  0.36346655  0.31911016  0.68068082  1  1.573287  0  0.230345  0.627644  0  4.168358  0
C  C64  1  0.36291799  0.68115599  0.31895900  1  1.576101  0  0.228692  0.625567  0  4.17651  0
C  C65  1  0.62256403  0.56623455  0.18829690  1  1.516369  0  0.213523  0.618264  0  4.218446  0
C  C66  1  0.63757807  0.68119602  0.31848735  1  1.568359  0  0.229371  0.629847  0  4.167945  0
C  C67  1  0.63643369  0.81938123  0.18082821  1  1.58026  0  0.228462  0.626063  0  4.170233  0
C  C68  1  0.37664115  0.93356582  0.31187279  1  1.557834  0  0.218016  0.611345  0  4.214754  0
C  C69  1  0.36186837  0.81871113  0.18115529  1  1.569506  0  0.228362  0.623817  0  4.174745  0
C  C70  1  0.13719279  0.93098283  0.06862049  1  1.594867  0  0.230091  0.630387  0  4.166525  0
C  C71  1  0.87914329  0.18431216  0.06140258  1  1.54333  0  0.218287  0.610135  0  4.218126  0
C  C72  1  0.86179706  0.93159509  0.06878281  1  1.565582  0  0.228724  0.626696  0  4.173713  0
C  C73  1  0.86175635  0.06925616  0.93145275  1  1.573803  0  0.228654  0.624835  0  4.173756  0
C  C74  1  0.12148616  0.81548147  0.93878370  1  1.539269  0  0.217651  0.609587  0  4.218057  0
C  C75  1  0.13724537  0.06848204  0.93108189  1  1.586733  0  0.228566  0.627251  0  4.170108  0
C  C76  1  0.73690208  0.80269043  0.60084243  1  0.118602  0  0.009028  0.102122  0  4.088789  0
C  C77  1  0.76041085  0.94754420  0.64926119  1  0.049782  0  -0.086792  -0.130729  0  3.955771  0
C  C78  1  0.82500250  0.75832463  0.58596554  1  -0.158191  0  -0.030527  -0.190249  0  3.948357  0
C  C79  1  0.67268711  0.99061307  0.66356924  1  -0.177265  0  -0.02261  -0.115351  0  3.972361  0
C  C80  1  0.78413197  0.87882953  0.62626481  1  -0.163299  0  -0.020738  0.002178  0  4.074411  0
C  C81  1  0.71358455  0.87143003  0.62377064  1  -0.11003  0  -0.030081  -0.086599  0  4.093261  0
C  C82  1  0.20195140  0.22722269  0.36886111  1  0.22753  0  0.010983  0.101535  0  4.087928  0
C  C83  1  0.29883287  0.02215344  0.38036988  1  0.029394  0  -0.089568  -0.13594  0  3.964976  0
C  C84  1  0.17270839  0.24197087  0.41298988  1  -0.12048  0  -0.031223  -0.18876  0  3.949102  0
C  C85  1  0.32725987  0.00873026  0.33650745  1  -0.166395  0  -0.023007  -0.116778  0  3.974845  0
C  C86  1  0.25305810  0.10189943  0.39229860  1  -0.140781  0  -0.021574  0.003742  0  4.079189  0
C  C87  1  0.24784068  0.14722275  0.35710796  1  -0.212188  0  -0.029008  -0.086338  0  4.087621  0
C  C88  1  0.69708138  0.34451468  0.65290300  1  -0.01723  0  -0.017377  -0.167085  0  3.979442  0
C  C89  1  0.80821638  0.40046462  0.59706429  1  0.131693  0  -0.016874  -0.164441  0  3.977469  0
C  C90  1  0.66648012  0.41690760  0.63651249  1  0.00744  0  -0.005905  0.066169  0  3.905852  0
C  C91  1  0.83994109  0.32736199  0.61345764  1  0.491834  0  0.099042  0.157626  0  4.044918  0
C  C92  1  0.71942188  0.44349939  0.60992851  1  -0.058058  0  -0.007573  0.063252  0  3.90878  0
C  C93  1  0.78660026  0.30050535  0.64022864  1  0.593337  0  0.098677  0.158737  0  4.043024  0
C  C94  1  0.58578918  0.48981476  0.63607372  1  -0.036231  0  -0.148726  -0.196591  0  3.872638  0
C  C95  1  0.64591493  0.52000585  0.60593693  1  -0.00959  0  -0.149124  -0.193745  0  3.877068  0
C  C96  1  0.30599797  0.65218563  0.34644862  1  0.030886  0  -0.016923  -0.166389  0  3.98167  0
C  C97  1  0.19430791  0.59661926  0.40193965  1  0.000559  0  -0.018396  -0.167796  0  3.982205  0
C  C98  1  0.28031612  0.66365583  0.39080350  1  0.005007  0  -0.008589  0.062295  0  3.915971  0
C  C99  1  0.21976866  0.58444022  0.35717220  1  0.535538  0  0.101378  0.159637  0  4.040701  0
C  C100  1  0.22713694  0.63723805  0.41722552  1  0.00874  0  -0.006911  0.064962  0  3.914137  0
C  C101  1  0.27336045  0.61122432  0.33049274  1  0.567866  0  0.101364  0.160856  0  4.039555  0
C  C102  1  0.28838460  0.69928005  0.42757522  1  0.005312  0  -0.149924  -0.195646  0  3.884203  0
C  C103  1  0.22803738  0.66918147  0.45759086  1  -0.015309  0  -0.148419  -0.194464  0  3.876597  0
C  C104  1  0.69587302  0.65227383  0.34612585  1  0.136618  0  -0.018328  -0.168412  0  3.976464  0
C  C105  1  0.80721755  0.59626114  0.40191947  1  -0.025948  0  -0.017413  -0.167608  0  3.979978  0
C  C106  1  0.66550296  0.66381821  0.39051018  1  -0.043696  0  -0.007949  0.063849  0  3.91168  0
C  C107  1  0.83891098  0.58430867  0.35715072  1  0.55627  0  0.101383  0.160943  0  4.040322  0
C  C108  1  0.71849409  0.63717496  0.41703727  1  0.066877  0  -0.007952  0.064335  0  3.912788  0
C  C109  1  0.78539694  0.61124974  0.33037707  1  0.467062  0  0.101013  0.160965  0  4.039864  0
C  C110  1  0.58491730  0.69943898  0.42723994  1  0.039291  0  -0.149891  -0.194926  0  3.880846  0
C  C111  1  0.64516609  0.66922674  0.45734376  1  -0.014463  0  -0.148911  -0.194513  0  3.879223  0
C  C112  1  0.30601411  0.34934039  0.65267657  1  0.083698  0  -0.01794  -0.168204  0  3.979002  0
C  C113  1  0.19438711  0.40523542  0.59703867  1  0.039156  0  -0.017907  -0.170388  0  3.980834  0
C  C114  1  0.27274569  0.30641036  0.64007203  1  -0.03703  0  -0.006295  0.0661  0  3.909878  0
C  C115  1  0.22718299  0.44934629  0.60967252  1  0.519589  0  0.098819  0.159775  0  4.043885  0
C  C116  1  0.21963328  0.33298347  0.61356120  1  0.023448  0  -0.007087  0.06507  0  3.908671  0
C  C117  1  0.28073805  0.42254990  0.63638289  1  0.515724  0  0.098964  0.158831  0  4.041581  0
C  C118  1  0.27170959  0.22993151  0.64417376  1  -0.057188  0  -0.146903  -0.193456  0  3.874494  0
C  C119  1  0.21144757  0.26004826  0.61408132  1  -0.012237  0  -0.148635  -0.197125  0  3.875894  0
C  C120  1  0.29837244  0.58310527  0.82054227  1  0.180169  0  0.009526  0.100718  0  4.091572  0
C  C121  1  0.20131586  0.66842180  0.92883417  1  0.078235  0  -0.087278  -0.131495  0  3.955421  0
C  C122  1  0.32779467  0.50950403  0.83512886  1  -0.120763  0  -0.030713  -0.189895  0  3.947614  0
C  C123  1  0.17233202  0.74089587  0.91357121  1  -0.194587  0  -0.021803  -0.11557  0  3.973471  0
C  C124  1  0.24736573  0.61059961  0.89491477  1  -0.202761  0  -0.020365  0.003879  0  4.0746  0
C  C125  1  0.25240051  0.64071791  0.85465090  1  -0.175348  0  -0.030009  -0.08712  0  4.09325  0
C  C126  1  0.80346170  0.09832448  0.90389409  1  0.010024  0  -0.016495  -0.165936  0  3.978334  0
C  C127  1  0.69182505  0.15381046  0.84829809  1  -0.024722  0  -0.019221  -0.169603  0  3.981206  0
C  C128  1  0.83374216  0.08684230  0.85951530  1  -0.032029  0  -0.005544  0.066034  0  3.911127  0
C  C129  1  0.66038285  0.16586707  0.89305519  1  0.540099  0  0.099678  0.159406  0  4.044226  0
C  C130  1  0.78063688  0.11326238  0.83302206  1  0.108655  0  -0.008319  0.061415  0  3.909351  0
C  C131  1  0.71393827  0.13925783  0.91977574  1  0.590617  0  0.100719  0.160275  0  4.042525  0
C  C132  1  0.91433396  0.05120968  0.82282494  1  -0.00806  0  -0.148251  -0.194498  0  3.875778  0
C  C133  1  0.85409629  0.08123425  0.79272160  1  -0.033442  0  -0.148102  -0.194251  0  3.877218  0
C  C134  1  0.19406964  0.09601097  0.90188006  1  0.04501  0  -0.018262  -0.167392  0  3.978409  0
C  C135  1  0.30534828  0.15186502  0.84598541  1  0.049554  0  -0.017822  -0.166612  0  3.977541  0
C  C136  1  0.22718439  0.13661928  0.91695309  1  -0.032863  0  -0.006461  0.064679  0  3.911275  0
C  C137  1  0.27253544  0.11080002  0.83030545  1  0.550088  0  0.099824  0.159107  0  4.041411  0
C  C138  1  0.28011986  0.16323070  0.89037748  1  0.008312  0  -0.00681  0.064153  0  3.909896  0
C  C139  1  0.21910330  0.08403688  0.85711775  1  0.521101  0  0.099777  0.158754  0  4.040815  0
C  C140  1  0.22827277  0.16877792  0.95720740  1  -0.018129  0  -0.148937  -0.193271  0  3.88057  0
C  C141  1  0.28843290  0.19890507  0.92706269  1  -0.003636  0  -0.147822  -0.196636  0  3.873315  0
C  C142  1  0.64197119  0.44695098  0.14901764  1  0.101183  0  0.009781  0.100493  0  4.089987  0
C  C143  1  0.85881668  0.30214998  0.10074189  1  0.080662  0  -0.088856  -0.133939  0  3.965715  0
C  C144  1  0.67111026  0.49137781  0.16367798  1  -0.078773  0  -0.030377  -0.187088  0  3.945656  0
C  C145  1  0.82857305  0.25906438  0.08636795  1  -0.14054  0  -0.023316  -0.116925  0  3.975703  0
C  C146  1  0.79079679  0.37080368  0.12367834  1  -0.171911  0  -0.021218  0.00419  0  4.078284  0
C  C147  1  0.71040146  0.37813083  0.12615925  1  -0.113  0  -0.028038  -0.086962  0  4.089865  0
C  C148  1  0.19392358  0.90118020  0.09699515  1  0.061822  0  -0.018925  -0.170153  0  3.981157  0
C  C149  1  0.30531530  0.84545037  0.15272772  1  0.031972  0  -0.015822  -0.164911  0  3.978559  0
C  C150  1  0.22685821  0.94427694  0.10975475  1  -0.00917  0  -0.007799  0.06351  0  3.912067  0
C  C151  1  0.27266685  0.80118983  0.14009260  1  0.527412  0  0.10104  0.160802  0  4.039933  0
C  C152  1  0.27981374  0.91774960  0.13631573  1  -0.00843  0  -0.006184  0.065862  0  3.912452  0
C  C153  1  0.21913256  0.82801541  0.11335423  1  0.530974  0  0.099788  0.159299  0  4.040052  0
C  C154  1  0.22795565  0.02074616  0.10573178  1  -0.046497  0  -0.149068  -0.194393  0  3.879411  0
C  C155  1  0.28808354  0.99058235  0.13589070  1  -0.012332  0  -0.148086  -0.195467  0  3.873448  0
C  C156  1  0.80355348  0.90481275  0.09713307  1  0.055286  0  -0.018162  -0.168822  0  3.982413  0
C  C157  1  0.69189378  0.84927856  0.15270920  1  -0.007841  0  -0.017027  -0.166364  0  3.978461  0
C  C158  1  0.83383999  0.83251982  0.11359263  1  -0.012543  0  -0.007092  0.064076  0  3.913099  0
C  C159  1  0.66044204  0.92247899  0.13639993  1  0.500066  0  0.099522  0.158797  0  4.043674  0
C  C160  1  0.78068863  0.80606788  0.14007681  1  0.08192  0  -0.006661  0.064076  0  3.909631  0
C  C161  1  0.71403420  0.94917605  0.10970070  1  0.547276  0  0.100907  0.160439  0  4.041265  0
C  C162  1  0.91437646  0.75963642  0.11415426  1  0.008162  0  -0.148149  -0.194816  0  3.87635  0
C  C163  1  0.85407208  0.72960109  0.14425289  1  -0.007518  0  -0.148356  -0.195622  0  3.874203  0
S  S164  1  0.87879675  0.80099590  0.60024146  1  0.286488  0  0.089315  0.141167  0  2.739428  0
S  S165  1  0.61843368  0.94847497  0.64941036  1  0.301763  0  0.08935  0.142064  0  2.769344  0
S  S166  1  0.20144404  0.15802581  0.43973876  1  0.276116  0  0.084397  0.134429  0  2.742591  0
S  S167  1  0.29898244  0.09224359  0.30947022  1  0.297671  0  0.092448  0.14703  0  2.763415  0
S  S168  1  0.29913517  0.51135042  0.89049873  1  0.317918  0  0.089544  0.141334  0  2.735423  0
S  S169  1  0.20076977  0.73964640  0.85829240  1  0.340444  0  0.089351  0.142532  0  2.767417  0
S  S170  1  0.78180297  0.44870414  0.14949465  1  0.287413  0  0.085015  0.134802  0  2.739432  0
S  S171  1  0.71802619  0.30109386  0.10045030  1  0.315512  0  0.096109  0.152153  0  2.760339  0
Cl  Cl172  1  0.66240885  0.78082157  0.59359095  1  -0.161562  0  0.004837  -0.034918  0  1.497896  0
Cl  Cl173  1  0.18715401  0.29372625  0.33184526  1  -0.152974  0  0.017246  -0.016484  0  1.496165  0
Cl  Cl174  1  0.31287790  0.60552813  0.76873672  1  -0.156166  0  0.009334  -0.027559  0  1.497739  0
Cl  Cl175  1  0.53851973  0.46886207  0.15631898  1  -0.146604  0  0.017484  -0.016528  0  1.49661  0
O  O176  1  0.99935344  0.50020792  0.50079081  1  -1.23654  0  -0.570982  -1.031342  0  2.531533  0
O  O177  1  0.82343910  0.58340452  0.47089401  1  -1.155317  0  -0.309492  -0.538812  0  2.310776  0
O  O178  1  0.10216161  0.37657514  0.41849193  1  -1.176194  0  -0.312864  -0.533415  0  2.383905  0
O  O179  1  0.94345526  0.38728210  0.55880871  1  -1.158599  0  -0.31283  -0.541682  0  2.36809  0
O  O180  1  0.94226158  0.53176570  0.41429330  1  -1.147676  0  -0.309743  -0.534214  0  2.37391  0
O  O181  1  0.82405688  0.49744398  0.55619586  1  -1.166238  0  -0.307844  -0.533658  0  2.312569  0
O  O182  1  0.10604396  0.31235706  0.47910500  1  -1.145627  0  -0.320752  -0.547471  0  2.321596  0
O  O183  1  0.11550323  0.38413955  0.55955504  1  -1.155555  0  -0.306561  -0.53167  0  2.31123  0
O  O184  1  0.95696976  0.65709789  0.55110414  1  -1.139745  0  -0.320119  -0.54492  0  2.323607  0
O  O185  1  0.11756532  0.49902250  0.55535902  1  -1.16796  0  -0.313361  -0.542896  0  2.364815  0
O  O186  1  0.83605815  0.65284279  0.55091200  1  -1.168066  0  -0.317206  -0.544077  0  2.373881  0
O  O187  1  0.11210130  0.53141172  0.41421266  1  -1.15146  0  -0.310239  -0.534509  0  2.374271  0
O  O188  1  0.11899413  0.58646338  0.47075984  1  -1.147353  0  -0.308481  -0.53628  0  2.309777  0
O  O189  1  0.50020147  0.24926925  0.75012848  1  -1.222424  0  -0.571044  -1.031836  0  2.530502  0
O  O190  1  0.67233955  0.25054869  0.69448654  1  -1.168464  0  -0.313289  -0.543328  0  2.367083  0
O  O191  1  0.39988255  0.43387046  0.77045337  1  -1.140049  0  -0.31582  -0.540883  0  2.376639  0
O  O192  1  0.55634140  0.21849724  0.83586867  1  -1.161925  0  -0.313025  -0.54293  0  2.365611  0
O  O193  1  0.55968472  0.36504788  0.68985409  1  -1.163161  0  -0.305683  -0.527879  0  2.313604  0
O  O194  1  0.67553661  0.16424102  0.77957243  1  -1.149372  0  -0.307626  -0.533507  0  2.315314  0
O  O195  1  0.39390294  0.37526416  0.83291464  1  -1.169033  0  -0.320341  -0.546563  0  2.321094  0
O  O196  1  0.38438968  0.21861027  0.83767531  1  -1.168183  0  -0.306836  -0.532073  0  2.309385  0
O  O197  1  0.54231009  0.09550192  0.69728176  1  -1.145094  0  -0.317889  -0.543232  0  2.332618  0
O  O198  1  0.38227642  0.16723829  0.77823142  1  -1.165121  0  -0.313096  -0.542496  0  2.365801  0
O  O199  1  0.66565459  0.09349521  0.69901783  1  -1.164886  0  -0.314952  -0.53709  0  2.313954  0
O  O200  1  0.39051467  0.36229902  0.69053859  1  -1.161809  0  -0.312701  -0.540884  0  2.369137  0
O  O201  1  0.38060527  0.25129477  0.69230768  1  -1.1586  0  -0.307513  -0.532606  0  2.310388  0
O  O202  1  0.50037031  0.75091954  0.25058033  1  -1.229085  0  -0.570971  -1.031162  0  2.531398  0
O  O203  1  0.38669032  0.71758640  0.33835718  1  -1.170471  0  -0.309795  -0.538691  0  2.311472  0
O  O204  1  0.54173538  0.59631254  0.19873198  1  -1.131592  0  -0.313176  -0.534848  0  2.38158  0
O  O205  1  0.67098620  0.66793401  0.27848763  1  -1.161206  0  -0.311526  -0.540714  0  2.366996  0
O  O206  1  0.38297279  0.66741795  0.27899397  1  -1.143656  0  -0.309614  -0.533564  0  2.377883  0
O  O207  1  0.55808416  0.71717298  0.33809980  1  -1.158558  0  -0.309247  -0.537392  0  2.310357  0
O  O208  1  0.66642671  0.59469803  0.19704696  1  -1.160205  0  -0.320177  -0.547533  0  2.324635  0
O  O209  1  0.67534387  0.75141338  0.19226945  1  -1.162569  0  -0.306558  -0.53196  0  2.312283  0
O  O210  1  0.39466976  0.93551578  0.27137132  1  -1.141309  0  -0.317918  -0.541996  0  2.334175  0
O  O211  1  0.55638753  0.86298071  0.19093644  1  -1.161554  0  -0.312562  -0.541166  0  2.368091  0
O  O212  1  0.39665377  0.87381472  0.33299413  1  -1.173079  0  -0.31794  -0.541656  0  2.310735  0
O  O213  1  0.38308565  0.75144199  0.19378524  1  -1.156244  0  -0.310307  -0.535492  0  2.373814  0
O  O214  1  0.38418624  0.86663351  0.19036522  1  -1.153044  0  -0.306927  -0.53294  0  2.310864  0
O  O215  1  0.00120044  0.99990360  0.99994037  1  -1.225414  0  -0.570985  -1.031071  0  2.531664  0
O  O216  1  0.11036390  0.88757091  0.05881007  1  -1.16589  0  -0.313088  -0.541278  0  2.369565  0
O  O217  1  0.96008753  0.15509808  0.05160881  1  -1.171809  0  -0.318185  -0.544155  0  2.312265  0
O  O218  1  0.82854969  0.99908830  0.05638151  1  -1.1632  0  -0.310433  -0.536967  0  2.372486  0
O  O219  1  0.12061329  0.99851456  0.05663108  1  -1.159392  0  -0.308541  -0.537041  0  2.311685  0
O  O220  1  0.94117822  0.88344256  0.05941836  1  -1.1482  0  -0.307288  -0.534189  0  2.313905  0
O  O221  1  0.83655396  0.15548563  0.05181268  1  -1.167525  0  -0.315931  -0.536542  0  2.337596  0
O  O222  1  0.82852272  0.08435480  0.97139920  1  -1.156713  0  -0.310651  -0.537212  0  2.37184  0
O  O223  1  0.10158470  0.87537620  0.91761565  1  -1.174431  0  -0.319007  -0.544112  0  2.332244  0
O  O224  1  0.94113541  0.03122401  0.91201793  1  -1.162459  0  -0.306745  -0.53228  0  2.312195  0
O  O225  1  0.10179886  0.81364484  0.97919357  1  -1.152451  0  -0.313468  -0.534853  0  2.31309  0
O  O226  1  0.12068475  0.08439724  0.97082587  1  -1.15068  0  -0.308276  -0.536272  0  2.311302  0
O  O227  1  0.11034068  0.03207492  0.91433314  1  -1.157982  0  -0.312574  -0.540407  0  2.368285  0
F  F228  1  0.92420826  0.27856670  0.60428182  1  -0.618242  0  -0.094242  -0.109937  0  1.390549  0
F  F229  1  0.82646647  0.22938256  0.65332561  1  -0.610868  0  -0.093824  -0.109602  0  1.388633  0
F  F230  1  0.19376576  0.54625254  0.33725868  1  -0.608462  0  -0.088777  -0.102908  0  1.391261  0
F  F231  1  0.29174959  0.59538438  0.28841719  1  -0.614613  0  -0.088218  -0.102215  0  1.391872  0
F  F232  1  0.92303178  0.54603730  0.33733248  1  -0.612518  0  -0.088839  -0.103113  0  1.39119  0
F  F233  1  0.82517044  0.59536138  0.28828306  1  -0.615077  0  -0.092263  -0.108196  0  1.389795  0
F  F234  1  0.20902674  0.52044872  0.59653258  1  -0.611604  0  -0.09444  -0.110562  0  1.390217  0
F  F235  1  0.30707930  0.47138317  0.64549355  1  -0.614568  0  -0.094783  -0.111016  0  1.389578  0
F  F236  1  0.57615805  0.20385040  0.91293523  1  -0.618547  0  -0.093014  -0.108895  0  1.389477  0
F  F237  1  0.67433128  0.15501490  0.96185978  1  -0.616633  0  -0.090265  -0.104481  0  1.389811  0
F  F238  1  0.29062061  0.09490346  0.78819801  1  -0.619602  0  -0.093954  -0.109592  0  1.389533  0
F  F239  1  0.19277008  0.04592622  0.83728345  1  -0.611188  0  -0.09395  -0.109302  0  1.388435  0
F  F240  1  0.29087832  0.73015615  0.15317909  1  -0.608676  0  -0.089372  -0.103913  0  1.390911  0
F  F241  1  0.19288292  0.77915495  0.10422039  1  -0.612048  0  -0.093533  -0.109196  0  1.388552  0
F  F242  1  0.57623658  0.97139000  0.14548272  1  -0.61504  0  -0.093422  -0.109193  0  1.390415  0
F  F243  1  0.67448797  0.02018066  0.09653054  1  -0.611595  0  -0.090479  -0.104592  0  1.38917  0
