# generated using pymatgen
data_ErH13C12(SO7)2
_symmetry_space_group_name_H-M   'P 1'
_cell_length_a   6.72286172
_cell_length_b   10.71539423
_cell_length_c   11.83332068
_cell_angle_alpha   97.75827732
_cell_angle_beta   89.99992592
_cell_angle_gamma   89.99648791
_symmetry_Int_Tables_number   1
_chemical_formula_structural   ErH13C12(SO7)2
_chemical_formula_sum   'Er2 H26 C24 S4 O28'
_cell_volume   844.64711597
_cell_formula_units_Z   2
loop_
 _symmetry_equiv_pos_site_id
 _symmetry_equiv_pos_as_xyz
  1  'x, y, z'
loop_
 _atom_site_type_symbol
 _atom_site_label
 _atom_site_symmetry_multiplicity
 _atom_site_fract_x
 _atom_site_fract_y
 _atom_site_fract_z
 _atom_site_occupancy
 _atom_site_hle17_bader_spin_density
 _atom_site_hle17_ddec_charge
 _atom_site_hle17_ddec_spin_density
 _atom_site_hle17_ddec_sum_bond_order
 _atom_site_hle17_magmom
 _atom_site_hse06_10hf_bader_spin_density
 _atom_site_hse06_10hf_ddec_charge
 _atom_site_hse06_10hf_ddec_spin_density
 _atom_site_hse06_10hf_ddec_sum_bond_order
 _atom_site_hse06_10hf_magmom
 _atom_site_hse06_bader_spin_density
 _atom_site_hse06_ddec_charge
 _atom_site_hse06_ddec_spin_density
 _atom_site_hse06_ddec_sum_bond_order
 _atom_site_hse06_magmom
 _atom_site_pbe_bader_spin_density
 _atom_site_pbe_cm5_charge
 _atom_site_pbe_ddec_charge
 _atom_site_pbe_ddec_spin_density
 _atom_site_pbe_ddec_sum_bond_order
 _atom_site_pbe_magmom
Er  Er0  1  0.24999747  0.68814067  0.77340357  1  0  2.385004  0  1.567855  0  0  2.328933  0  1.886492  0  0  2.371695  0  1.84565  0  0  1.543464  2.298082  0  1.915195  0
Er  Er1  1  0.75000890  0.31185486  0.22659391  1  0  2.385002  0  1.567797  0  0  2.328966  0  1.886427  0  0  2.371685  0  1.845594  0  0  1.543434  2.298078  0  1.915128  0
H  H2  1  0.75000832  0.93764181  0.17356592  1  0  0.403263  0  0.879548  0  0  0.370337  0  0.959986  0  0  0.384422  0  0.945519  0  0  0.297106  0.360468  0  0.970002  0
H  H3  1  0.24997574  0.06234262  0.82644385  1  0  0.403345  0  0.879873  0  0  0.370412  0  0.960315  0  0  0.384499  0  0.945841  0  0  0.297111  0.36054  0  0.97035  0
H  H4  1  0.93721735  0.54949737  0.88791398  1  0  0.448568  0  0.837399  0  0  0.419056  0  0.896957  0  0  0.429139  0  0.882144  0  0  0.308412  0.411916  0  0.907441  0
H  H5  1  0.43717571  0.45052007  0.11209248  1  0  0.448509  0  0.837469  0  0  0.419026  0  0.896986  0  0  0.429105  0  0.882178  0  0  0.308401  0.411881  0  0.907477  0
H  H6  1  0.06279645  0.45050378  0.11208158  1  0  0.44852  0  0.837479  0  0  0.419016  0  0.897031  0  0  0.429101  0  0.882216  0  0  0.308381  0.411874  0  0.907517  0
H  H7  1  0.56281876  0.54949249  0.88791195  1  0  0.448428  0  0.837605  0  0  0.418927  0  0.897133  0  0  0.429011  0  0.882321  0  0  0.308348  0.411787  0  0.907619  0
H  H8  1  0.95431802  0.68397566  0.96049449  1  0  0.435218  0  0.80956  0  0  0.418733  0  0.863631  0  0  0.426714  0  0.854244  0  0  0.33037  0.412928  0  0.870604  0
H  H9  1  0.45431344  0.31605495  0.03949481  1  0  0.435256  0  0.809445  0  0  0.418772  0  0.863534  0  0  0.426749  0  0.854145  0  0  0.330362  0.41296  0  0.870533  0
H  H10  1  0.04570471  0.31602453  0.03950012  1  0  0.435234  0  0.809363  0  0  0.418669  0  0.863564  0  0  0.426659  0  0.854156  0  0  0.330373  0.412858  0  0.870548  0
H  H11  1  0.54568698  0.68396407  0.96050188  1  0  0.435249  0  0.809573  0  0  0.418675  0  0.863775  0  0  0.426672  0  0.854359  0  0  0.33036  0.412867  0  0.870751  0
H  H12  1  0.13259880  0.42973351  0.70969723  1  0  0.439343  0  0.862161  0  0  0.409533  0  0.923725  0  0  0.420156  0  0.908128  0  0  0.29874  0.401997  0  0.934813  0
H  H13  1  0.63261173  0.57026852  0.29029939  1  0  0.439288  0  0.862166  0  0  0.40952  0  0.923674  0  0  0.420145  0  0.908075  0  0  0.298686  0.401977  0  0.934777  0
H  H14  1  0.86741799  0.57026875  0.29031028  1  0  0.439227  0  0.862309  0  0  0.409468  0  0.923781  0  0  0.420093  0  0.908191  0  0  0.298748  0.401935  0  0.934867  0
H  H15  1  0.36741249  0.42973747  0.70970600  1  0  0.439277  0  0.862164  0  0  0.409483  0  0.923715  0  0  0.42011  0  0.908113  0  0  0.298687  0.401941  0  0.934816  0
H  H16  1  0.13519228  0.60117047  0.52663846  1  0  0.464768  0  0.798513  0  0  0.435042  0  0.869852  0  0  0.444468  0  0.855866  0  0  0.322677  0.428417  0  0.878922  0
H  H17  1  0.63518123  0.39882291  0.47335214  1  0  0.464809  0  0.798433  0  0  0.435079  0  0.8698  0  0  0.444514  0  0.855798  0  0  0.322717  0.428452  0  0.878861  0
H  H18  1  0.86478434  0.39884012  0.47335983  1  0  0.464766  0  0.79854  0  0  0.434983  0  0.8699  0  0  0.444404  0  0.855928  0  0  0.322704  0.428358  0  0.878979  0
H  H19  1  0.36479540  0.60116973  0.52663995  1  0  0.464792  0  0.798519  0  0  0.435028  0  0.869856  0  0  0.444453  0  0.855877  0  0  0.322702  0.428405  0  0.878948  0
H  H20  1  0.75000641  0.86707132  0.83791916  1  0  0.109374  0  0.972383  0  0  0.113738  0  1.044854  0  0  0.118737  0  1.039475  0  0  0.112829  0.110065  0  1.048867  0
H  H21  1  0.24999996  0.13293085  0.16208243  1  0  0.109308  0  0.972438  0  0  0.113681  0  1.044912  0  0  0.11868  0  1.039538  0  0  0.112834  0.110011  0  1.048928  0
H  H22  1  0.74999817  0.26910652  0.92038828  1  0  0.123774  0  0.97203  0  0  0.129269  0  1.039898  0  0  0.133225  0  1.036885  0  0  0.1152  0.126301  0  1.042248  0
H  H23  1  0.24999779  0.73090028  0.07960875  1  0  0.123765  0  0.972115  0  0  0.129259  0  1.039981  0  0  0.133218  0  1.036962  0  0  0.115216  0.126288  0  1.042326  0
H  H24  1  0.75001420  0.19510924  0.50794261  1  0  0.120501  0  0.983445  0  0  0.125057  0  1.051835  0  0  0.129637  0  1.047487  0  0  0.11312  0.121669  0  1.055065  0
H  H25  1  0.24997878  0.80489383  0.49205654  1  0  0.120493  0  0.983505  0  0  0.125069  0  1.051825  0  0  0.129637  0  1.047508  0  0  0.113107  0.121681  0  1.055058  0
H  H26  1  0.75000317  0.79195141  0.42651316  1  0  0.134655  0  0.937286  0  0  0.140554  0  1.001982  0  0  0.144984  0  0.998244  0  0  0.11848  0.137223  0  1.004876  0
H  H27  1  0.24998833  0.20804594  0.57348029  1  0  0.134669  0  0.937319  0  0  0.140572  0  1.001995  0  0  0.145  0  0.998267  0  0  0.118491  0.137235  0  1.004885  0
C  C28  1  0.75000941  0.95916983  0.80938540  1  0  -0.075483  0  3.645063  0  0  -0.118521  0  3.907948  0  0  -0.115828  0  3.921927  0  0  -0.068743  -0.120011  0  3.898651  0
C  C29  1  0.25000440  0.04083040  0.19061175  1  0  -0.075443  0  3.64509  0  0  -0.118531  0  3.90794  0  0  -0.115843  0  3.92193  0  0  -0.068782  -0.120027  0  3.898661  0
C  C30  1  0.75000518  0.06440337  0.89043234  1  0  -0.038374  0  3.719876  0  0  -0.017847  0  3.960972  0  0  -0.024282  0  3.980486  0  0  -0.006466  -0.013802  0  3.947778  0
C  C31  1  0.25001607  0.93559876  0.10956586  1  0  -0.038412  0  3.720031  0  0  -0.017786  0  3.961062  0  0  -0.024217  0  3.980574  0  0  -0.006422  -0.013746  0  3.947885  0
C  C32  1  0.75001270  0.18603829  0.85638223  1  0  -0.061576  0  3.708449  0  0  -0.102173  0  3.95876  0  0  -0.098942  0  3.97558  0  0  -0.077928  -0.103804  0  3.9473  0
C  C33  1  0.24999516  0.81396481  0.14361861  1  0  -0.061647  0  3.70863  0  0  -0.102294  0  3.95888  0  0  -0.099064  0  3.975695  0  0  -0.077934  -0.103915  0  3.947405  0
C  C34  1  0.75002554  0.20030163  0.74282997  1  0  -0.143109  0  3.689104  0  0  -0.121909  0  3.941592  0  0  -0.128822  0  3.962248  0  0  -0.011782  -0.117443  0  3.928082  0
C  C35  1  0.24996149  0.79970242  0.25717182  1  0  -0.143048  0  3.689316  0  0  -0.12175  0  3.941615  0  0  -0.128665  0  3.962269  0  0  -0.011784  -0.11729  0  3.928104  0
C  C36  1  0.75001714  0.10329350  0.53755982  1  0  -0.068245  0  3.635853  0  0  -0.105545  0  3.888308  0  0  -0.10182  0  3.904602  0  0  -0.066582  -0.107549  0  3.877447  0
C  C37  1  0.24997733  0.89670484  0.46243711  1  0  -0.06827  0  3.635887  0  0  -0.105592  0  3.888381  0  0  -0.101877  0  3.904669  0  0  -0.066639  -0.107588  0  3.877524  0
C  C38  1  0.75000506  0.99718455  0.45625216  1  0  -0.07803  0  3.746456  0  0  -0.054788  0  3.984435  0  0  -0.065993  0  4.009227  0  0  -0.015157  -0.047647  0  3.968043  0
C  C39  1  0.24998049  0.00280912  0.54374679  1  0  -0.077762  0  3.746014  0  0  -0.054562  0  3.983997  0  0  -0.065748  0  4.008781  0  0  -0.015044  -0.047434  0  3.96761  0
C  C40  1  0.75000349  0.87544934  0.49000046  1  0  -0.038941  0  3.690604  0  0  -0.080702  0  3.950937  0  0  -0.076307  0  3.968688  0  0  -0.066638  -0.08318  0  3.939132  0
C  C41  1  0.24999991  0.12454621  0.50999786  1  0  -0.039104  0  3.690603  0  0  -0.080832  0  3.950904  0  0  -0.076429  0  3.968625  0  0  -0.066657  -0.083299  0  3.939076  0
C  C42  1  0.75000539  0.86371722  0.60459059  1  0  -0.164847  0  3.675186  0  0  -0.144677  0  3.925195  0  0  -0.153984  0  3.947396  0  0  -0.010405  -0.138639  0  3.910757  0
C  C43  1  0.25000246  0.13627923  0.39540529  1  0  -0.164727  0  3.675015  0  0  -0.144566  0  3.924997  0  0  -0.153875  0  3.947203  0  0  -0.010376  -0.138527  0  3.910539  0
C  C44  1  0.75003233  0.09363106  0.65559195  1  0  0.061704  0  3.723369  0  0  0.069265  0  3.956261  0  0  0.068652  0  3.979528  0  0  0.007137  0.069308  0  3.940988  0
C  C45  1  0.24996958  0.90637488  0.34441005  1  0  0.061512  0  3.723827  0  0  0.069108  0  3.956574  0  0  0.068496  0  3.97984  0  0  0.00708  0.069143  0  3.941312  0
C  C46  1  0.75001646  0.97039996  0.69137104  1  0  0.069396  0  3.719872  0  0  0.078041  0  3.950537  0  0  0.079337  0  3.973542  0  0  0.006593  0.076936  0  3.935463  0
C  C47  1  0.24999289  0.02959556  0.30862559  1  0  0.06953  0  3.71987  0  0  0.078158  0  3.9505  0  0  0.079452  0  3.973513  0  0  0.006698  0.077046  0  3.93544  0
C  C48  1  0.75000984  0.05337386  0.01562750  1  0  0.709443  0  3.858688  0  0  0.660845  0  4.154322  0  0  0.694896  0  4.145464  0  0  0.230644  0.637784  0  4.15968  0
C  C49  1  0.25002331  0.94661422  0.98437507  1  0  0.709567  0  3.858727  0  0  0.660822  0  4.154574  0  0  0.694874  0  4.145707  0  0  0.230494  0.637748  0  4.159953  0
C  C50  1  0.75001116  0.01751844  0.33408231  1  0  0.70042  0  3.789469  0  0  0.653093  0  4.082767  0  0  0.687189  0  4.074041  0  0  0.247609  0.629986  0  4.08839  0
C  C51  1  0.24994612  0.98246490  0.66591720  1  0  0.700325  0  3.789256  0  0  0.653055  0  4.082541  0  0  0.687155  0  4.073806  0  0  0.247686  0.629961  0  4.088153  0
S  S52  1  0.75002686  0.35784211  0.70920569  1  0  1.322535  0  5.572716  0  0  1.20976  0  6.095826  0  0  1.25709  0  6.074612  0  0  0.534701  1.17709  0  6.110073  0
S  S53  1  0.24996166  0.64216389  0.29080054  1  0  1.322597  0  5.572643  0  0  1.209918  0  6.095663  0  0  1.257259  0  6.074442  0  0  0.534742  1.177245  0  6.109918  0
S  S54  1  0.74999945  0.70937278  0.64372435  1  0  1.420413  0  5.540956  0  0  1.324447  0  6.051514  0  0  1.373688  0  6.025777  0  0  0.55505  1.290189  0  6.069158  0
S  S55  1  0.25000989  0.29062273  0.35627143  1  0  1.420364  0  5.540731  0  0  1.324434  0  6.051263  0  0  1.373657  0  6.025531  0  0  0.554989  1.290175  0  6.068879  0
O  O56  1  0.75000170  0.15785734  0.08162281  1  0  -0.794501  0  2.101974  0  0  -0.754212  0  2.368049  0  0  -0.779307  0  2.35526  0  0  -0.43714  -0.736462  0  2.376284  0
O  O57  1  0.25005971  0.84212328  0.91838400  1  0  -0.794596  0  2.101961  0  0  -0.754238  0  2.368051  0  0  -0.779356  0  2.355295  0  0  -0.437086  -0.736482  0  2.376294  0
O  O58  1  0.75002448  0.94525974  0.04812578  1  0  -0.60671  0  1.93126  0  0  -0.555675  0  2.144754  0  0  -0.580667  0  2.135853  0  0  -0.306879  -0.538417  0  2.150593  0
O  O59  1  0.24998041  0.05472532  0.95186293  1  0  -0.606768  0  1.931421  0  0  -0.555658  0  2.144953  0  0  -0.580652  0  2.136052  0  0  -0.306829  -0.5384  0  2.150802  0
O  O60  1  0.75002969  0.12662558  0.30924981  1  0  -0.706274  0  2.154657  0  0  -0.673957  0  2.41702  0  0  -0.696564  0  2.408158  0  0  -0.369437  -0.658485  0  2.422889  0
O  O61  1  0.24989784  0.87335675  0.69074451  1  0  -0.706402  0  2.154932  0  0  -0.674052  0  2.417198  0  0  -0.69669  0  2.408408  0  0  -0.369609  -0.658587  0  2.423075  0
O  O62  1  0.74999886  0.91584997  0.25838111  1  0  -0.527423  0  2.062376  0  0  -0.475062  0  2.274402  0  0  -0.498441  0  2.262336  0  0  -0.310169  -0.458879  0  2.282385  0
O  O63  1  0.24996735  0.08413161  0.74162665  1  0  -0.527419  0  2.062386  0  0  -0.475127  0  2.274423  0  0  -0.498517  0  2.26237  0  0  -0.310178  -0.458945  0  2.282408  0
O  O64  1  0.75003903  0.44117467  0.81926070  1  0  -0.681613  0  2.004154  0  0  -0.614722  0  2.241807  0  0  -0.635517  0  2.225695  0  0  -0.320281  -0.600215  0  2.252671  0
O  O65  1  0.24993313  0.55882759  0.18074681  1  0  -0.681576  0  2.004197  0  0  -0.614794  0  2.241921  0  0  -0.635587  0  2.225796  0  0  -0.320237  -0.600285  0  2.252787  0
O  O66  1  0.56873004  0.37025650  0.64187542  1  0  -0.661287  0  2.011474  0  0  -0.600501  0  2.259377  0  0  -0.623007  0  2.245893  0  0  -0.318434  -0.58484  0  2.26854  0
O  O67  1  0.06867182  0.62979172  0.35815004  1  0  -0.661117  0  2.01116  0  0  -0.600366  0  2.259089  0  0  -0.622816  0  2.245476  0  0  -0.31844  -0.584748  0  2.26827  0
O  O68  1  0.43127187  0.62977003  0.35811956  1  0  -0.661311  0  2.011386  0  0  -0.600576  0  2.259262  0  0  -0.622988  0  2.245631  0  0  -0.318476  -0.584896  0  2.268409  0
O  O69  1  0.93132265  0.37022099  0.64186454  1  0  -0.661123  0  2.011273  0  0  -0.600258  0  2.259133  0  0  -0.622645  0  2.245481  0  0  -0.318361  -0.584626  0  2.268331  0
O  O70  1  0.92838059  0.70218659  0.71560552  1  0  -0.810074  0  2.110259  0  0  -0.767748  0  2.398293  0  0  -0.79014  0  2.381248  0  0  -0.426604  -0.75177  0  2.409821  0
O  O71  1  0.42839349  0.29778390  0.28438223  1  0  -0.810138  0  2.110533  0  0  -0.767818  0  2.398539  0  0  -0.790211  0  2.381499  0  0  -0.426523  -0.751788  0  2.409943  0
O  O72  1  0.07162578  0.29783528  0.28439317  1  0  -0.810209  0  2.110156  0  0  -0.767901  0  2.398224  0  0  -0.790278  0  2.381161  0  0  -0.426652  -0.751906  0  2.409712  0
O  O73  1  0.57162180  0.70220307  0.71560838  1  0  -0.810193  0  2.110473  0  0  -0.767864  0  2.398491  0  0  -0.790252  0  2.381444  0  0  -0.426585  -0.751861  0  2.409963  0
O  O74  1  0.75000242  0.62058033  0.54048453  1  0  -0.614476  0  1.955094  0  0  -0.559178  0  2.195091  0  0  -0.579755  0  2.182084  0  0  -0.305906  -0.544977  0  2.203812  0
O  O75  1  0.25001883  0.37941522  0.45951379  1  0  -0.614322  0  1.954905  0  0  -0.559049  0  2.194916  0  0  -0.579617  0  2.181894  0  0  -0.305863  -0.544866  0  2.203631  0
O  O76  1  0.03146729  0.61738388  0.91681113  1  0  -0.867375  0  1.856962  0  0  -0.833072  0  2.042106  0  0  -0.850004  0  2.014982  0  0  -0.6126  -0.820944  0  2.061078  0
O  O77  1  0.53144545  0.38263361  0.08319915  1  0  -0.867415  0  1.857076  0  0  -0.833142  0  2.042163  0  0  -0.850057  0  2.015044  0  0  -0.612581  -0.821009  0  2.061159  0
O  O78  1  0.96854503  0.38261164  0.08318550  1  0  -0.86738  0  1.856884  0  0  -0.832953  0  2.042102  0  0  -0.849901  0  2.014945  0  0  -0.612584  -0.820822  0  2.061095  0
O  O79  1  0.46855199  0.61737529  0.91681248  1  0  -0.867281  0  1.85721  0  0  -0.832864  0  2.042469  0  0  -0.84982  0  2.015308  0  0  -0.612534  -0.820736  0  2.061454  0
O  O80  1  0.24998879  0.46931268  0.75198502  1  0  -0.926628  0  1.82514  0  0  -0.88754  0  2.00641  0  0  -0.906693  0  1.974755  0  0  -0.668176  -0.874071  0  2.028599  0
O  O81  1  0.75002056  0.53069420  0.24801709  1  0  -0.926559  0  1.825204  0  0  -0.887487  0  2.006429  0  0  -0.906651  0  1.974776  0  0  -0.668189  -0.874015  0  2.028602  0
O  O82  1  0.24998887  0.62544904  0.57548788  1  0  -0.932516  0  1.942348  0  0  -0.898966  0  2.166902  0  0  -0.915424  0  2.134782  0  0  -0.645371  -0.886948  0  2.18766  0
O  O83  1  0.74999518  0.37455027  0.42451085  1  0  -0.932505  0  1.942294  0  0  -0.898951  0  2.166952  0  0  -0.915403  0  2.134823  0  0  -0.645417  -0.886922  0  2.187671  0
