# generated using pymatgen
data_VH16C26S2N2O3
_symmetry_space_group_name_H-M   'P 1'
_cell_length_a   4.07810201
_cell_length_b   14.79117941
_cell_length_c   17.06372930
_cell_angle_alpha   83.54222308
_cell_angle_beta   83.14513580
_cell_angle_gamma   82.06271599
_symmetry_Int_Tables_number   1
_chemical_formula_structural   VH16C26S2N2O3
_chemical_formula_sum   'V2 H32 C52 S4 N4 O6'
_cell_volume   1007.30144347
_cell_formula_units_Z   2
loop_
 _symmetry_equiv_pos_site_id
 _symmetry_equiv_pos_as_xyz
  1  'x, y, z'
loop_
 _atom_site_type_symbol
 _atom_site_label
 _atom_site_symmetry_multiplicity
 _atom_site_fract_x
 _atom_site_fract_y
 _atom_site_fract_z
 _atom_site_occupancy
 _atom_site_hle17_ddec_charge
 _atom_site_hle17_ddec_spin_density
 _atom_site_hle17_ddec_sum_bond_order
 _atom_site_hle17_magmom
 _atom_site_hse06_10hf_ddec_charge
 _atom_site_hse06_10hf_ddec_spin_density
 _atom_site_hse06_10hf_ddec_sum_bond_order
 _atom_site_hse06_10hf_magmom
 _atom_site_hse06_ddec_charge
 _atom_site_hse06_ddec_spin_density
 _atom_site_hse06_ddec_sum_bond_order
 _atom_site_hse06_magmom
 _atom_site_pbe_cm5_charge
 _atom_site_pbe_ddec_charge
 _atom_site_pbe_ddec_spin_density
 _atom_site_pbe_ddec_sum_bond_order
 _atom_site_pbe_magmom
V  V0  1  0.21449239  0.25001425  0.75003787  1  1.656445  1.286821  2.636004  1.229  1.674295  1.051446  3.031348  1.007  1.768974  1.096422  2.991152  1.053  1.370842  1.608771  1.01198  3.063209  0.967
V  V1  1  0.78549522  0.74998431  0.24995793  1  1.656368  -1.28689  2.635964  -1.229  1.674209  -1.051467  3.031332  -1.007  1.768911  -1.09645  2.991112  -1.053  1.370785  1.60865  -1.011995  3.063253  -0.967
H  H2  1  0.55764102  0.45917028  0.56258492  1  0.10305  0.000141  0.963888  0.0  0.115066  0.000127  1.02525  0.0  0.118012  8.2e-05  1.024471  0.0  0.102023  0.112951  0.000176  1.026059  0.0
H  H3  1  0.58008576  0.04114218  0.93749722  1  0.103961  0.00014  0.963201  0.0  0.116494  0.000126  1.023832  0.0  0.119447  8.2e-05  1.023038  0.0  0.103277  0.114378  0.000173  1.024644  0.0
H  H4  1  0.44233842  0.54083514  0.43742040  1  0.103108  -0.000142  0.963841  0.0  0.115068  -0.000127  1.025276  0.0  0.118015  -8.2e-05  1.02449  0.0  0.102016  0.112952  -0.000176  1.026086  0.0
H  H5  1  0.41990530  0.95885912  0.06249607  1  0.103929  -0.000139  0.963266  0.0  0.116473  -0.000126  1.02389  0.0  0.119426  -8.2e-05  1.023099  0.0  0.103285  0.11436  -0.000173  1.024696  0.0
H  H6  1  0.93998404  0.44270338  0.43861024  1  0.083413  -0.000162  0.962948  0.0  0.0949  -7.7e-05  1.026033  0.0  0.097105  -6.3e-05  1.024722  0.0  0.099512  0.093318  -9.3e-05  1.026926  0.0
H  H7  1  0.82168069  0.05761230  0.06154401  1  0.083228  -0.00016  0.962109  0.0  0.09458  -7.7e-05  1.02535  0.0  0.096843  -6.3e-05  1.023991  0.0  0.099848  0.092944  -9e-05  1.026307  0.0
H  H8  1  0.05999155  0.55730752  0.56139097  1  0.083383  0.000162  0.963028  0.0  0.094842  7.8e-05  1.026142  0.0  0.09704  6.2e-05  1.024832  0.0  0.099498  0.09326  9.3e-05  1.027053  0.0
H  H9  1  0.17827662  0.94238214  0.93845724  1  0.083297  0.00016  0.962078  0.0  0.094603  7.7e-05  1.02539  0.0  0.096848  6.2e-05  1.024051  0.0  0.099852  0.092976  9e-05  1.026317  0.0
H  H10  1  0.15327375  0.28655754  0.39742359  1  0.080847  2e-05  0.982537  0.0  0.091335  2.7e-05  1.047612  0.0  0.093825  1.7e-05  1.047821  0.0  0.091395  0.089604  4.2e-05  1.047555  0.0
H  H11  1  0.83630314  0.21380829  0.10282452  1  0.081753  1.8e-05  0.982272  0.0  0.092304  2.6e-05  1.047318  0.0  0.09472  1.6e-05  1.047626  0.0  0.091802  0.090591  4.1e-05  1.047244  0.0
H  H12  1  0.84670776  0.71345199  0.60257487  1  0.080862  -2e-05  0.982342  0.0  0.091347  -2.7e-05  1.047451  0.0  0.093837  -1.6e-05  1.047659  0.0  0.091411  0.089617  -4.2e-05  1.04739  0.0
H  H13  1  0.16364950  0.78618752  0.89718072  1  0.081784  -1.8e-05  0.982226  0.0  0.092265  -2.6e-05  1.04735  0.0  0.094678  -1.6e-05  1.047662  0.0  0.091783  0.090561  -4.1e-05  1.047269  0.0
H  H14  1  0.98733468  0.14977673  0.48111517  1  0.074053  3.9e-05  0.983955  0.0  0.083324  6.2e-05  1.055824  0.0  0.085927  4.9e-05  1.053359  0.0  0.085233  0.081395  7.6e-05  1.057728  0.0
H  H15  1  0.61805380  0.35052251  0.01893723  1  0.073659  4.1e-05  0.984331  0.0  0.082236  6.6e-05  1.057001  0.0  0.084926  5e-05  1.054443  0.0  0.084767  0.080304  8.3e-05  1.058895  0.0
H  H16  1  0.01265280  0.85023006  0.51888125  1  0.074047  -3.8e-05  0.984043  0.0  0.083327  -6.2e-05  1.055906  0.0  0.085922  -4.9e-05  1.053451  0.0  0.085248  0.081401  -7.6e-05  1.057802  0.0
H  H17  1  0.38191849  0.64947193  0.98106385  1  0.073634  -4.1e-05  0.984385  0.0  0.082238  -6.5e-05  1.057019  0.0  0.084952  -5.1e-05  1.054434  0.0  0.084795  0.080309  -8.3e-05  1.058906  0.0
H  H18  1  0.94332295  0.07326145  0.80890112  1  0.126751  0.000279  0.962208  0.0  0.13386  0.000391  1.027166  0.0  0.138323  0.000279  1.023365  0.0  0.113554  0.130621  0.000508  1.029935  0.0
H  H19  1  0.82522480  0.42668347  0.69101142  1  0.126181  0.000293  0.962881  0.0  0.133068  0.000408  1.028256  0.0  0.137518  0.000293  1.024543  0.0  0.112804  0.129728  0.000529  1.031137  0.0
H  H20  1  0.05666920  0.92673642  0.19109546  1  0.126663  -0.00028  0.962339  0.0  0.133771  -0.000391  1.027304  0.0  0.13823  -0.000279  1.023503  0.0  0.113493  0.130535  -0.000508  1.030067  0.0
H  H21  1  0.17480068  0.57331920  0.30898878  1  0.126164  -0.000292  0.962898  0.0  0.133085  -0.000408  1.02828  0.0  0.137531  -0.000293  1.024572  0.0  0.112817  0.129807  -0.000528  1.031082  0.0
H  H22  1  0.82264992  0.91141472  0.82961175  1  0.086838  -4.5e-05  0.951309  0.0  0.101893  -2.9e-05  1.007018  0.0  0.103872  -2.6e-05  1.007318  0.0  0.100247  0.100424  -3.3e-05  1.006924  0.0
H  H23  1  0.56344005  0.58853138  0.67004392  1  0.087662  -4.5e-05  0.950813  0.0  0.102038  -2.7e-05  1.007243  0.0  0.104061  -2.6e-05  1.007518  0.0  0.100347  0.100551  -3.1e-05  1.007178  0.0
H  H24  1  0.17733124  0.08858179  0.17037919  1  0.086801  4.5e-05  0.95136  0.0  0.101841  2.9e-05  1.007092  0.0  0.103818  2.6e-05  1.007394  0.0  0.10024  0.100349  3.3e-05  1.007031  0.0
H  H25  1  0.43657902  0.41147335  0.32995414  1  0.087721  4.4e-05  0.950863  0.0  0.102113  2.7e-05  1.00724  0.0  0.104123  2.6e-05  1.007553  0.0  0.100387  0.100628  3.1e-05  1.007173  0.0
H  H26  1  0.09155179  0.79811687  0.73708385  1  0.081667  3.1e-05  0.966392  0.0  0.095007  1e-06  1.026494  0.0  0.097309  1e-06  1.026035  0.0  0.096417  0.093346  1e-06  1.026907  0.0
H  H27  1  0.62591865  0.70195336  0.76251258  1  0.08209  3.4e-05  0.965235  0.0  0.095266  6e-06  1.025448  0.0  0.097586  4e-06  1.024949  0.0  0.096633  0.093599  8e-06  1.025884  0.0
H  H28  1  0.90847546  0.20187758  0.26291156  1  0.081686  -3.3e-05  0.966461  0.0  0.094984  -1e-06  1.026624  0.0  0.097277  -1e-06  1.026161  0.0  0.096392  0.093321  -1e-06  1.027028  0.0
H  H29  1  0.37409425  0.29804932  0.23748787  1  0.082171  -3.4e-05  0.965116  0.0  0.095322  -6e-06  1.025354  0.0  0.097644  -4e-06  1.024851  0.0  0.09664  0.093656  -8e-06  1.025789  0.0
H  H30  1  0.47485160  0.84587495  0.61967002  1  0.098482  -4e-05  0.961684  0.0  0.11116  1.3e-05  1.022184  0.0  0.113487  5e-06  1.021747  0.0  0.099887  0.109482  2.3e-05  1.022555  0.0
H  H31  1  0.93963228  0.65444123  0.87993280  1  0.099028  -3.7e-05  0.961241  0.0  0.111608  1.7e-05  1.021818  0.0  0.113941  8e-06  1.021357  0.0  0.099386  0.109929  2.8e-05  1.022198  0.0
H  H32  1  0.52518273  0.15411743  0.38032935  1  0.098438  3.9e-05  0.961761  0.0  0.111109  -1.3e-05  1.022255  0.0  0.113436  -5e-06  1.021818  0.0  0.099863  0.10943  -2.3e-05  1.022628  0.0
H  H33  1  0.06035927  0.34556213  0.12006639  1  0.099045  3.7e-05  0.961089  0.0  0.11164  -1.7e-05  1.021666  0.0  0.113971  -8e-06  1.021208  0.0  0.099411  0.109961  -2.8e-05  1.022046  0.0
C  C34  1  0.54919654  0.31474526  0.59283698  1  0.384416  0.005729  3.800685  0.006  0.377857  0.004062  4.051463  0.005  0.399665  0.003426  4.06083  0.004  0.103181  0.363135  0.00469  4.044629  0.005
C  C35  1  0.45650563  0.18550112  0.90731058  1  0.382004  0.005635  3.803275  0.006  0.375791  0.004004  4.053928  0.005  0.39748  0.003364  4.063507  0.004  0.103361  0.361112  0.004636  4.047011  0.005
C  C36  1  0.45079910  0.68525878  0.40716770  1  0.384256  -0.005729  3.800825  -0.006  0.377721  -0.004061  4.05152  -0.005  0.399545  -0.003423  4.060893  -0.004  0.103062  0.363  -0.004686  4.044681  -0.005
C  C37  1  0.54347752  0.81450087  0.09268786  1  0.381994  -0.005636  3.803273  -0.006  0.375822  -0.004008  4.053889  -0.005  0.397499  -0.003361  4.063482  -0.004  0.103354  0.36114  -0.004638  4.046967  -0.005
C  C38  1  0.65289491  0.39164695  0.54381235  1  -0.18971  -0.004089  3.697208  -0.003  -0.207094  2e-06  3.943644  0.0  -0.215698  -0.00047  3.961167  0.0  -0.102314  -0.20178  0.00078  3.932134  0.0
C  C39  1  0.58884860  0.10865776  0.95629908  1  -0.190767  -0.003981  3.698458  -0.003  -0.2087  9.7e-05  3.945112  0.0  -0.21727  -0.000392  3.962684  0.0  -0.104136  -0.203389  0.000896  3.933556  0.0
C  C40  1  0.34710095  0.60835641  0.45618998  1  -0.189787  0.004087  3.69735  0.003  -0.20715  -4e-06  3.943758  0.0  -0.215748  0.00047  3.961269  0.0  -0.102365  -0.201837  -0.000781  3.932254  0.0
C  C41  1  0.41113865  0.89134011  0.04369494  1  -0.190714  0.00398  3.698971  0.003  -0.208651  -9.6e-05  3.945585  0.0  -0.21722  0.000393  3.963163  0.0  -0.104106  -0.203336  -0.000895  3.934022  0.0
C  C42  1  0.86488913  0.38194578  0.47485475  1  -0.032478  0.002079  3.791409  0.001  -0.04956  0.00026  4.04542  0.0  -0.045078  0.00033  4.06445  0.0  -0.089214  -0.052112  0.000442  4.032343  0.0
C  C43  1  0.72207676  0.11837531  0.02528858  1  -0.031622  0.002001  3.789635  0.001  -0.048657  0.000213  4.043887  0.0  -0.044229  0.000285  4.062897  0.0  -0.089257  -0.051156  0.000375  4.030805  0.0
C  C44  1  0.13509222  0.61806306  0.52514677  1  -0.032525  -0.002075  3.791475  -0.001  -0.04959  -0.000258  4.045473  0.0  -0.045101  -0.000328  4.064499  0.0  -0.089197  -0.052155  -0.000441  4.032405  0.0
C  C45  1  0.27789343  0.88162119  0.97471350  1  -0.031847  -0.002001  3.789997  -0.001  -0.04887  -0.000214  4.044294  0.0  -0.044426  -0.000285  4.063302  0.0  -0.089344  -0.051364  -0.000376  4.03122  0.0
C  C46  1  0.98533343  0.29425938  0.45148061  1  -0.116184  -0.001056  3.820474  -0.001  -0.13292  0.001405  4.079436  0.001  -0.140774  0.000977  4.104089  0.001  -0.112549  -0.127862  0.001981  4.062668  0.001
C  C47  1  0.73095020  0.20608602  0.04865137  1  -0.119637  -0.000959  3.821251  -0.001  -0.136451  0.001479  4.079984  0.001  -0.144258  0.001044  4.104659  0.001  -0.11407  -0.131416  0.002068  4.063183  0.001
C  C48  1  0.01465570  0.70574672  0.54851952  1  -0.116086  0.00106  3.819931  0.001  -0.132818  -0.001407  4.078877  -0.001  -0.140675  -0.000978  4.103531  -0.001  -0.112635  -0.127761  -0.001982  4.062101  -0.001
C  C49  1  0.26902915  0.79390980  0.95134680  1  -0.119454  0.000954  3.820803  0.001  -0.136195  -0.00148  4.07953  -0.001  -0.143997  -0.001044  4.104209  -0.001  -0.113992  -0.131166  -0.002068  4.062721  -0.001
C  C50  1  0.89146765  0.21800571  0.49884192  1  -0.07779  0.002004  3.783969  0.001  -0.10105  0.000566  4.03974  0.0  -0.097571  0.000453  4.061366  0.0  -0.098804  -0.102939  0.001093  4.024854  0.001
C  C51  1  0.60833185  0.28229652  0.00120596  1  -0.074616  0.001933  3.783018  0.001  -0.097137  0.00052  4.038438  0.0  -0.093691  0.000409  4.059982  0.0  -0.096711  -0.099062  0.00103  4.023645  0.001
C  C52  1  0.10852838  0.78200108  0.50115835  1  -0.077925  -0.002014  3.783859  -0.001  -0.101241  -0.000564  4.039619  0.0  -0.09774  -0.000453  4.061263  0.0  -0.098796  -0.103139  -0.001092  4.024758  -0.001
C  C53  1  0.39165227  0.71769723  0.99879852  1  -0.074807  -0.001928  3.783109  -0.001  -0.097359  -0.000522  4.038546  0.0  -0.093931  -0.000407  4.060073  0.0  -0.096736  -0.099286  -0.001031  4.023759  -0.001
C  C54  1  0.67442170  0.22547504  0.56950974  1  -0.129918  -0.001226  3.784839  -0.001  -0.119129  0.001111  4.024465  0.001  -0.133072  0.000795  4.049105  0.001  -0.031238  -0.110012  0.001212  4.007873  0.001
C  C55  1  0.46936093  0.27481391  0.93053539  1  -0.12987  -0.001138  3.784778  -0.001  -0.119179  0.001191  4.024992  0.001  -0.133188  0.000859  4.049857  0.001  -0.033309  -0.110016  0.001308  4.008223  0.001
C  C56  1  0.32556905  0.77452901  0.43049238  1  -0.129756  0.001234  3.784796  0.001  -0.118881  -0.001111  4.024244  -0.001  -0.132871  -0.000794  4.048957  -0.001  -0.031168  -0.109764  -0.001213  4.007647  -0.001
C  C57  1  0.53062859  0.72518464  0.06946348  1  -0.129791  0.001137  3.7849  0.001  -0.119143  -0.001188  4.025149  -0.001  -0.133148  -0.000862  4.050034  -0.001  -0.033357  -0.109977  -0.001308  4.008371  -0.001
C  C58  1  0.56289343  0.14410353  0.61300720  1  0.222788  0.005585  3.712521  0.006  0.211707  0.00323  3.991308  0.004  0.231936  0.003008  4.001328  0.003  0.139438  0.19819  0.004523  3.984195  0.005
C  C59  1  0.31965228  0.35616436  0.88699464  1  0.222571  0.00549  3.712131  0.006  0.210741  0.003145  3.99234  0.004  0.231009  0.002941  4.002385  0.003  0.139093  0.197238  0.004369  3.985235  0.004
C  C60  1  0.43713154  0.85589503  0.38699328  1  0.222885  -0.005593  3.712477  -0.006  0.211807  -0.00323  3.991131  -0.004  0.232042  -0.003006  4.001186  -0.003  0.139521  0.198282  -0.004521  3.984026  -0.005
C  C61  1  0.68034805  0.64383557  0.11300504  1  0.222575  -0.005489  3.712115  -0.006  0.210774  -0.003149  3.992312  -0.004  0.231042  -0.002943  4.002343  -0.003  0.139133  0.197272  -0.004375  3.985206  -0.004
C  C62  1  0.42621572  0.98605554  0.65010905  1  -0.047272  -0.001924  3.820019  -0.001  -0.029985  -0.000395  4.06902  0.0  -0.031797  -0.000592  4.092902  0.0  -0.015384  -0.028847  -0.000339  4.052891  0.0
C  C63  1  0.06180382  0.51413158  0.84974685  1  -0.048961  -0.001909  3.821451  -0.001  -0.030606  -0.000384  4.068652  0.0  -0.032411  -0.00058  4.092556  0.0  -0.014858  -0.029489  -0.000333  4.052544  0.0
C  C64  1  0.57382261  0.01393753  0.34989341  1  -0.046918  0.001933  3.81973  0.001  -0.029851  0.000395  4.069019  0.0  -0.031672  0.000592  4.092923  0.0  -0.015313  -0.028713  0.000339  4.052895  0.0
C  C65  1  0.93819059  0.48586697  0.15025457  1  -0.04904  0.001905  3.821489  0.001  -0.03055  0.000385  4.068541  0.0  -0.032353  0.00058  4.092442  0.0  -0.014877  -0.029432  0.000333  4.052417  0.0
C  C66  1  0.28108799  0.05079907  0.70331751  1  0.197834  0.003086  3.800389  0.003  0.197071  0.002427  4.047485  0.003  0.202886  0.002149  4.068911  0.002  0.092319  0.19321  0.002766  4.032951  0.003
C  C67  1  0.03451137  0.44929380  0.79663466  1  0.199651  0.003073  3.800565  0.003  0.199285  0.002413  4.04685  0.003  0.205046  0.002141  4.068412  0.002  0.093609  0.195465  0.002747  4.032258  0.003
C  C68  1  0.71893841  0.94919674  0.29668802  1  0.197774  -0.003094  3.800304  -0.003  0.197056  -0.002426  4.047447  -0.003  0.202879  -0.00215  4.068871  -0.002  0.092287  0.193194  -0.002766  4.032909  -0.003
C  C69  1  0.96549583  0.55070956  0.20336618  1  0.199538  -0.00307  3.800614  -0.003  0.199162  -0.002416  4.046915  -0.003  0.204923  -0.002142  4.06847  -0.002  0.093663  0.19535  -0.002749  4.032312  -0.003
C  C70  1  0.06276810  0.02350751  0.76884630  1  -0.117612  -0.001752  3.662605  -0.002  -0.141937  -7e-05  3.91815  0.0  -0.142945  -0.000228  3.933391  0.0  -0.082101  -0.141332  -9e-05  3.908074  -0.001
C  C71  1  0.85452736  0.47647872  0.73103864  1  -0.11802  -0.001735  3.66382  -0.002  -0.142641  -5e-05  3.919581  0.0  -0.143667  -0.000207  3.934889  0.0  -0.08276  -0.141972  -6.9e-05  3.909577  -0.001
C  C72  1  0.93722527  0.97648625  0.23114880  1  -0.117605  0.001765  3.662515  0.002  -0.14195  6.9e-05  3.918068  0.0  -0.142954  0.000228  3.933305  0.0  -0.082082  -0.141339  9e-05  3.907974  0.001
C  C73  1  0.14549755  0.52352395  0.26896215  1  -0.117849  0.001728  3.663874  0.002  -0.142581  5.1e-05  3.919732  0.0  -0.143598  0.000209  3.935033  0.0  -0.082774  -0.141962  6.9e-05  3.909693  0.001
C  C74  1  0.99910151  0.93267584  0.78005022  1  -0.061387  0.00121  3.767153  0.001  -0.075887  0.000444  4.018507  0.0  -0.077633  0.000438  4.040649  0.0  -0.091499  -0.074615  0.000588  4.00352  0.001
C  C75  1  0.71121748  0.56733298  0.71971365  1  -0.062949  0.001195  3.772247  0.001  -0.07694  0.000419  4.02391  0.0  -0.078769  0.000417  4.046067  0.0  -0.091739  -0.075629  0.000553  4.008913  0.0
C  C76  1  0.00091863  0.06731860  0.21994740  1  -0.061285  -0.001219  3.767144  -0.001  -0.075734  -0.000443  4.018462  0.0  -0.07748  -0.000437  4.040602  0.0  -0.091456  -0.074446  -0.000588  4.003483  -0.001
C  C77  1  0.28881300  0.43267450  0.28028636  1  -0.063041  -0.001186  3.772336  -0.001  -0.077028  -0.00042  4.024029  0.0  -0.078857  -0.000419  4.046172  0.0  -0.091814  -0.075723  -0.000554  4.009057  0.0
C  C78  1  0.14909514  0.86863248  0.72750538  1  -0.082302  -0.001641  3.787884  -0.001  -0.096402  -0.000358  4.040444  0.0  -0.098822  -0.000452  4.06293  0.0  -0.100112  -0.094701  -0.00049  4.025062  0.0
C  C79  1  0.74440632  0.63143635  0.77220603  1  -0.082126  -0.001635  3.791752  -0.001  -0.095925  -0.000351  4.043988  0.0  -0.098341  -0.000445  4.066501  0.0  -0.10008  -0.09423  -0.000477  4.028587  0.0
C  C80  1  0.85092971  0.13136196  0.27248997  1  -0.082444  0.001652  3.788006  0.001  -0.096555  0.000358  4.040589  0.0  -0.098958  0.000453  4.063059  0.0  -0.100194  -0.094845  0.00049  4.025192  0.0
C  C81  1  0.25560698  0.36856564  0.22779689  1  -0.082197  0.001625  3.791434  0.001  -0.095964  0.000352  4.043674  0.0  -0.098376  0.000445  4.066179  0.0  -0.100015  -0.09427  0.000478  4.028275  0.0
C  C82  1  0.36400407  0.89472000  0.66162466  1  -0.116262  0.001018  3.791046  0.001  -0.137784  0.000325  4.044734  0.0  -0.14001  0.000368  4.066555  0.0  -0.102581  -0.136097  0.000408  4.029808  0.0
C  C83  1  0.91949048  0.60545457  0.83812429  1  -0.116082  0.001027  3.792796  0.001  -0.137862  0.000336  4.045984  0.0  -0.140086  0.000375  4.067794  0.0  -0.102328  -0.136178  0.000426  4.031068  0.0
C  C84  1  0.63602269  0.10527444  0.33837375  1  -0.116225  -0.001028  3.790827  -0.001  -0.137637  -0.000325  4.044547  0.0  -0.139865  -0.000369  4.06637  0.0  -0.102432  -0.135951  -0.000408  4.029625  0.0
C  C85  1  0.08052130  0.39454947  0.16187904  1  -0.116118  -0.001018  3.792671  -0.001  -0.13796  -0.000337  4.045854  0.0  -0.140184  -0.000375  4.067664  0.0  -0.102399  -0.136277  -0.000426  4.030937  0.0
S  S86  1  0.66380727  0.03922740  0.57251532  1  0.053014  -0.001613  2.631618  -0.001  0.050116  -0.000333  2.980001  0.0  0.046709  -0.000499  2.984446  0.0  0.089602  0.052111  0.000195  2.977355  0.0
S  S87  1  0.27541362  0.46111198  0.92734124  1  0.053342  -0.001622  2.63329  -0.001  0.050544  -0.000358  2.981063  0.0  0.047107  -0.000513  2.985554  0.0  0.090094  0.052544  0.000146  2.978401  0.0
S  S88  1  0.33623277  0.96077116  0.42748740  1  0.05293  0.001613  2.631452  0.001  0.050051  0.000334  2.979971  0.0  0.046658  0.000498  2.984416  0.0  0.089551  0.052053  -0.000194  2.977326  0.0
S  S89  1  0.72459488  0.53889000  0.07266154  1  0.053416  0.00162  2.633395  0.001  0.050548  0.000356  2.981131  0.0  0.047116  0.000511  2.985623  0.0  0.090055  0.05254  -0.000148  2.97847  0.0
N  N90  1  0.36766521  0.13870477  0.68128848  1  -0.445127  -0.011115  3.235354  -0.024  -0.413752  0.000197  3.519372  -0.013  -0.437168  -0.001107  3.535412  -0.014  -0.390418  -0.398098  0.001127  3.508841  -0.013
N  N91  1  0.18700641  0.36141333  0.81875682  1  -0.44532  -0.011021  3.231695  -0.024  -0.414293  0.00025  3.516372  -0.013  -0.437579  -0.001046  3.532104  -0.014  -0.390412  -0.398585  0.001174  3.505678  -0.013
N  N92  1  0.63234687  0.86129173  0.31871117  1  -0.445201  0.01112  3.235469  0.024  -0.413822  -0.000195  3.519495  0.013  -0.437255  0.00111  3.535557  0.014  -0.390438  -0.398153  -0.001124  3.508961  0.013
N  N93  1  0.81299416  0.63859003  0.18124322  1  -0.445291  0.011019  3.231845  0.024  -0.414237  -0.00025  3.516412  0.013  -0.437553  0.001046  3.532209  0.014  -0.390444  -0.398519  -0.001175  3.505697  0.013
O  O94  1  0.81550090  0.24978758  0.75002280  1  -0.75071  -0.21953  1.520625  -0.219  -0.787089  -0.092216  1.841797  -0.095  -0.833565  -0.113979  1.842923  -0.119  -0.590218  -0.754757  -0.077712  1.841422  -0.08
O  O95  1  0.18450243  0.75020686  0.24997434  1  -0.75074  0.219581  1.520723  0.219  -0.78705  0.092232  1.841708  0.095  -0.833525  0.114  1.842826  0.119  -0.590184  -0.754707  0.077725  1.841353  0.08
O  O96  1  0.34062392  0.32963921  0.65619561  1  -0.629719  0.004798  2.143302  -0.009  -0.600682  0.024578  2.415125  0.01  -0.635448  0.020729  2.414028  0.007  -0.386488  -0.575705  0.028086  2.415051  0.012
O  O97  1  0.32569989  0.17052772  0.84403147  1  -0.628266  0.005009  2.144428  -0.009  -0.599825  0.024843  2.41691  0.01  -0.634577  0.02096  2.415944  0.007  -0.386073  -0.574905  0.028394  2.416924  0.013
O  O98  1  0.65936786  0.67036278  0.34380910  1  -0.629654  -0.004789  2.143343  0.009  -0.600651  -0.024573  2.415144  -0.01  -0.635424  -0.020726  2.414055  -0.007  -0.386391  -0.575673  -0.028082  2.415091  -0.012
O  O99  1  0.67429375  0.82947358  0.15596672  1  -0.628186  -0.005001  2.14438  0.009  -0.599772  -0.024841  2.416815  -0.01  -0.634517  -0.020959  2.415846  -0.007  -0.386049  -0.574866  -0.028392  2.416879  -0.013
