# generated using pymatgen
data_Co5H26(C8O9)2
_symmetry_space_group_name_H-M   'P 1'
_cell_length_a   11.16147352
_cell_length_b   17.38420964
_cell_length_c   17.38778909
_cell_angle_alpha   84.07908078
_cell_angle_beta   71.29297997
_cell_angle_gamma   71.28433747
_symmetry_Int_Tables_number   1
_chemical_formula_structural   Co5H26(C8O9)2
_chemical_formula_sum   'Co20 H104 C64 O72'
_cell_volume   3026.60271909
_cell_formula_units_Z   4
loop_
 _symmetry_equiv_pos_site_id
 _symmetry_equiv_pos_as_xyz
  1  'x, y, z'
loop_
 _atom_site_type_symbol
 _atom_site_label
 _atom_site_symmetry_multiplicity
 _atom_site_fract_x
 _atom_site_fract_y
 _atom_site_fract_z
 _atom_site_occupancy
 _atom_site_pbe_bader_charge
 _atom_site_pbe_bader_spin_density
 _atom_site_pbe_cm5_charge
 _atom_site_pbe_ddec_charge
 _atom_site_pbe_ddec_spin_density
 _atom_site_pbe_ddec_sum_bond_order
 _atom_site_pbe_magmom
Co  Co0  1  0.74560163  0.77319045  0.66384537  1  1.336687  2.660698  0.654361  1.074456  2.853016  2.435334  2.648
Co  Co1  1  0.87667136  0.59009427  0.66364345  1  1.301453  2.611779  0.631593  1.003538  2.79321  2.412442  2.6
Co  Co2  1  0.18275437  0.72681801  0.83624073  1  1.33797  2.660727  0.654556  1.074237  2.853321  2.436471  2.648
Co  Co3  1  0.13047946  0.90996401  0.83631316  1  1.303626  2.611437  0.631928  1.003163  2.791986  2.415005  2.599
Co  Co4  1  0.01903401  0.66390892  0.72673639  1  1.334054  2.661407  0.654268  1.074876  2.852657  2.433995  2.648
Co  Co5  1  0.96677731  0.66379010  0.90990674  1  1.305506  2.611653  0.632123  1.003513  2.794346  2.412871  2.6
Co  Co6  1  0.40941303  0.83618976  0.77330686  1  1.338307  2.660484  0.654461  1.075221  2.852352  2.434609  2.648
Co  Co7  1  0.54021477  0.83631340  0.59011526  1  1.308011  2.611138  0.631609  1.00301  2.793356  2.414165  2.599
Co  Co8  1  0.25442504  0.22683498  0.33614774  1  1.336196  2.6603  0.65415  1.073829  2.852491  2.436066  2.647
Co  Co9  1  0.12336244  0.40988925  0.33633800  1  1.301676  2.611914  0.631894  1.003894  2.793411  2.414057  2.6
Co  Co10  1  0.81723989  0.27320559  0.16379011  1  1.337804  2.660627  0.654721  1.07436  2.853246  2.437427  2.648
Co  Co11  1  0.86950897  0.09007842  0.16369535  1  1.3054  2.611402  0.63216  1.003609  2.792196  2.415943  2.6
Co  Co12  1  0.98105853  0.33607582  0.27324261  1  1.334426  2.661205  0.654507  1.075054  2.852353  2.434549  2.648
Co  Co13  1  0.03323955  0.33617944  0.09014258  1  1.305742  2.611581  0.632196  1.003372  2.794288  2.415104  2.6
Co  Co14  1  0.59057545  0.16385025  0.22668025  1  1.338452  2.660641  0.655048  1.076208  2.852601  2.436563  2.648
Co  Co15  1  0.45981082  0.16374301  0.40981475  1  1.307666  2.610981  0.631382  1.002225  2.793128  2.414979  2.599
Co  Co16  1  0.00000955  0.49998084  0.49998371  1  1.302713  2.579414  0.62589  0.992  2.748002  2.351755  2.569
Co  Co17  1  0.00001203  0.00004386  0.99999523  1  1.304065  2.579438  0.626924  0.993537  2.747797  2.352359  2.569
Co  Co18  1  0.00004619  0.49994858  0.00002549  1  1.299482  2.579769  0.62705  0.994582  2.747878  2.349932  2.569
Co  Co19  1  0.50003310  0.00001312  0.49994178  1  1.302373  2.579909  0.626315  0.992665  2.748002  2.355697  2.569
H  H20  1  0.99223420  0.70458977  0.59017231  1  0.613917  0.003211  0.326438  0.425332  0.002041  0.851272  0.004
H  H21  1  0.60859227  0.61267895  0.91132753  1  0.03595  0.001092  0.099289  0.157912  0.000404  0.991113  0.001
H  H22  1  0.50430731  0.59783490  0.85997114  1  0.101788  9e-06  0.102231  0.169379  -0.000178  1.010398  0.0
H  H23  1  0.68093295  0.55039335  0.82111538  1  0.070844  0.001037  0.090847  0.148394  0.000182  1.042893  0.001
H  H24  1  0.35402402  0.43608078  0.56097068  1  0.06256  -0.000722  0.102589  0.15734  -0.000724  0.98189  0.0
H  H25  1  0.28774332  0.47488827  0.47960978  1  0.078986  0.001269  0.098314  0.15227  0.000181  1.041259  0.001
H  H26  1  0.37143935  0.52951900  0.51577439  1  0.042324  0.001091  0.101175  0.155472  0.000442  0.996779  0.0
H  H27  1  0.69469762  0.70659793  0.42440514  1  0.087698  5.6e-05  0.100885  0.159043  -0.000105  1.020701  0.0
H  H28  1  0.84633112  0.72707802  0.40755680  1  0.080799  0.000161  0.106007  0.166187  -9.9e-05  0.96565  0.0
H  H29  1  0.85039614  0.62450352  0.39915250  1  0.088269  0.000631  0.098427  0.157485  -6e-06  1.030474  0.0
H  H30  1  0.66093355  0.39938716  0.72578309  1  0.039118  0.001217  0.099133  0.152412  0.000461  0.991147  0.0
H  H31  1  0.81945878  0.32862809  0.71795839  1  0.047838  -0.000531  0.096439  0.141715  -0.000616  1.003446  0.0
H  H32  1  0.75151624  0.33630007  0.63681450  1  0.055554  0.001615  0.095836  0.148671  0.000623  0.99695  0.001
H  H33  1  0.28709654  0.79555912  0.90988038  1  0.624074  0.003159  0.326668  0.427126  0.002043  0.849574  0.004
H  H34  1  0.13352700  0.88724414  0.58864645  1  0.034733  0.001103  0.099711  0.158069  0.000409  0.990551  0.001
H  H35  1  0.96297033  0.90230413  0.63985082  1  0.099232  1e-05  0.102021  0.169143  -0.000176  1.010187  0.0
H  H36  1  0.05339397  0.94958885  0.67881065  1  0.064774  0.001044  0.091743  0.148938  0.000179  1.043226  0.001
H  H37  1  0.35111408  0.06402148  0.93922130  1  0.063662  -0.000717  0.10385  0.158382  -0.00072  0.981789  0.0
H  H38  1  0.24238436  0.02507868  0.02052131  1  0.085584  0.001266  0.097982  0.15177  0.000187  1.041375  0.001
H  H39  1  0.41681146  0.97048736  0.98427107  1  0.056137  0.001078  0.100717  0.155189  0.000444  0.99649  0.0
H  H40  1  0.82688872  0.79329727  0.07589658  1  0.081727  3.7e-05  0.101012  0.157903  -0.000119  1.018148  0.0
H  H41  1  0.98241527  0.77281377  0.09235413  1  0.075223  0.000173  0.106459  0.167019  -9.3e-05  0.965335  0.0
H  H42  1  0.87537078  0.87539361  0.10101222  1  0.083195  0.000628  0.098335  0.157336  -8e-06  1.030828  0.0
H  H43  1  0.78593080  0.10050070  0.77424319  1  0.068143  0.001192  0.099433  0.152666  0.000462  0.990062  0.0
H  H44  1  0.86585871  0.17128662  0.78203462  1  0.049053  -0.00052  0.096233  0.141518  -0.000608  1.004263  0.0
H  H45  1  0.72456978  0.16357844  0.86320550  1  0.034571  0.00163  0.096103  0.149216  0.000623  0.995862  0.001
H  H46  1  0.19689138  0.59028366  0.79554556  1  0.617736  0.003221  0.326063  0.42602  0.002039  0.84944  0.004
H  H47  1  0.72249401  0.91165406  0.88677987  1  0.037233  0.001101  0.099197  0.157899  0.000408  0.991131  0.001
H  H48  1  0.60306567  0.86046563  0.90199685  1  0.100933  7e-06  0.102292  0.169207  -0.00018  1.010486  0.0
H  H49  1  0.73248202  0.82151282  0.94924249  1  0.04688  0.001054  0.091949  0.149615  0.000178  1.042622  0.001
H  H50  1  0.28999906  0.56083720  0.06420086  1  0.056712  -0.000718  0.102437  0.157031  -0.000722  0.982425  0.0
H  H51  1  0.26252512  0.47955980  0.02522998  1  0.083752  0.00127  0.098183  0.151824  0.000186  1.041716  0.001
H  H52  1  0.40080365  0.51578634  0.97074793  1  0.06888  0.001058  0.101148  0.155647  0.000441  0.996654  0.0
H  H53  1  0.90179061  0.42430997  0.79353604  1  0.0829  4.4e-05  0.100551  0.158211  -0.000116  1.021646  0.0
H  H54  1  0.07385769  0.40746894  0.77308793  1  0.074355  0.000174  0.105732  0.16633  -9.3e-05  0.966657  0.0
H  H55  1  0.97533408  0.39914787  0.87565979  1  0.082678  0.00063  0.09827  0.156982  -8e-06  1.032576  0.0
H  H56  1  0.56038028  0.72580545  0.10050034  1  0.051605  0.001203  0.098499  0.15249  0.000459  0.989858  0.0
H  H57  1  0.64810392  0.71800266  0.17127135  1  0.026708  -0.000519  0.09654  0.141697  -0.000611  1.002817  0.0
H  H58  1  0.58792309  0.63681605  0.16360418  1  0.054969  0.001624  0.096617  0.150079  0.000624  0.995133  0.001
H  H59  1  0.58261261  0.90977386  0.70443803  1  0.632995  0.00306  0.32556  0.425169  0.002042  0.850598  0.004
H  H60  1  0.52089793  0.58844797  0.61313202  1  0.051024  0.001078  0.099221  0.157264  0.000404  0.990745  0.001
H  H61  1  0.36545340  0.63949400  0.59789357  1  0.108784  -7e-06  0.101305  0.167731  -0.000182  1.011746  0.0
H  H62  1  0.50298622  0.67861367  0.55074720  1  0.069667  0.001044  0.090522  0.14772  0.000183  1.04493  0.001
H  H63  1  0.91516810  0.93899597  0.43599489  1  0.08134  -0.000719  0.103029  0.15737  -0.000722  0.982511  0.0
H  H64  1  0.76756245  0.02035400  0.47486197  1  0.087554  0.001269  0.098771  0.152454  0.000187  1.04056  0.001
H  H65  1  0.88742215  0.98403261  0.52946868  1  0.051469  0.001076  0.101386  0.15654  0.000439  0.996998  0.0
H  H66  1  0.11963898  0.07578509  0.70654796  1  0.078012  5.6e-05  0.100916  0.158469  -0.000109  1.020227  0.0
H  H67  1  0.25454961  0.09259780  0.72691012  1  0.0649  0.000178  0.105499  0.165997  -9.3e-05  0.967149  0.0
H  H68  1  0.25002730  0.10097886  0.62436780  1  0.085854  0.000626  0.097994  0.157076  -8e-06  1.03215  0.0
H  H69  1  0.38676697  0.77428836  0.39920158  1  0.052041  0.001197  0.098897  0.152637  0.000459  0.991199  0.0
H  H70  1  0.53754585  0.78219633  0.32862515  1  0.048527  -0.000526  0.095907  0.141538  -0.000613  1.003057  0.0
H  H71  1  0.38852586  0.86335343  0.33623304  1  0.075336  0.001587  0.096571  0.149734  0.000621  0.996125  0.001
H  H72  1  0.00777483  0.29549092  0.40982781  1  0.614481  0.003214  0.326562  0.425448  0.002045  0.851023  0.004
H  H73  1  0.39113073  0.38735556  0.08875726  1  0.035435  0.001089  0.099373  0.157981  0.000403  0.991064  0.001
H  H74  1  0.49554502  0.40225612  0.13997064  1  0.102983  4e-06  0.102321  0.169589  -0.000181  1.01012  0.0
H  H75  1  0.31894216  0.44966426  0.17892839  1  0.070247  0.001044  0.090629  0.148291  0.000185  1.043196  0.001
H  H76  1  0.64601809  0.56397320  0.43901648  1  0.06343  -0.00072  0.102467  0.157184  -0.000723  0.981753  0.0
H  H77  1  0.71225109  0.52513776  0.52038214  1  0.079389  0.001268  0.098325  0.152204  0.000181  1.041216  0.001
H  H78  1  0.62855540  0.47053922  0.48419278  1  0.044314  0.00109  0.101263  0.15565  0.000442  0.996875  0.0
H  H79  1  0.30524644  0.29340745  0.57561872  1  0.087813  5.7e-05  0.100792  0.158908  -0.000104  1.020314  0.0
H  H80  1  0.15354372  0.27299477  0.59244308  1  0.080384  0.000162  0.105874  0.166047  -9.9e-05  0.965647  0.0
H  H81  1  0.14959923  0.37554438  0.60084548  1  0.088188  0.00063  0.098308  0.157245  -7e-06  1.030418  0.0
H  H82  1  0.33887666  0.60078524  0.27424558  1  0.041704  0.001215  0.099062  0.152349  0.000461  0.991119  0.0
H  H83  1  0.18028065  0.67148355  0.28211041  1  0.047596  -0.000531  0.096579  0.142052  -0.000616  1.002758  0.0
H  H84  1  0.24821741  0.66378911  0.36325707  1  0.057937  0.001612  0.095893  0.148636  0.000623  0.996845  0.001
H  H85  1  0.71303573  0.20441589  0.09014859  1  0.623892  0.003156  0.326681  0.427073  0.002042  0.849803  0.004
H  H86  1  0.86636199  0.11271812  0.41128146  1  0.034549  0.001098  0.099623  0.158118  0.000407  0.990516  0.001
H  H87  1  0.03692060  0.09766904  0.36022380  1  0.099418  7e-06  0.101944  0.169005  -0.000178  1.01039  0.0
H  H88  1  0.94666835  0.05037281  0.32114492  1  0.06645  0.001045  0.091611  0.14877  0.000179  1.043381  0.001
H  H89  1  0.64908165  0.93597056  0.06070818  1  0.061507  -0.000717  0.103707  0.15803  -0.00072  0.982076  0.0
H  H90  1  0.75782126  0.97491457  0.97944004  1  0.084915  0.001265  0.097962  0.151456  0.000186  1.041515  0.001
H  H91  1  0.58339045  0.02948403  0.01563622  1  0.056645  0.001077  0.100462  0.154719  0.000444  0.996524  0.0
H  H92  1  0.17318069  0.20669536  0.92412680  1  0.081266  3.6e-05  0.101085  0.157971  -0.00012  1.018297  0.0
H  H93  1  0.01770914  0.22716065  0.90759558  1  0.075857  0.000171  0.106333  0.166843  -9.4e-05  0.965628  0.0
H  H94  1  0.12474848  0.12459355  0.89900109  1  0.08329  0.000631  0.098396  0.157275  -7e-06  1.030902  0.0
H  H95  1  0.21415657  0.89934617  0.22568055  1  0.069685  0.001188  0.0993  0.152356  0.000461  0.990794  0.0
H  H96  1  0.13410541  0.82863982  0.21784881  1  0.047603  -0.000516  0.09617  0.141608  -0.000605  1.003967  0.0
H  H97  1  0.27540786  0.83632735  0.13669259  1  0.033412  0.00163  0.096351  0.149543  0.000622  0.995876  0.001
H  H98  1  0.80320870  0.40973509  0.20442320  1  0.618008  0.003219  0.326051  0.425998  0.002043  0.849504  0.004
H  H99  1  0.27724165  0.08835131  0.11326077  1  0.035929  0.001102  0.099446  0.158219  0.000407  0.990844  0.001
H  H100  1  0.39687279  0.13939338  0.09798578  1  0.1001  6e-06  0.102071  0.169026  -0.000181  1.010499  0.0
H  H101  1  0.26743797  0.17846280  0.05077396  1  0.047411  0.001054  0.092109  0.149726  0.000178  1.042568  0.001
H  H102  1  0.71011732  0.43915240  0.93578874  1  0.05679  -0.000719  0.10246  0.156874  -0.000723  0.982702  0.0
H  H103  1  0.73757437  0.52043526  0.97474640  1  0.083558  0.001269  0.098067  0.151544  0.000185  1.041569  0.001
H  H104  1  0.59927242  0.48423241  0.02921739  1  0.069515  0.001058  0.101028  0.155386  0.000441  0.996998  0.0
H  H105  1  0.09819473  0.57570513  0.20645713  1  0.082997  4.6e-05  0.100529  0.15826  -0.000115  1.02173  0.0
H  H106  1  0.92616764  0.59250609  0.22681596  1  0.073711  0.000172  0.105627  0.16614  -9.4e-05  0.966946  0.0
H  H107  1  0.02478432  0.60080712  0.12427920  1  0.082282  0.000632  0.098322  0.157078  -8e-06  1.032249  0.001
H  H108  1  0.43967281  0.27411005  0.89942995  1  0.044328  0.001211  0.098533  0.152523  0.000459  0.989783  0.0
H  H109  1  0.35181478  0.28195655  0.82871785  1  0.040036  -0.000523  0.09654  0.141625  -0.000611  1.002805  0.0
H  H110  1  0.41205874  0.36311463  0.83635070  1  0.055946  0.001622  0.096692  0.150092  0.000624  0.994633  0.001
H  H111  1  0.41739374  0.09024853  0.29560022  1  0.632881  0.00307  0.325476  0.42497  0.002051  0.851045  0.004
H  H112  1  0.47893033  0.41148816  0.38694510  1  0.051276  0.00108  0.099135  0.157248  0.000405  0.990471  0.001
H  H113  1  0.63439451  0.36053869  0.40218480  1  0.109811  -9e-06  0.101539  0.167913  -0.000184  1.011505  0.0
H  H114  1  0.49698288  0.32130971  0.44929718  1  0.06819  0.001049  0.09055  0.147435  0.000183  1.045189  0.001
H  H115  1  0.08490111  0.06102338  0.56401451  1  0.082043  -0.000718  0.102951  0.157292  -0.000721  0.982522  0.0
H  H116  1  0.23246085  0.97963256  0.52516221  1  0.087236  0.00127  0.098793  0.152357  0.000186  1.040346  0.001
H  H117  1  0.11260127  0.01596730  0.47055438  1  0.052077  0.001073  0.10137  0.156417  0.000438  0.997034  0.0
H  H118  1  0.88037686  0.92427556  0.29346004  1  0.077801  5.8e-05  0.100882  0.158442  -0.000108  1.020424  0.0
H  H119  1  0.74549249  0.90739057  0.27314619  1  0.064925  0.00018  0.105435  0.166037  -9.2e-05  0.967371  0.0
H  H120  1  0.75007267  0.89907207  0.37566121  1  0.085766  0.000628  0.098121  0.157176  -7e-06  1.032171  0.0
H  H121  1  0.61309150  0.22563560  0.60103760  1  0.052648  0.001195  0.098899  0.152851  0.000458  0.991342  0.0
H  H122  1  0.46225386  0.21765779  0.67148520  1  0.043423  -0.00052  0.096056  0.141666  -0.000609  1.002605  0.0
H  H123  1  0.61125438  0.13650251  0.66388913  1  0.073976  0.001588  0.096582  0.149911  0.00062  0.996522  0.001
C  C124  1  0.60900883  0.67996579  0.80234361  1  1.554168  0.001848  0.23112  0.734817  -0.000373  4.038817  0.001
C  C125  1  0.60275312  0.60414807  0.85115250  1  -0.08692  0.00904  -0.250894  -0.534794  0.00467  3.865245  0.007
C  C126  1  0.17607161  0.53601935  0.59422996  1  1.542965  -0.002687  0.224302  0.710941  -0.004873  4.058356  -0.002
C  C127  1  0.30491460  0.49181735  0.53298976  1  -0.089242  0.009627  -0.244071  -0.528537  0.005  3.89217  0.007
C  C128  1  0.78031063  0.67202743  0.52074086  1  1.541112  -0.002949  0.243305  0.749709  -0.004871  3.989015  -0.001
C  C129  1  0.79394796  0.68173813  0.43179706  1  -0.116852  0.008503  -0.243241  -0.536024  0.003861  3.871448  0.007
C  C130  1  0.82628583  0.43494135  0.64452848  1  1.569578  -0.005352  0.214815  0.692554  -0.007739  4.1133  -0.005
C  C131  1  0.75925347  0.37106349  0.68314738  1  -0.073841  0.009313  -0.241581  -0.513789  0.004974  3.908831  0.007
C  C132  1  0.09178320  0.82000427  0.69763370  1  1.526578  0.001907  0.232126  0.736415  -0.00036  4.036719  0.001
C  C133  1  0.05890868  0.89584539  0.64876852  1  -0.057461  0.008978  -0.251585  -0.535681  0.004675  3.865175  0.007
C  C134  1  0.30631727  0.96419643  0.90573081  1  1.53267  -0.002532  0.22508  0.712267  -0.004782  4.056475  -0.002
C  C135  1  0.32978231  0.00824710  0.96710570  1  -0.095372  0.009597  -0.244673  -0.529749  0.005  3.891582  0.007
C  C136  1  0.97364635  0.82798919  0.97928717  1  1.526337  -0.002895  0.240602  0.746839  -0.00486  3.98961  -0.001
C  C137  1  0.90873712  0.81819482  0.06830008  1  -0.103133  0.00851  -0.242907  -0.534709  0.003859  3.868591  0.007
C  C138  1  0.90573876  0.06496921  0.85544854  1  1.572433  -0.005283  0.214528  0.691851  -0.007619  4.115065  -0.005
C  C139  1  0.81335004  0.12882751  0.81687069  1  -0.084836  0.009339  -0.241863  -0.514114  0.004978  3.907076  0.007
C  C140  1  0.78948004  0.80254013  0.81975770  1  1.550639  0.001786  0.230516  0.736132  -0.000376  4.036986  0.001
C  C141  1  0.70792756  0.85153461  0.89549687  1  -0.063685  0.009046  -0.25115  -0.535713  0.00468  3.866157  0.007
C  C142  1  0.21192186  0.59433965  0.96427678  1  1.533397  -0.002616  0.22625  0.715372  -0.004869  4.054871  -0.002
C  C143  1  0.29660100  0.53298011  0.00842080  1  -0.094139  0.009578  -0.243514  -0.528715  0.004998  3.89308  0.007
C  C144  1  0.95262527  0.52076963  0.82799728  1  1.526651  -0.002914  0.241931  0.748975  -0.004874  3.987929  -0.001
C  C145  1  0.97618015  0.43175272  0.81840067  1  -0.101017  0.008519  -0.242858  -0.535689  0.003868  3.874151  0.007
C  C146  1  0.76131529  0.64455581  0.06499159  1  1.572409  -0.00529  0.215419  0.692598  -0.007647  4.114561  -0.005
C  C147  1  0.63039220  0.68315992  0.12884036  1  -0.062535  0.009315  -0.24163  -0.515145  0.004979  3.904505  0.007
C  C148  1  0.41155119  0.69748490  0.68020987  1  1.549568  0.001764  0.229116  0.73388  -0.000446  4.037736  0.001
C  C149  1  0.45478117  0.64853208  0.60444465  1  -0.106395  0.009079  -0.248636  -0.531401  0.004677  3.866555  0.007
C  C150  1  0.77041153  0.90563892  0.53585648  1  1.5399  -0.002626  0.225213  0.714095  -0.004847  4.05753  -0.002
C  C151  1  0.83810183  0.96691181  0.49171927  1  -0.108679  0.009578  -0.245758  -0.531009  0.005008  3.893575  0.007
C  C152  1  0.30135043  0.97932750  0.67197327  1  1.540811  -0.002829  0.243448  0.749989  -0.004757  3.98371  -0.001
C  C153  1  0.22631686  0.06834059  0.68162235  1  -0.091973  0.008497  -0.242055  -0.535304  0.003862  3.872088  0.007
C  C154  1  0.47069951  0.85553453  0.43499977  1  1.576406  -0.005414  0.215315  0.692296  -0.007753  4.115516  -0.005
C  C155  1  0.44249578  0.81695949  0.37100222  1  -0.112059  0.009366  -0.241515  -0.514817  0.00497  3.90708  0.007
C  C156  1  0.39097577  0.32006813  0.19773114  1  1.554617  0.001807  0.231557  0.735668  -0.000411  4.037813  0.001
C  C157  1  0.39709252  0.39590406  0.14889220  1  -0.086662  0.009051  -0.250896  -0.535232  0.004674  3.864845  0.007
C  C158  1  0.82397606  0.46398908  0.40575265  1  1.543815  -0.002676  0.224545  0.711371  -0.004861  4.057898  -0.002
C  C159  1  0.69511569  0.50821780  0.46698087  1  -0.09159  0.009629  -0.244066  -0.528573  0.005001  3.891721  0.007
C  C160  1  0.21968462  0.32799981  0.47923835  1  1.539658  -0.002956  0.243344  0.749601  -0.004884  3.988913  -0.001
C  C161  1  0.20601007  0.31829823  0.56819386  1  -0.115661  0.00851  -0.2429  -0.535469  0.003865  3.870308  0.007
C  C162  1  0.17363967  0.56507132  0.35545287  1  1.568277  -0.005369  0.214908  0.692345  -0.007753  4.112993  -0.005
C  C163  1  0.24053256  0.62902994  0.31688990  1  -0.078849  0.009324  -0.241678  -0.513974  0.004976  3.908039  0.007
C  C164  1  0.90825694  0.17996589  0.30232367  1  1.527811  0.001888  0.232124  0.736242  -0.000382  4.037639  0.001
C  C165  1  0.94107344  0.10411870  0.35119958  1  -0.058949  0.008971  -0.251277  -0.535369  0.004669  3.865521  0.007
C  C166  1  0.69375449  0.03586483  0.09423463  1  1.533808  -0.002528  0.225418  0.712326  -0.004786  4.054773  -0.002
C  C167  1  0.67037743  0.99176802  0.03285366  1  -0.093716  0.0096  -0.244317  -0.528358  0.005  3.890996  0.007
C  C168  1  0.02632054  0.17206417  0.02073162  1  1.524632  -0.002917  0.240243  0.745926  -0.004897  3.989497  -0.001
C  C169  1  0.09132850  0.18180510  0.93170653  1  -0.103513  0.008523  -0.243078  -0.534483  0.003864  3.868395  0.007
C  C170  1  0.09429216  0.93503193  0.14451484  1  1.572122  -0.005288  0.214843  0.692564  -0.007612  4.113532  -0.005
C  C171  1  0.18665227  0.87108920  0.18304921  1  -0.083792  0.009342  -0.242074  -0.514453  0.00498  3.907341  0.007
C  C172  1  0.21050774  0.19746950  0.18024703  1  1.550825  0.001776  0.230489  0.736246  -0.000391  4.037365  0.001
C  C173  1  0.29195097  0.14843796  0.10452928  1  -0.062345  0.009031  -0.251301  -0.535997  0.004673  3.866106  0.007
C  C174  1  0.78810646  0.40566512  0.03577660  1  1.5344  -0.002639  0.226089  0.715279  -0.004889  4.055494  -0.002
C  C175  1  0.70349403  0.46701373  0.99157752  1  -0.093858  0.009584  -0.243281  -0.527993  0.005001  3.893275  0.007
C  C176  1  0.04744617  0.47916955  0.17201956  1  1.525186  -0.002931  0.24205  0.749575  -0.004912  3.986918  -0.001
C  C177  1  0.02389263  0.56820712  0.18155670  1  -0.09878  0.008532  -0.242726  -0.535792  0.003876  3.873984  0.007
C  C178  1  0.23871629  0.35537730  0.93503207  1  1.572773  -0.005291  0.215507  0.692326  -0.007655  4.114258  -0.005
C  C179  1  0.36959519  0.31677926  0.87114330  1  -0.069323  0.009317  -0.241639  -0.514982  0.004981  3.903873  0.007
C  C180  1  0.58847350  0.30246035  0.31981648  1  1.549644  0.00176  0.229197  0.733895  -0.000458  4.038123  0.001
C  C181  1  0.54513874  0.35142045  0.39559928  1  -0.106182  0.009081  -0.248827  -0.531286  0.004678  3.865863  0.007
C  C182  1  0.22962007  0.09437375  0.46412679  1  1.53995  -0.002613  0.225089  0.713532  -0.004839  4.058335  -0.002
C  C183  1  0.16196090  0.03309418  0.50828156  1  -0.110072  0.009564  -0.245759  -0.53074  0.005  3.893382  0.007
C  C184  1  0.69866481  0.02072648  0.32795222  1  1.537903  -0.002834  0.243479  0.749655  -0.004761  3.983852  -0.001
C  C185  1  0.77372202  0.93169942  0.31838902  1  -0.091296  0.008508  -0.242189  -0.535475  0.00387  3.87201  0.007
C  C186  1  0.52927945  0.14443865  0.56501016  1  1.57567  -0.005395  0.215049  0.692115  -0.007727  4.116724  -0.005
C  C187  1  0.55735364  0.18294322  0.62911463  1  -0.106533  0.009368  -0.241593  -0.515318  0.004972  3.907207  0.007
O  O188  1  0.92864832  0.69398720  0.64012938  1  -1.169814  0.229952  -0.563301  -0.89909  0.126523  2.450281  0.2
O  O189  1  0.69638244  0.67485087  0.73145841  1  -1.173758  0.10758  -0.31329  -0.620747  0.056422  2.484063  0.099
O  O190  1  0.17998593  0.58151184  0.64474834  1  -1.152987  0.064942  -0.299712  -0.547774  0.033142  2.281382  0.058
O  O191  1  0.06829626  0.52350314  0.59294843  1  -1.165886  0.104903  -0.317366  -0.628449  0.055792  2.5229  0.094
O  O192  1  0.70746512  0.73212027  0.56782950  1  -1.189699  0.094272  -0.310905  -0.619398  0.049794  2.56349  0.085
O  O193  1  0.84304771  0.60548965  0.54813820  1  -1.175566  0.105188  -0.297887  -0.595337  0.055985  2.520933  0.095
O  O194  1  0.80390815  0.49481545  0.68953523  1  -1.164992  0.067934  -0.318898  -0.583715  0.035628  2.347043  0.058
O  O195  1  0.90111573  0.42393696  0.57150776  1  -1.177756  0.059114  -0.318608  -0.578232  0.030039  2.320282  0.053
O  O196  1  0.52648163  0.74664811  0.83196443  1  -1.169695  0.066009  -0.311465  -0.568523  0.033168  2.282657  0.057
O  O197  1  0.26261306  0.80616057  0.86000135  1  -1.181567  0.230033  -0.563311  -0.902081  0.126719  2.451732  0.2
O  O198  1  0.10282719  0.82511114  0.76862421  1  -1.166238  0.10773  -0.313797  -0.620441  0.056504  2.48531  0.099
O  O199  1  0.40622198  0.91875146  0.85517501  1  -1.157455  0.064989  -0.300759  -0.548392  0.033096  2.280136  0.058
O  O200  1  0.18477762  0.97671727  0.90696242  1  -1.165573  0.104934  -0.317063  -0.628273  0.055702  2.521143  0.094
O  O201  1  0.00792834  0.76781958  0.93229155  1  -1.180318  0.0942  -0.311798  -0.619396  0.049816  2.564351  0.085
O  O202  1  0.99672980  0.89462273  0.95175796  1  -1.167401  0.105584  -0.296045  -0.593505  0.056126  2.521935  0.096
O  O203  1  0.98827137  0.00514330  0.81041883  1  -1.173437  0.067941  -0.318868  -0.583582  0.035586  2.347861  0.058
O  O204  1  0.89657356  0.07596561  0.92847606  1  -1.169915  0.059144  -0.318599  -0.578313  0.030041  2.322672  0.053
O  O205  1  0.10551153  0.75334860  0.66797018  1  -1.167911  0.06605  -0.312013  -0.56956  0.033208  2.281395  0.057
O  O206  1  0.12257557  0.64016876  0.80613272  1  -1.173406  0.229825  -0.562368  -0.899094  0.126671  2.449118  0.2
O  O207  1  0.87143801  0.73154410  0.82497234  1  -1.172557  0.10755  -0.313096  -0.62051  0.056334  2.483027  0.099
O  O208  1  0.26125778  0.64497124  0.91890744  1  -1.162264  0.064926  -0.301525  -0.550331  0.033087  2.27955  0.058
O  O209  1  0.09171741  0.59299318  0.97660377  1  -1.166549  0.105001  -0.317904  -0.6304  0.055858  2.521539  0.094
O  O210  1  0.94017751  0.56771826  0.76773772  1  -1.184293  0.094051  -0.310489  -0.620158  0.049755  2.56104  0.085
O  O211  1  0.94832892  0.54831104  0.89457334  1  -1.162247  0.105284  -0.296789  -0.593589  0.055915  2.520032  0.095
O  O212  1  0.79883787  0.68964187  0.00518140  1  -1.172518  0.067968  -0.320117  -0.584012  0.035674  2.346467  0.058
O  O213  1  0.82514268  0.57149130  0.07593978  1  -1.175277  0.05911  -0.318483  -0.578659  0.030033  2.322612  0.053
O  O214  1  0.77341479  0.83210340  0.75310044  1  -1.167945  0.066164  -0.310371  -0.568716  0.033218  2.281594  0.057
O  O215  1  0.56870508  0.85986516  0.69390477  1  -1.189976  0.230027  -0.562226  -0.899028  0.126621  2.449864  0.199
O  O216  1  0.42785341  0.76845465  0.67506079  1  -1.170604  0.107602  -0.312251  -0.620182  0.056377  2.483264  0.099
O  O217  1  0.82486268  0.85501415  0.58128439  1  -1.161078  0.065038  -0.299843  -0.548244  0.033206  2.281533  0.058
O  O218  1  0.66125133  0.90701917  0.52341571  1  -1.172841  0.10515  -0.317147  -0.629437  0.055758  2.523134  0.094
O  O219  1  0.27554874  0.93233186  0.73218676  1  -1.188597  0.094153  -0.311407  -0.618896  0.049774  2.559175  0.085
O  O220  1  0.39117465  0.95183626  0.60542107  1  -1.171663  0.105349  -0.298125  -0.595568  0.055931  2.521235  0.095
O  O221  1  0.49326778  0.81047662  0.49486702  1  -1.174977  0.067854  -0.319941  -0.584247  0.035574  2.349437  0.058
O  O222  1  0.47245394  0.92860258  0.42405685  1  -1.169423  0.059285  -0.318339  -0.577863  0.030123  2.323274  0.053
O  O223  1  0.35833016  0.66792699  0.74684741  1  -1.170449  0.066097  -0.310332  -0.567291  0.033209  2.281511  0.057
O  O224  1  0.07137274  0.30606616  0.35987613  1  -1.170491  0.230036  -0.563428  -0.899154  0.126583  2.450589  0.2
O  O225  1  0.30359125  0.32515451  0.26860749  1  -1.174353  0.107639  -0.313422  -0.620754  0.056449  2.485277  0.099
O  O226  1  0.82008797  0.41848322  0.35524309  1  -1.153564  0.064928  -0.29984  -0.547937  0.033136  2.281257  0.058
O  O227  1  0.93176852  0.47648342  0.40702054  1  -1.166629  0.104968  -0.317558  -0.628727  0.055839  2.523183  0.094
O  O228  1  0.29252541  0.26790515  0.43215622  1  -1.189611  0.094311  -0.310851  -0.619231  0.049801  2.564089  0.085
O  O229  1  0.15697061  0.39451998  0.45181279  1  -1.175071  0.105262  -0.297995  -0.59528  0.056026  2.521479  0.095
O  O230  1  0.19602253  0.50519539  0.31045598  1  -1.163463  0.067915  -0.318927  -0.583651  0.035622  2.347463  0.058
O  O231  1  0.09885470  0.57603744  0.42849498  1  -1.177634  0.05922  -0.318686  -0.578066  0.030089  2.320052  0.053
O  O232  1  0.47360096  0.25341132  0.16813020  1  -1.169647  0.066134  -0.311593  -0.568891  0.033227  2.283184  0.057
O  O233  1  0.73737893  0.19384419  0.14005986  1  -1.181222  0.230137  -0.563484  -0.902161  0.126798  2.452879  0.2
O  O234  1  0.89713629  0.17489425  0.23134660  1  -1.167128  0.107772  -0.313838  -0.620412  0.056531  2.48659  0.099
O  O235  1  0.59387190  0.08135961  0.14474759  1  -1.157809  0.065029  -0.300807  -0.548474  0.033121  2.280375  0.058
O  O236  1  0.81529426  0.02334157  0.09302382  1  -1.167325  0.105182  -0.317345  -0.628748  0.055755  2.520581  0.094
O  O237  1  0.99194808  0.23226232  0.06770413  1  -1.179345  0.094255  -0.311251  -0.618661  0.049849  2.56475  0.085
O  O238  1  0.00325658  0.10543063  0.04827909  1  -1.166337  0.105617  -0.296046  -0.593311  0.056151  2.522246  0.096
O  O239  1  0.01175068  0.99483779  0.18956138  1  -1.173749  0.067853  -0.318972  -0.584102  0.035529  2.347178  0.058
O  O240  1  0.10351197  0.92410478  0.07145713  1  -1.169346  0.059203  -0.318708  -0.578531  0.030065  2.322486  0.053
O  O241  1  0.89462290  0.24661671  0.33194970  1  -1.168425  0.066007  -0.312082  -0.569607  0.033191  2.282227  0.057
O  O242  1  0.87748100  0.35983359  0.19386381  1  -1.174112  0.229977  -0.562374  -0.899022  0.126728  2.449758  0.2
O  O243  1  0.12858297  0.26847586  0.17503382  1  -1.173218  0.107606  -0.313162  -0.620723  0.056371  2.484041  0.099
O  O244  1  0.73869887  0.35509122  0.08119496  1  -1.163207  0.064968  -0.301236  -0.5503  0.03311  2.280238  0.058
O  O245  1  0.90832774  0.40697151  0.02345749  1  -1.167437  0.105113  -0.318081  -0.630238  0.055903  2.522001  0.094
O  O246  1  0.05981987  0.43225979  0.23230319  1  -1.183145  0.094094  -0.31055  -0.62023  0.049799  2.561965  0.085
O  O247  1  0.05176213  0.45159595  0.10545317  1  -1.16319  0.105369  -0.297001  -0.593943  0.055952  2.520288  0.096
O  O248  1  0.20114552  0.31032828  0.99485476  1  -1.173157  0.067889  -0.320013  -0.583687  0.035646  2.346911  0.058
O  O249  1  0.17492868  0.42846184  0.92407961  1  -1.174895  0.059178  -0.318777  -0.578799  0.030058  2.322273  0.053
O  O250  1  0.22656641  0.16792809  0.24691126  1  -1.167418  0.066113  -0.310286  -0.568656  0.033201  2.281929  0.057
O  O251  1  0.43135180  0.14015359  0.30605328  1  -1.189693  0.230078  -0.562254  -0.898757  0.126668  2.450686  0.2
O  O252  1  0.57222315  0.23148758  0.32490908  1  -1.17136  0.10767  -0.312155  -0.620216  0.05644  2.485796  0.099
O  O253  1  0.17513850  0.14501613  0.41873535  1  -1.161489  0.06497  -0.299627  -0.547872  0.033164  2.281909  0.058
O  O254  1  0.33881854  0.09298440  0.47652195  1  -1.172351  0.105168  -0.317095  -0.629042  0.055749  2.523174  0.094
O  O255  1  0.72438845  0.06768628  0.26771548  1  -1.185984  0.094198  -0.311519  -0.618682  0.049808  2.560573  0.085
O  O256  1  0.60884846  0.04824202  0.39450244  1  -1.171104  0.105391  -0.297991  -0.595223  0.055969  2.521342  0.095
O  O257  1  0.50668056  0.18953483  0.50518060  1  -1.174696  0.067712  -0.319478  -0.583754  0.035492  2.349052  0.058
O  O258  1  0.52765686  0.07134147  0.57587068  1  -1.169026  0.059342  -0.318589  -0.578076  0.030145  2.324704  0.053
O  O259  1  0.64170884  0.33203162  0.25319760  1  -1.169443  0.066138  -0.310436  -0.567289  0.033229  2.281476  0.057
