# generated using pymatgen
data_Cd3H8C12O13
_symmetry_space_group_name_H-M   'P 1'
_cell_length_a   9.59918652
_cell_length_b   9.53240304
_cell_length_c   10.32327984
_cell_angle_alpha   112.26373596
_cell_angle_beta   105.41591962
_cell_angle_gamma   107.60279271
_symmetry_Int_Tables_number   1
_chemical_formula_structural   Cd3H8C12O13
_chemical_formula_sum   'Cd6 H16 C24 O26'
_cell_volume   751.79947336
_cell_formula_units_Z   2
loop_
 _symmetry_equiv_pos_site_id
 _symmetry_equiv_pos_as_xyz
  1  'x, y, z'
loop_
 _atom_site_type_symbol
 _atom_site_label
 _atom_site_symmetry_multiplicity
 _atom_site_fract_x
 _atom_site_fract_y
 _atom_site_fract_z
 _atom_site_occupancy
 _atom_site_pbe_bader_spin_density
 _atom_site_pbe_cm5_charge
 _atom_site_pbe_ddec_charge
 _atom_site_pbe_ddec_spin_density
 _atom_site_pbe_ddec_sum_bond_order
 _atom_site_pbe_magmom
Cd  Cd0  1  0.61420039  0.73452275  0.92161808  1  0  0.790943  1.050828  0  2.017032  0
Cd  Cd1  1  0.38579947  0.26547613  0.07838228  1  0  0.79093  1.050792  0  2.017057  0
Cd  Cd2  1  0.81719733  0.16901441  0.23840704  1  0  0.804903  1.124735  0  2.156087  0
Cd  Cd3  1  0.18280252  0.83098445  0.76159235  1  0  0.804914  1.124756  0  2.156072  0
Cd  Cd4  1  0.21893993  0.24928017  0.45030987  1  0  0.777673  1.00977  0  2.092047  0
Cd  Cd5  1  0.78105884  0.75071870  0.54968926  1  0  0.777678  1.00978  0  2.092017  0
H  H6  1  0.19135980  0.95586926  0.37316573  1  0  0.104256  0.09297  0  1.017486  0
H  H7  1  0.80863952  0.04413088  0.62683398  1  0  0.104256  0.092961  0  1.017479  0
H  H8  1  0.97191337  0.57737441  0.15362467  1  0  0.109657  0.108081  0  0.971409  0
H  H9  1  0.02808649  0.42262446  0.84637570  1  0  0.109644  0.108084  0  0.971381  0
H  H10  1  0.28634670  0.75762088  0.45052516  1  0  0.110982  0.112087  0  0.978077  0
H  H11  1  0.71365588  0.24238180  0.54947720  1  0  0.110988  0.112097  0  0.978108  0
H  H12  1  0.24733916  0.55187667  0.12096042  1  0  0.10376  0.104739  0  0.994017  0
H  H13  1  0.75265854  0.44812220  0.87903942  1  0  0.103753  0.104739  0  0.994016  0
H  H14  1  0.42400711  0.93398355  0.35978728  1  0  0.109144  0.108596  0  0.993078  0
H  H15  1  0.57599274  0.06601531  0.64021212  1  0  0.109162  0.108639  0  0.993016  0
H  H16  1  0.13484431  0.73228221  0.04039273  1  0  0.109296  0.113929  0  0.982999  0
H  H17  1  0.86515555  0.26771666  0.95960763  1  0  0.109317  0.11394  0  0.983  0
H  H18  1  0.31218871  0.61373702  0.62831932  1  0  0.299173  0.39533  0  0.939774  0
H  H19  1  0.68781225  0.38626439  0.37168219  1  0  0.299166  0.395329  0  0.939772  0
H  H20  1  0.27753440  0.56464467  0.74925160  1  0  0.312006  0.393164  0  0.91131  0
H  H21  1  0.72246492  0.43535546  0.25074811  1  0  0.31199  0.393146  0  0.911358  0
C  C22  1  0.11146997  0.84765670  0.25528179  1  0  -0.084504  -0.143766  0  3.813318  0
C  C23  1  0.88853044  0.15234343  0.74471817  1  0  -0.084495  -0.143696  0  3.813249  0
C  C24  1  0.06181268  0.68587215  0.26885241  1  0  -0.083044  -0.130933  0  3.823451  0
C  C25  1  0.93818773  0.31412799  0.73114853  1  0  -0.083048  -0.130991  0  3.823392  0
C  C26  1  0.20704076  0.65547451  0.32973867  1  0  -0.085757  -0.146984  0  3.836219  0
C  C27  1  0.79295965  0.34452563  0.67026227  1  0  -0.085768  -0.146991  0  3.836195  0
C  C28  1  0.31252203  0.66069346  0.23977771  1  0  -0.083997  -0.144835  0  3.827609  0
C  C29  1  0.68747675  0.33930541  0.76022239  1  0  -0.083996  -0.14484  0  3.827634  0
C  C30  1  0.36189980  0.82945069  0.23911027  1  0  -0.082822  -0.138816  0  3.800327  0
C  C31  1  0.63810006  0.17054818  0.76088912  1  0  -0.082822  -0.138887  0  3.80032  0
C  C32  1  0.20944471  0.84327647  0.15807223  1  0  -0.076805  -0.133264  0  3.789907  0
C  C33  1  0.79055569  0.15672367  0.84192774  1  0  -0.07684  -0.133306  0  3.789937  0
C  C34  1  0.96500635  0.87316777  0.18630623  1  0  0.219589  0.640146  0  4.109601  0
C  C35  1  0.03499351  0.12683110  0.81369317  1  0  0.219605  0.640159  0  4.109585  0
C  C36  1  0.97943430  0.69874277  0.37885729  1  0  0.209591  0.601386  0  4.132235  0
C  C37  1  0.02056502  0.30125737  0.62114339  1  0  0.209635  0.601457  0  4.132166  0
C  C38  1  0.15209396  0.48921753  0.33260155  1  0  0.223117  0.640114  0  4.094617  0
C  C39  1  0.84790700  0.51078389  0.66740094  1  0  0.223125  0.640105  0  4.094644  0
C  C40  1  0.46582228  0.65642321  0.32604016  1  0  0.216217  0.625728  0  4.109429  0
C  C41  1  0.53417758  0.34357565  0.67395923  1  0  0.216202  0.625702  0  4.109508  0
C  C42  1  0.48653111  0.85516601  0.17249516  1  0  0.213413  0.628537  0  4.143189  0
C  C43  1  0.51346876  0.14483286  0.82750521  1  0  0.213429  0.628568  0  4.143224  0
C  C44  1  0.26151990  0.99819132  0.13772428  1  0  0.222116  0.630889  0  4.052593  0
C  C45  1  0.73848051  0.00180882  0.86227666  1  0  0.222125  0.630942  0  4.052622  0
O  O46  1  0.85335986  0.75353710  0.05611345  1  0  -0.309626  -0.534835  0  2.281672  0
O  O47  1  0.14664000  0.24646176  0.94388594  1  0  -0.309641  -0.534841  0  2.281668  0
O  O48  1  0.96953218  0.01813208  0.26302816  1  0  -0.331993  -0.621772  0  2.421013  0
O  O49  1  0.03046822  0.98186805  0.73697181  1  0  -0.331995  -0.621781  0  2.421012  0
O  O50  1  0.84924719  0.71407931  0.34317655  1  0  -0.320014  -0.543364  0  2.204329  0
O  O51  1  0.15075322  0.28592083  0.65682342  1  0  -0.32001  -0.543379  0  2.204298  0
O  O52  1  0.04169025  0.68839000  0.49777078  1  0  -0.332867  -0.592937  0  2.360964  0
O  O53  1  0.95830909  0.31161015  0.50223086  1  0  -0.332898  -0.592961  0  2.360931  0
O  O54  1  0.01642929  0.36613958  0.22996276  1  0  -0.321376  -0.573971  0  2.292356  0
O  O55  1  0.98357113  0.63386057  0.77003915  1  0  -0.321376  -0.573971  0  2.292406  0
O  O56  1  0.25469678  0.48549872  0.43916313  1  0  -0.3217  -0.568459  0  2.342006  0
O  O57  1  0.74530417  0.51450269  0.56083839  1  0  -0.321704  -0.568459  0  2.341986  0
O  O58  1  0.48758166  0.52427863  0.27938154  1  0  -0.332526  -0.581279  0  2.343879  0
O  O59  1  0.51241819  0.47572024  0.72061785  1  0  -0.332516  -0.581261  0  2.343906  0
O  O60  1  0.57158673  0.79406526  0.45019697  1  0  -0.315403  -0.531705  0  2.257604  0
O  O61  1  0.42841475  0.20593488  0.54980326  1  0  -0.315391  -0.531686  0  2.257658  0
O  O62  1  0.46419403  0.72667243  0.05288924  1  0  -0.326842  -0.552399  0  2.239761  0
O  O63  1  0.53580691  0.27332644  0.94711041  1  0  -0.326849  -0.552415  0  2.239858  0
O  O64  1  0.60358043  0.00302711  0.24707934  1  0  -0.331151  -0.570467  0  2.302718  0
O  O65  1  0.39641890  0.99697303  0.75292134  1  0  -0.331168  -0.570476  0  2.302704  0
O  O66  1  0.30387235  0.98384392  0.02656910  1  0  -0.331545  -0.599207  0  2.392114  0
O  O67  1  0.69612643  0.01615494  0.97343003  1  0  -0.33154  -0.599217  0  2.392152  0
O  O68  1  0.27170101  0.13925846  0.22677563  1  0  -0.305086  -0.534431  0  2.270049  0
O  O69  1  0.72830048  0.86074168  0.77322558  1  0  -0.305081  -0.534457  0  2.270046  0
O  O70  1  0.32585622  0.66382534  0.73850240  1  0  -0.558793  -0.737606  0  2.147281  0
O  O71  1  0.67414419  0.33617480  0.26149854  1  0  -0.558764  -0.737579  0  2.147314  0
