# generated using pymatgen
data_ZnH20C24(NO)6
_symmetry_space_group_name_H-M   'P 1'
_cell_length_a   9.05141146
_cell_length_b   10.46916455
_cell_length_c   11.38673032
_cell_angle_alpha   58.36942683
_cell_angle_beta   89.12646600
_cell_angle_gamma   63.50526819
_symmetry_Int_Tables_number   1
_chemical_formula_structural   ZnH20C24(NO)6
_chemical_formula_sum   'Zn1 H20 C24 N6 O6'
_cell_volume   787.63976445
_cell_formula_units_Z   1
loop_
 _symmetry_equiv_pos_site_id
 _symmetry_equiv_pos_as_xyz
  1  'x, y, z'
loop_
 _atom_site_type_symbol
 _atom_site_label
 _atom_site_symmetry_multiplicity
 _atom_site_fract_x
 _atom_site_fract_y
 _atom_site_fract_z
 _atom_site_occupancy
 _atom_site_hle17_bader_spin_density
 _atom_site_hle17_ddec_charge
 _atom_site_hle17_ddec_spin_density
 _atom_site_hle17_ddec_sum_bond_order
 _atom_site_hle17_magmom
 _atom_site_hse06_10hf_bader_spin_density
 _atom_site_hse06_10hf_ddec_charge
 _atom_site_hse06_10hf_ddec_spin_density
 _atom_site_hse06_10hf_ddec_sum_bond_order
 _atom_site_hse06_10hf_magmom
 _atom_site_hse06_bader_spin_density
 _atom_site_hse06_ddec_charge
 _atom_site_hse06_ddec_spin_density
 _atom_site_hse06_ddec_sum_bond_order
 _atom_site_hse06_magmom
 _atom_site_pbe_bader_spin_density
 _atom_site_pbe_cm5_charge
 _atom_site_pbe_ddec_charge
 _atom_site_pbe_ddec_spin_density
 _atom_site_pbe_ddec_sum_bond_order
 _atom_site_pbe_magmom
Zn  Zn0  1  0.50001093  0.49999622  0.50000824  1  0  0.931512  0  1.850579  0  0  0.726404  0  2.293211  0  0  0.772871  0  2.25042  0  0  0.696393  0.69411  0  2.322044  0
H  H1  1  0.27287602  0.73962762  0.19149247  1  0  0.084962  0  0.982224  0  0  0.086805  0  1.054906  0  0  0.090848  0  1.04975  0  0  0.110688  0.08381  0  1.058688  0
H  H2  1  0.72713927  0.26036469  0.80851883  1  0  0.08499  0  0.982337  0  0  0.08683  0  1.054993  0  0  0.090853  0  1.04986  0  0  0.110696  0.083839  0  1.05877  0
H  H3  1  0.13758751  0.72639766  0.01393882  1  0  0.117532  0  0.960227  0  0  0.128507  0  1.017128  0  0  0.131739  0  1.015861  0  0  0.109001  0.126005  0  1.018519  0
H  H4  1  0.86241832  0.27360270  0.98605431  1  0  0.117442  0  0.960201  0  0  0.1284  0  1.017156  0  0  0.131634  0  1.015888  0  0  0.108952  0.125898  0  1.018549  0
H  H5  1  0.28522129  0.19613958  0.35778960  1  0  0.124772  0  0.957786  0  0  0.136138  0  1.015081  0  0  0.139441  0  1.013818  0  0  0.109527  0.133725  0  1.016174  0
H  H6  1  0.71477869  0.80386146  0.64220776  1  0  0.124868  0  0.957705  0  0  0.136218  0  1.015017  0  0  0.139524  0  1.013751  0  0  0.109552  0.13381  0  1.016107  0
H  H7  1  0.41743069  0.23115759  0.52218631  1  0  0.078206  0  0.966346  0  0  0.081447  0  1.037112  0  0  0.085155  0  1.032635  0  0  0.11104  0.078758  0  1.040218  0
H  H8  1  0.58257041  0.76883431  0.47781557  1  0  0.078185  0  0.966419  0  0  0.081455  0  1.037149  0  0  0.085152  0  1.032685  0  0  0.111014  0.078762  0  1.040257  0
H  H9  1  0.23321100  0.31880240  0.07927248  1  0  0.079576  0  0.909073  0  0  0.092904  0  0.963243  0  0  0.093926  0  0.963609  0  0  0.107454  0.092204  0  0.963061  0
H  H10  1  0.76677860  0.68120183  0.92072194  1  0  0.079548  0  0.909186  0  0  0.092929  0  0.963318  0  0  0.093955  0  0.963685  0  0  0.107435  0.092227  0  0.963139  0
H  H11  1  0.70896505  0.21856938  0.45085327  1  0  0.078798  0  0.987908  0  0  0.084352  0  1.056819  0  0  0.086817  0  1.054373  0  0  0.112499  0.082448  0  1.058673  0
H  H12  1  0.29101902  0.78142806  0.54916162  1  0  0.078657  0  0.987931  0  0  0.084244  0  1.056819  0  0  0.086699  0  1.054367  0  0  0.112419  0.082332  0  1.058685  0
H  H13  1  0.88188835  0.18111486  0.28699754  1  0  0.115672  0  0.935619  0  0  0.12562  0  0.991948  0  0  0.129044  0  0.990903  0  0  0.111385  0.123013  0  0.993148  0
H  H14  1  0.11810551  0.81888291  0.71301358  1  0  0.115649  0  0.935595  0  0  0.125587  0  0.991939  0  0  0.129012  0  0.990894  0  0  0.111378  0.122979  0  0.993136  0
H  H15  1  0.85480733  0.66581879  0.14246956  1  0  0.11306  0  0.942711  0  0  0.125506  0  0.99757  0  0  0.128198  0  0.99777  0  0  0.110132  0.123498  0  0.997742  0
H  H16  1  0.14519456  0.33418066  0.85754433  1  0  0.11312  0  0.942864  0  0  0.125574  0  0.997697  0  0  0.128263  0  0.997903  0  0  0.110162  0.123598  0  0.997831  0
H  H17  1  0.68986877  0.67983049  0.31558521  1  0  0.082656  0  0.93832  0  0  0.092417  0  0.998083  0  0  0.094734  0  0.995695  0  0  0.11747  0.090733  0  0.999823  0
H  H18  1  0.31014076  0.32014629  0.68442704  1  0  0.082678  0  0.938204  0  0  0.092491  0  0.997921  0  0  0.094775  0  0.995571  0  0  0.117482  0.090809  0  0.999659  0
H  H19  1  0.00458465  0.28348272  0.10859349  1  0  0.073965  0  0.993042  0  0  0.076873  0  1.070355  0  0  0.079581  0  1.067673  0  0  0.097776  0.074729  0  1.072566  0
H  H20  1  0.99542092  0.71650682  0.89141459  1  0  0.073984  0  0.993013  0  0  0.076882  0  1.070341  0  0  0.079598  0  1.067655  0  0  0.097766  0.074743  0  1.07254  0
C  C21  1  0.27254542  0.62144827  0.22432757  1  0  0.135923  0  3.697239  0  0  0.106112  0  3.945449  0  0  0.113567  0  3.963076  0  0  0.041934  0.101325  0  3.933278  0
C  C22  1  0.72745727  0.37854261  0.77567293  1  0  0.135847  0  3.697293  0  0  0.106067  0  3.945436  0  0  0.113535  0  3.963078  0  0  0.041966  0.10128  0  3.933262  0
C  C23  1  0.19814663  0.61184607  0.12527045  1  0  -0.173369  0  3.703991  0  0  -0.189286  0  3.947278  0  0  -0.198037  0  3.968946  0  0  -0.086732  -0.183428  0  3.932581  0
C  C24  1  0.80183888  0.38816664  0.87473125  1  0  -0.173258  0  3.703924  0  0  -0.189158  0  3.947226  0  0  -0.197907  0  3.968891  0  0  -0.086727  -0.183301  0  3.932532  0
C  C25  1  0.20148089  0.45775688  0.17010065  1  0  0.133614  0  3.722679  0  0  0.140421  0  3.967766  0  0  0.146237  0  3.989862  0  0  0.013023  0.136843  0  3.952361  0
C  C26  1  0.79849895  0.54225838  0.82989389  1  0  0.133724  0  3.723067  0  0  0.140471  0  3.968294  0  0  0.146289  0  3.990397  0  0  0.01305  0.136892  0  3.952891  0
C  C27  1  0.27895078  0.31932029  0.31679451  1  0  -0.172562  0  3.70081  0  0  -0.191105  0  3.948572  0  0  -0.199863  0  3.970784  0  0  -0.088561  -0.185474  0  3.933559  0
C  C28  1  0.72102464  0.68068587  0.68321257  1  0  -0.172772  0  3.701032  0  0  -0.191306  0  3.948856  0  0  -0.200065  0  3.971063  0  0  -0.088587  -0.185675  0  3.933839  0
C  C29  1  0.35052806  0.33864431  0.40907387  1  0  0.120401  0  3.731976  0  0  0.089977  0  3.987805  0  0  0.096686  0  4.00612  0  0  0.037588  0.08573  0  3.975228  0
C  C30  1  0.64946393  0.66135953  0.59092245  1  0  0.120448  0  3.731897  0  0  0.090009  0  3.987699  0  0  0.096727  0  4.006015  0  0  0.037581  0.085763  0  3.975125  0
C  C31  1  0.12897567  0.43367434  0.07056994  1  0  -0.048294  0  3.533029  0  0  -0.057248  0  3.767037  0  0  -0.058931  0  3.78103  0  0  -0.067252  -0.055885  0  3.757106  0
C  C32  1  0.87100678  0.56632866  0.92942594  1  0  -0.048162  0  3.532933  0  0  -0.057238  0  3.767145  0  0  -0.058934  0  3.78116  0  0  -0.067258  -0.05587  0  3.757207  0
C  C33  1  0.74474844  0.31449235  0.38132067  1  0  0.12927  0  3.709179  0  0  0.097792  0  3.957943  0  0  0.104984  0  3.977323  0  0  0.039635  0.093177  0  3.944633  0
C  C34  1  0.25525579  0.68549087  0.61869703  1  0  0.129284  0  3.709338  0  0  0.097856  0  3.958096  0  0  0.105064  0  3.977463  0  0  0.039685  0.093241  0  3.944788  0
C  C35  1  0.84016628  0.29472364  0.28922768  1  0  -0.161599  0  3.70091  0  0  -0.178052  0  3.946121  0  0  -0.186547  0  3.967345  0  0  -0.082007  -0.172514  0  3.932017  0
C  C36  1  0.15983156  0.70527044  0.71077601  1  0  -0.161465  0  3.700778  0  0  -0.17792  0  3.945958  0  0  -0.186416  0  3.96718  0  0  -0.081983  -0.172378  0  3.931845  0
C  C37  1  0.88045728  0.42207878  0.19777534  1  0  0.145497  0  3.720009  0  0  0.153828  0  3.963105  0  0  0.159533  0  3.985282  0  0  0.015156  0.150123  0  3.948029  0
C  C38  1  0.11952832  0.57791773  0.80222309  1  0  0.145445  0  3.719851  0  0  0.153765  0  3.962974  0  0  0.159472  0  3.985154  0  0  0.015107  0.150059  0  3.947905  0
C  C39  1  0.82722568  0.56214818  0.20928428  1  0  -0.175747  0  3.70886  0  0  -0.19423  0  3.958019  0  0  -0.202836  0  3.980115  0  0  -0.085911  -0.18872  0  3.943268  0
C  C40  1  0.17275837  0.43785381  0.79071021  1  0  -0.175845  0  3.70907  0  0  -0.194325  0  3.958229  0  0  -0.20293  0  3.980313  0  0  -0.085968  -0.18884  0  3.943472  0
C  C41  1  0.73504919  0.57110635  0.30613575  1  0  0.139051  0  3.708606  0  0  0.107698  0  3.960291  0  0  0.115568  0  3.977997  0  0  0.045493  0.102612  0  3.948195  0
C  C42  1  0.26495022  0.42888451  0.69387276  1  0  0.139007  0  3.708496  0  0  0.107636  0  3.960227  0  0  0.115531  0  3.977944  0  0  0.045473  0.102549  0  3.94814  0
C  C43  1  0.96863162  0.40874988  0.08957850  1  0  -0.082219  0  3.559618  0  0  -0.096871  0  3.795712  0  0  -0.098632  0  3.808597  0  0  -0.082026  -0.095681  0  3.786957  0
C  C44  1  0.03135732  0.59125340  0.91041454  1  0  -0.08231  0  3.559607  0  0  -0.096918  0  3.795628  0  0  -0.098697  0  3.808533  0  0  -0.081994  -0.09573  0  3.786869  0
N  N45  1  0.34893908  0.48701821  0.36446064  1  0  -0.336372  0  3.289386  0  0  -0.257281  0  3.55387  0  0  -0.277409  0  3.573558  0  0  -0.325076  -0.243454  0  3.540037  0
N  N46  1  0.65106860  0.51297379  0.63553936  1  0  -0.336301  0  3.289444  0  0  -0.257188  0  3.553902  0  0  -0.277313  0  3.57358  0  0  -0.325026  -0.24336  0  3.540066  0
N  N47  1  0.73406467  0.06355365  0.72668311  1  0  0.725438  0  4.100197  0  0  0.743253  0  4.414353  0  0  0.771622  0  4.418986  0  0  0.10085  0.724135  0  4.410777  0
N  N48  1  0.26596424  0.93646292  0.27329446  1  0  0.725632  0  4.099902  0  0  0.743486  0  4.413996  0  0  0.771853  0  4.418626  0  0  0.100976  0.724366  0  4.41043  0
N  N49  1  0.69109910  0.45142923  0.38954649  1  0  -0.329875  0  3.279713  0  0  -0.251113  0  3.546062  0  0  -0.271166  0  3.564764  0  0  -0.326905  -0.237374  0  3.532977  0
N  N50  1  0.30891052  0.54855654  0.61046925  1  0  -0.32971  0  3.279539  0  0  -0.251084  0  3.546045  0  0  -0.271137  0  3.56473  0  0  -0.32682  -0.237344  0  3.532958  0
O  O51  1  0.59932603  0.21437350  0.67754256  1  0  -0.541826  0  1.857649  0  0  -0.511125  0  2.112219  0  0  -0.52888  0  2.100476  0  0  -0.215641  -0.498654  0  2.119955  0
O  O52  1  0.40068368  0.78563033  0.32246508  1  0  -0.541734  0  1.857552  0  0  -0.511093  0  2.112174  0  0  -0.528874  0  2.100494  0  0  -0.215646  -0.498613  0  2.119875  0
O  O53  1  0.74959554  0.99469505  0.66026122  1  0  -0.468992  0  1.741004  0  0  -0.458308  0  1.953406  0  0  -0.471662  0  1.94682  0  0  -0.186994  -0.448899  0  1.957839  0
O  O54  1  0.25036691  0.00531271  0.33973120  1  0  -0.468981  0  1.740958  0  0  -0.458461  0  1.953492  0  0  -0.471804  0  1.946895  0  0  -0.187  -0.449017  0  1.957886  0
O  O55  1  0.84515724  0.98817990  0.84090862  1  0  -0.453385  0  1.693194  0  0  -0.448259  0  1.895379  0  0  -0.460159  0  1.887622  0  0  -0.191752  -0.43989  0  1.900761  0
O  O56  1  0.15494148  0.01187032  0.15901138  1  0  -0.453633  0  1.692977  0  0  -0.448387  0  1.895044  0  0  -0.46029  0  1.8873  0  0  -0.191872  -0.440024  0  1.900427  0
