# generated using pymatgen
data_CdH9C13NCl2
_symmetry_space_group_name_H-M   'P 1'
_cell_length_a   7.09889301
_cell_length_b   10.05272558
_cell_length_c   10.08747435
_cell_angle_alpha   119.88459415
_cell_angle_beta   107.10826327
_cell_angle_gamma   89.99857219
_symmetry_Int_Tables_number   1
_chemical_formula_structural   CdH9C13NCl2
_chemical_formula_sum   'Cd2 H18 C26 N2 Cl4'
_cell_volume   587.13220926
_cell_formula_units_Z   2
loop_
 _symmetry_equiv_pos_site_id
 _symmetry_equiv_pos_as_xyz
  1  'x, y, z'
loop_
 _atom_site_type_symbol
 _atom_site_label
 _atom_site_symmetry_multiplicity
 _atom_site_fract_x
 _atom_site_fract_y
 _atom_site_fract_z
 _atom_site_occupancy
 _atom_site_hle17_bader_spin_density
 _atom_site_hle17_ddec_charge
 _atom_site_hle17_ddec_spin_density
 _atom_site_hle17_ddec_sum_bond_order
 _atom_site_hle17_magmom
 _atom_site_hse06_10hf_bader_spin_density
 _atom_site_hse06_10hf_ddec_charge
 _atom_site_hse06_10hf_ddec_spin_density
 _atom_site_hse06_10hf_ddec_sum_bond_order
 _atom_site_hse06_10hf_magmom
 _atom_site_hse06_bader_spin_density
 _atom_site_hse06_ddec_charge
 _atom_site_hse06_ddec_spin_density
 _atom_site_hse06_ddec_sum_bond_order
 _atom_site_hse06_magmom
 _atom_site_pbe_bader_spin_density
 _atom_site_pbe_cm5_charge
 _atom_site_pbe_ddec_charge
 _atom_site_pbe_ddec_spin_density
 _atom_site_pbe_ddec_sum_bond_order
 _atom_site_pbe_magmom
Cd  Cd0  1  0.25000380  0.92793234  0.99999893  1  0  0.952475  0  1.958721  0  0  0.790261  0  2.426145  0  0  0.836713  0  2.384262  0  0  0.584949  0.758818  0  2.453235  0
Cd  Cd1  1  0.75000027  0.07206874  0.00000319  1  0  0.952443  0  1.958753  0  0  0.790219  0  2.426207  0  0  0.836668  0  2.384325  0  0  0.584934  0.758774  0  2.453298  0
H  H2  1  0.00298462  0.67713916  0.73182049  1  0  0.089693  0  0.997289  0  0  0.099252  0  1.06793  0  0  0.102115  0  1.066506  0  0  0.087758  0.098026  0  1.06778  0
H  H3  1  0.49702332  0.94530010  0.26817341  1  0  0.089746  0  0.997347  0  0  0.099303  0  1.067975  0  0  0.102168  0  1.066549  0  0  0.087778  0.098081  0  1.067822  0
H  H4  1  0.99702146  0.32286996  0.26817900  1  0  0.089714  0  0.997411  0  0  0.09931  0  1.067999  0  0  0.102174  0  1.066574  0  0  0.087777  0.098087  0  1.067846  0
H  H5  1  0.50298657  0.05468805  0.73182072  1  0  0.089722  0  0.997289  0  0  0.099287  0  1.06792  0  0  0.102151  0  1.066496  0  0  0.087786  0.098062  0  1.067767  0
H  H6  1  0.79387281  0.43412348  0.48885332  1  0  0.091785  0  0.953185  0  0  0.105014  0  1.010377  0  0  0.107052  0  1.009826  0  0  0.098514  0.102815  0  1.011622  0
H  H7  1  0.70613156  0.94525298  0.51114858  1  0  0.091735  0  0.953386  0  0  0.104964  0  1.010558  0  0  0.107004  0  1.010006  0  0  0.098505  0.102766  0  1.011804  0
H  H8  1  0.20613292  0.56588460  0.51115252  1  0  0.091734  0  0.953211  0  0  0.105022  0  1.010344  0  0  0.107064  0  1.009792  0  0  0.098523  0.102825  0  1.011588  0
H  H9  1  0.29387179  0.05473872  0.48884588  1  0  0.091824  0  0.95324  0  0  0.104981  0  1.010481  0  0  0.107016  0  1.009943  0  0  0.098524  0.102782  0  1.011727  0
H  H10  1  0.00931386  0.17363653  0.71876377  1  0  0.09795  0  0.976454  0  0  0.107318  0  1.042371  0  0  0.110109  0  1.040689  0  0  0.090538  0.105901  0  1.042497  0
H  H11  1  0.49070991  0.45487575  0.28126545  1  0  0.097952  0  0.976506  0  0  0.107379  0  1.042352  0  0  0.110142  0  1.0407  0  0  0.090604  0.105966  0  1.042476  0
H  H12  1  0.99067551  0.82636463  0.28123425  1  0  0.09804  0  0.97662  0  0  0.107413  0  1.042502  0  0  0.110212  0  1.04081  0  0  0.090603  0.105998  0  1.042628  0
H  H13  1  0.50928099  0.54511960  0.71873207  1  0  0.097904  0  0.976313  0  0  0.107297  0  1.042224  0  0  0.110085  0  1.040546  0  0  0.09058  0.105881  0  1.042349  0
H  H14  1  0.79726323  0.18306036  0.47712075  1  0  0.095929  0  0.958391  0  0  0.106332  0  1.019959  0  0  0.108905  0  1.019735  0  0  0.094318  0.103915  0  1.021086  0
H  H15  1  0.70275390  0.70593241  0.52289778  1  0  0.095941  0  0.958335  0  0  0.106306  0  1.019949  0  0  0.10888  0  1.019721  0  0  0.094322  0.103892  0  1.021074  0
H  H16  1  0.20273518  0.81694770  0.52287956  1  0  0.095924  0  0.958346  0  0  0.106303  0  1.019951  0  0  0.108876  0  1.019728  0  0  0.094332  0.103892  0  1.021076  0
H  H17  1  0.29724411  0.29406167  0.47709768  1  0  0.095985  0  0.958211  0  0  0.106323  0  1.019875  0  0  0.108898  0  1.019645  0  0  0.094317  0.103906  0  1.020999  0
H  H18  1  0.25000919  0.31122196  0.00001254  1  0  0.107596  0  0.934775  0  0  0.116394  0  1.003269  0  0  0.119058  0  1.000834  0  0  0.105136  0.114561  0  1.004183  0
H  H19  1  0.74998313  0.68877917  0.99998511  1  0  0.107549  0  0.934838  0  0  0.116354  0  1.003322  0  0  0.119028  0  1.000859  0  0  0.10514  0.114524  0  1.004234  0
C  C20  1  0.13216313  0.56624843  0.86742943  1  0  0.223327  0  3.777036  0  0  0.217842  0  4.014581  0  0  0.228307  0  4.036715  0  0  0.113803  0.210363  0  4.000681  0
C  C21  1  0.36785069  0.69882456  0.13257968  1  0  0.223389  0  3.777007  0  0  0.218026  0  4.014363  0  0  0.228496  0  4.036498  0  0  0.113891  0.210539  0  4.000478  0
C  C22  1  0.86784074  0.43374567  0.13257026  1  0  0.223302  0  3.777091  0  0  0.217947  0  4.014476  0  0  0.228417  0  4.036609  0  0  0.113919  0.210463  0  4.000585  0
C  C23  1  0.63215418  0.30118577  0.86742212  1  0  0.223359  0  3.777112  0  0  0.218017  0  4.014444  0  0  0.228486  0  4.036575  0  0  0.113914  0.210533  0  4.000549  0
C  C24  1  0.00676364  0.56733920  0.72935274  1  0  -0.174565  0  3.730651  0  0  -0.190914  0  3.978964  0  0  -0.199524  0  4.001186  0  0  -0.100081  -0.186591  0  3.964926  0
C  C25  1  0.49323927  0.83798436  0.27065543  1  0  -0.174612  0  3.730644  0  0  -0.190978  0  3.97888  0  0  -0.199593  0  4.0011  0  0  -0.100074  -0.186656  0  3.964852  0
C  C26  1  0.99324375  0.43265716  0.27064582  1  0  -0.174521  0  3.73094  0  0  -0.190933  0  3.97921  0  0  -0.199545  0  4.001428  0  0  -0.100068  -0.186609  0  3.965177  0
C  C27  1  0.50676416  0.16202023  0.72934824  1  0  -0.174588  0  3.730671  0  0  -0.190987  0  3.978902  0  0  -0.199598  0  4.001122  0  0  -0.100166  -0.186664  0  3.964865  0
C  C28  1  0.13015245  0.42021971  0.86262155  1  0  0.008388  0  3.781889  0  0  0.02643  0  4.013219  0  0  0.020468  0  4.037966  0  0  -0.006173  0.030001  0  3.996814  0
C  C29  1  0.36986109  0.55759069  0.13739122  1  0  0.008441  0  3.782051  0  0  0.026456  0  4.013343  0  0  0.020491  0  4.03809  0  0  -0.006105  0.030026  0  3.996942  0
C  C30  1  0.86983597  0.57978953  0.13737423  1  0  0.008458  0  3.781867  0  0  0.026446  0  4.013202  0  0  0.020479  0  4.037956  0  0  -0.006195  0.030014  0  3.996803  0
C  C31  1  0.63012657  0.44239784  0.86261223  1  0  0.008202  0  3.782564  0  0  0.026234  0  4.013787  0  0  0.020266  0  4.038538  0  0  -0.006154  0.029808  0  3.99738  0
C  C32  1  0.88957702  0.43178792  0.59392252  1  0  -0.020488  0  3.741298  0  0  -0.035109  0  3.986954  0  0  -0.032332  0  4.007525  0  0  -0.077701  -0.035687  0  3.974152  0
C  C33  1  0.61042751  0.83785861  0.40609129  1  0  -0.020436  0  3.741342  0  0  -0.03505  0  3.986968  0  0  -0.032268  0  4.007539  0  0  -0.077677  -0.03563  0  3.974171  0
C  C34  1  0.11041862  0.56820850  0.40607257  1  0  -0.020465  0  3.741219  0  0  -0.035141  0  3.986883  0  0  -0.032365  0  4.007457  0  0  -0.077703  -0.035722  0  3.974087  0
C  C35  1  0.38957581  0.16213315  0.59390715  1  0  -0.020535  0  3.741428  0  0  -0.035063  0  3.987011  0  0  -0.032284  0  4.007588  0  0  -0.077664  -0.035639  0  3.974208  0
C  C36  1  0.00721398  0.28242536  0.71948505  1  0  -0.088309  0  3.7227  0  0  -0.107787  0  3.968579  0  0  -0.107941  0  3.990632  0  0  -0.084213  -0.106911  0  3.952983  0
C  C37  1  0.49281259  0.56294098  0.28053485  1  0  -0.088503  0  3.722633  0  0  -0.108037  0  3.968522  0  0  -0.108162  0  3.990585  0  0  -0.084418  -0.107159  0  3.95293  0
C  C38  1  0.99278532  0.71758611  0.28051214  1  0  -0.088594  0  3.72297  0  0  -0.108083  0  3.968866  0  0  -0.108243  0  3.990916  0  0  -0.084368  -0.107208  0  3.953278  0
C  C39  1  0.50719358  0.43705090  0.71947219  1  0  -0.088265  0  3.722441  0  0  -0.107774  0  3.968323  0  0  -0.107923  0  3.99038  0  0  -0.084304  -0.106897  0  3.952726  0
C  C40  1  0.89059746  0.28772462  0.58755719  1  0  -0.069546  0  3.758027  0  0  -0.084774  0  4.010812  0  0  -0.090234  0  4.034183  0  0  -0.091009  -0.082249  0  3.996288  0
C  C41  1  0.60941922  0.70016546  0.41246454  1  0  -0.069335  0  3.757655  0  0  -0.084543  0  4.01049  0  0  -0.090006  0  4.033851  0  0  -0.090902  -0.082021  0  3.995973  0
C  C42  1  0.10939654  0.71228347  0.41244220  1  0  -0.069401  0  3.757822  0  0  -0.084606  0  4.01063  0  0  -0.090069  0  4.034005  0  0  -0.090953  -0.082087  0  3.996115  0
C  C43  1  0.39057874  0.29982872  0.58753690  1  0  -0.069494  0  3.757601  0  0  -0.084692  0  4.010412  0  0  -0.090153  0  4.033782  0  0  -0.090968  -0.082166  0  3.995888  0
C  C44  1  0.25001879  0.41987831  0.00001237  1  0  -0.056387  0  3.625158  0  0  -0.090358  0  3.878039  0  0  -0.08374  0  3.892561  0  0  -0.053047  -0.093969  0  3.86809  0
C  C45  1  0.74997824  0.58012394  0.99998583  1  0  -0.056229  0  3.625332  0  0  -0.090198  0  3.878185  0  0  -0.083575  0  3.892708  0  0  -0.053029  -0.093811  0  3.868236  0
N  N46  1  0.25000442  0.69995190  0.00000575  1  0  -0.423041  0  3.224138  0  0  -0.345862  0  3.483075  0  0  -0.371606  0  3.503621  0  0  -0.334644  -0.329605  0  3.470155  0
N  N47  1  0.75000203  0.30005230  0.00000196  1  0  -0.422975  0  3.224194  0  0  -0.345867  0  3.483127  0  0  -0.371606  0  3.503662  0  0  -0.334703  -0.329609  0  3.470204  0
Cl  Cl48  1  0.51909903  0.16810821  0.19130631  1  0  -0.544555  0  1.023728  0  0  -0.478919  0  1.310255  0  0  -0.49724  0  1.288776  0  0  -0.277033  -0.464584  0  1.323267  0
Cl  Cl49  1  0.98088923  0.97680091  0.80868572  1  0  -0.544555  0  1.023698  0  0  -0.478934  0  1.310258  0  0  -0.497247  0  1.28876  0  0  -0.277038  -0.464599  0  1.32327  0
Cl  Cl50  1  0.48090447  0.83189057  0.80869656  1  0  -0.544559  0  1.023739  0  0  -0.478916  0  1.310257  0  0  -0.497244  0  1.288783  0  0  -0.277044  -0.464581  0  1.323271  0
Cl  Cl51  1  0.01911280  0.02319787  0.19131584  1  0  -0.544548  0  1.023701  0  0  -0.478903  0  1.310215  0  0  -0.497228  0  1.288738  0  0  -0.277032  -0.464567  0  1.323226  0
