# generated using pymatgen
data_CdH16C16Br4(NO)6
_symmetry_space_group_name_H-M   'P 1'
_cell_length_a   8.76972468
_cell_length_b   9.47732964
_cell_length_c   8.03734377
_cell_angle_alpha   78.30767834
_cell_angle_beta   88.32071819
_cell_angle_gamma   68.39002561
_symmetry_Int_Tables_number   1
_chemical_formula_structural   CdH16C16Br4(NO)6
_chemical_formula_sum   'Cd1 H16 C16 Br4 N6 O6'
_cell_volume   607.41801968
_cell_formula_units_Z   1
loop_
 _symmetry_equiv_pos_site_id
 _symmetry_equiv_pos_as_xyz
  1  'x, y, z'
loop_
 _atom_site_type_symbol
 _atom_site_label
 _atom_site_symmetry_multiplicity
 _atom_site_fract_x
 _atom_site_fract_y
 _atom_site_fract_z
 _atom_site_occupancy
 _atom_site_hle17_bader_spin_density
 _atom_site_hle17_ddec_charge
 _atom_site_hle17_ddec_spin_density
 _atom_site_hle17_ddec_sum_bond_order
 _atom_site_hle17_magmom
 _atom_site_hse06_10hf_bader_spin_density
 _atom_site_hse06_10hf_ddec_charge
 _atom_site_hse06_10hf_ddec_spin_density
 _atom_site_hse06_10hf_ddec_sum_bond_order
 _atom_site_hse06_10hf_magmom
 _atom_site_hse06_bader_spin_density
 _atom_site_hse06_ddec_charge
 _atom_site_hse06_ddec_spin_density
 _atom_site_hse06_ddec_sum_bond_order
 _atom_site_hse06_magmom
 _atom_site_pbe_bader_spin_density
 _atom_site_pbe_cm5_charge
 _atom_site_pbe_ddec_charge
 _atom_site_pbe_ddec_spin_density
 _atom_site_pbe_ddec_sum_bond_order
 _atom_site_pbe_magmom
Cd  Cd0  1  0.50000814  0.49999224  0.49999942  1  0  1.214508  0  1.618671  0  0  1.034766  0  2.058605  0  0  1.087827  0  2.005364  0  0  0.786096  0.996932  0  2.095126  0
H  H1  1  0.81639288  0.59445748  0.69148876  1  0  0.091348  0  0.977047  0  0  0.093226  0  1.060126  0  0  0.096652  0  1.054944  0  0  0.122035  0.09069  0  1.063795  0
H  H2  1  0.18360277  0.40555226  0.30850049  1  0  0.091366  0  0.9769  0  0  0.093234  0  1.060004  0  0  0.096663  0  1.054821  0  0  0.122007  0.090697  0  1.063673  0
H  H3  1  0.59381780  0.75714996  0.19780046  1  0  0.084321  0  0.998073  0  0  0.086064  0  1.074033  0  0  0.088485  0  1.071348  0  0  0.117127  0.084242  0  1.076017  0
H  H4  1  0.40620088  0.24282284  0.80219906  1  0  0.084176  0  0.99816  0  0  0.085982  0  1.07409  0  0  0.088403  0  1.071407  0  0  0.117113  0.084162  0  1.076065  0
H  H5  1  0.08468972  0.74410567  0.46258558  1  0  0.096085  0  0.938911  0  0  0.110797  0  1.001184  0  0  0.111965  0  1.00078  0  0  0.108686  0.109764  0  1.001657  0
H  H6  1  0.91529690  0.25590803  0.53742429  1  0  0.095977  0  0.938906  0  0  0.1107  0  1.001133  0  0  0.11187  0  1.000723  0  0  0.108656  0.109735  0  1.001536  0
H  H7  1  0.99502002  0.76053402  0.66275708  1  0  0.065238  0  0.965276  0  0  0.075225  0  1.043101  0  0  0.075598  0  1.043364  0  0  0.096394  0.074871  0  1.042973  0
H  H8  1  0.00495267  0.23949086  0.33724053  1  0  0.06523  0  0.9652  0  0  0.0752  0  1.043006  0  0  0.075574  0  1.043264  0  0  0.096435  0.074854  0  1.04289  0
H  H9  1  0.81745378  0.03920045  0.53855782  1  0  0.071622  0  0.948672  0  0  0.084876  0  1.015296  0  0  0.086299  0  1.014966  0  0  0.084233  0.083776  0  1.01563  0
H  H10  1  0.18251991  0.96081820  0.46142655  1  0  0.071672  0  0.948569  0  0  0.084972  0  1.015181  0  0  0.086393  0  1.014855  0  0  0.084297  0.083877  0  1.015513  0
H  H11  1  0.89997740  0.01642875  0.33780355  1  0  0.077716  0  0.940324  0  0  0.092302  0  1.004141  0  0  0.092392  0  1.005936  0  0  0.090079  0.09218  0  1.002969  0
H  H12  1  0.10000228  0.98358059  0.66218059  1  0  0.077777  0  0.940307  0  0  0.092387  0  1.004147  0  0  0.092476  0  1.005943  0  0  0.090149  0.092267  0  1.002977  0
H  H13  1  0.60501355  0.34177586  0.18112143  1  0  0.429904  0  0.846744  0  0  0.403216  0  0.906619  0  0  0.413698  0  0.891353  0  0  0.291487  0.395761  0  0.917471  0
H  H14  1  0.39498696  0.65821856  0.81886314  1  0  0.430042  0  0.846581  0  0  0.403355  0  0.906427  0  0  0.413835  0  0.891162  0  0  0.291543  0.395902  0  0.917276  0
H  H15  1  0.55317318  0.51979601  0.16017568  1  0  0.409904  0  0.900719  0  0  0.377695  0  0.967484  0  0  0.389079  0  0.950902  0  0  0.278604  0.369666  0  0.979141  0
H  H16  1  0.44682724  0.48020224  0.83982027  1  0  0.409897  0  0.900728  0  0  0.377696  0  0.967473  0  0  0.389077  0  0.950903  0  0  0.278602  0.369668  0  0.979126  0
C  C17  1  0.78002038  0.65574658  0.56098929  1  0  0.163358  0  3.666992  0  0  0.086746  0  3.929166  0  0  0.100986  0  3.940826  0  0  0.150276  0.077752  0  3.920873  0
C  C18  1  0.21997448  0.34425180  0.43901443  1  0  0.163332  0  3.66727  0  0  0.08674  0  3.929461  0  0  0.100984  0  3.941122  0  0  0.150359  0.07775  0  3.921161  0
C  C19  1  0.66903201  0.74066680  0.30998837  1  0  0.184303  0  3.750575  0  0  0.130684  0  4.044569  0  0  0.142083  0  4.058199  0  0  0.12812  0.123246  0  4.035131  0
C  C20  1  0.33097590  0.25931280  0.69000865  1  0  0.184396  0  3.750289  0  0  0.130707  0  4.044305  0  0  0.142111  0  4.057918  0  0  0.128163  0.123263  0  4.034893  0
C  C21  1  0.97283237  0.80372425  0.52483841  1  0  -0.014741  0  3.612882  0  0  -0.089501  0  3.869472  0  0  -0.086304  0  3.88113  0  0  -0.056405  -0.091265  0  3.861366  0
C  C22  1  0.02714291  0.19629724  0.47516249  1  0  -0.014733  0  3.612689  0  0  -0.08929  0  3.869069  0  0  -0.086082  0  3.880712  0  0  -0.056452  -0.091124  0  3.861016  0
C  C23  1  0.92875145  0.97874530  0.47576308  1  0  -0.119469  0  3.661436  0  0  -0.155696  0  3.918298  0  0  -0.15737  0  3.932359  0  0  -0.166391  -0.154361  0  3.908471  0
C  C24  1  0.07122305  0.02127481  0.52423080  1  0  -0.119412  0  3.661446  0  0  -0.1559  0  3.918476  0  0  -0.157566  0  3.932522  0  0  -0.166468  -0.154572  0  3.908678  0
C  C25  1  0.69357472  0.25076785  0.85477551  1  0  0.663802  0  3.959653  0  0  0.605178  0  4.272079  0  0  0.639136  0  4.264363  0  0  0.199349  0.582182  0  4.276416  0
C  C26  1  0.30643791  0.74923812  0.14523740  1  0  0.663673  0  3.95964  0  0  0.604976  0  4.272195  0  0  0.638935  0  4.264479  0  0  0.199243  0.58198  0  4.276528  0
C  C27  1  0.85075348  0.11984638  0.93313291  1  0  -0.102986  0  3.722726  0  0  -0.097825  0  3.974813  0  0  -0.100581  0  3.991118  0  0  -0.02016  -0.096415  0  3.964378  0
C  C28  1  0.14926162  0.88014999  0.06687136  1  0  -0.102714  0  3.722248  0  0  -0.097588  0  3.974367  0  0  -0.100345  0  3.990684  0  0  -0.020063  -0.096185  0  3.963938  0
C  C29  1  0.98000903  0.15332546  0.99077588  1  0  0.040559  0  3.691983  0  0  0.03623  0  3.973032  0  0  0.040358  0  3.991037  0  0  -0.020035  0.033275  0  3.961199  0
C  C30  1  0.02000455  0.84667024  0.00924736  1  0  0.040345  0  3.691676  0  0  0.036025  0  3.97281  0  0  0.040151  0  3.990805  0  0  -0.020168  0.033071  0  3.960982  0
C  C31  1  0.12850176  0.03523767  0.05687467  1  0  0.039396  0  3.695272  0  0  0.037015  0  3.976363  0  0  0.041044  0  3.99454  0  0  -0.01785  0.034135  0  3.964399  0
C  C32  1  0.87151279  0.96477169  0.94313219  1  0  0.039729  0  3.695088  0  0  0.037253  0  3.976291  0  0  0.041295  0  3.994454  0  0  -0.017793  0.03437  0  3.964319  0
Br  Br33  1  0.94721520  0.36465360  0.97695507  1  0  -0.026755  0  1.513484  0  0  -0.018053  0  1.820069  0  0  -0.020602  0  1.807361  0  0  0.068876  -0.016326  0  1.829147  0
Br  Br34  1  0.05280845  0.63533401  0.02306733  1  0  -0.026734  0  1.513399  0  0  -0.018006  0  1.819969  0  0  -0.020557  0  1.807263  0  0  0.06889  -0.01628  0  1.829046  0
Br  Br35  1  0.30567191  0.08036102  0.13076740  1  0  0.004017  0  1.378906  0  0  0.008881  0  1.654572  0  0  0.006885  0  1.645295  0  0  0.090577  0.010245  0  1.661173  0
Br  Br36  1  0.69435872  0.91962696  0.86922209  1  0  0.003874  0  1.378896  0  0  0.008783  0  1.654584  0  0  0.006779  0  1.645305  0  0  0.090518  0.010147  0  1.661186  0
N  N37  1  0.66923879  0.64228615  0.46018669  1  0  -0.421432  0  3.189078  0  0  -0.343437  0  3.472993  0  0  -0.366619  0  3.486676  0  0  -0.350931  -0.327624  0  3.46305  0
N  N38  1  0.33076152  0.35769794  0.53980704  1  0  -0.421455  0  3.18914  0  0  -0.34346  0  3.47307  0  0  -0.366637  0  3.486747  0  0  -0.351001  -0.327648  0  3.463123  0
N  N39  1  0.84190459  0.75779549  0.47379332  1  0  0.044502  0  3.553261  0  0  0.166833  0  3.739571  0  0  0.157115  0  3.76282  0  0  -0.130781  0.172491  0  3.724866  0
N  N40  1  0.15808578  0.24221089  0.52620469  1  0  0.044511  0  3.553412  0  0  0.166739  0  3.739717  0  0  0.156978  0  3.763041  0  0  -0.130861  0.172403  0  3.725036  0
N  N41  1  0.77225047  0.81297125  0.31324937  1  0  -0.270863  0  2.894034  0  0  -0.271345  0  3.164669  0  0  -0.281014  0  3.180464  0  0  -0.226561  -0.264678  0  3.154036  0
N  N42  1  0.22774005  0.18702340  0.68674946  1  0  -0.270762  0  2.893944  0  0  -0.271215  0  3.164622  0  0  -0.280872  0  3.180416  0  0  -0.226486  -0.264548  0  3.153988  0
O  O43  1  0.69307006  0.29592953  0.69498643  1  0  -0.6389  0  2.007734  0  0  -0.574637  0  2.260884  0  0  -0.60407  0  2.250968  0  0  -0.318697  -0.553734  0  2.266812  0
O  O44  1  0.30694641  0.70405531  0.30502476  1  0  -0.638858  0  2.007754  0  0  -0.574533  0  2.260912  0  0  -0.603964  0  2.250991  0  0  -0.318613  -0.553617  0  2.266825  0
O  O45  1  0.60958673  0.41999136  0.24262053  1  0  -0.847909  0  1.847157  0  0  -0.790681  0  2.031422  0  0  -0.812224  0  1.997791  0  0  -0.599987  -0.775337  0  2.054768  0
O  O46  1  0.39040844  0.58000555  0.75737239  1  0  -0.848041  0  1.847079  0  0  -0.790805  0  2.031291  0  0  -0.81235  0  1.997655  0  0  -0.600027  -0.775463  0  2.054637  0
O  O47  1  0.57964391  0.30195499  0.95261305  1  0  -0.630367  0  1.9735  0  0  -0.571234  0  2.189262  0  0  -0.596965  0  2.178465  0  0  -0.311082  -0.553068  0  2.196095  0
O  O48  1  0.42036216  0.69804132  0.04739429  1  0  -0.630447  0  1.973529  0  0  -0.571275  0  2.189303  0  0  -0.597005  0  2.178503  0  0  -0.311101  -0.553108  0  2.196134  0
