# generated using pymatgen
data_Al6H51C100N7O36
_symmetry_space_group_name_H-M   'P 1'
_cell_length_a   12.83806861
_cell_length_b   12.68269401
_cell_length_c   27.69986305
_cell_angle_alpha   90.85157071
_cell_angle_beta   89.63625214
_cell_angle_gamma   60.71584192
_symmetry_Int_Tables_number   1
_chemical_formula_structural   Al6H51C100N7O36
_chemical_formula_sum   'Al6 H51 C100 N7 O36'
_cell_volume   3932.83975986
_cell_formula_units_Z   1
loop_
 _symmetry_equiv_pos_site_id
 _symmetry_equiv_pos_as_xyz
  1  'x, y, z'
loop_
 _atom_site_type_symbol
 _atom_site_label
 _atom_site_symmetry_multiplicity
 _atom_site_fract_x
 _atom_site_fract_y
 _atom_site_fract_z
 _atom_site_occupancy
 _atom_site_pbe_bader_charge
 _atom_site_pbe_bader_spin_density
 _atom_site_pbe_cm5_charge
 _atom_site_pbe_ddec_charge
 _atom_site_pbe_ddec_spin_density
 _atom_site_pbe_ddec_sum_bond_order
 _atom_site_pbe_magmom
Al  Al0  1  0.40841098  0.16768014  0.49917203  1  2.495999  0  0.392683  1.685279  0  2.568124  0
Al  Al1  1  0.43706232  0.90276062  0.50175128  1  2.478879  0  0.509006  1.662389  0  2.502918  0
Al  Al2  1  0.66023484  0.92350556  0.49783802  1  2.47998  0  0.503298  1.661079  0  2.508459  0
Al  Al3  1  0.90995547  0.16789476  0.98563431  1  2.496611  0  0.39323  1.693873  0  2.564476  0
Al  Al4  1  0.67346467  0.42723128  0.98370881  1  2.478844  0  0.505217  1.660218  0  2.507269  0
Al  Al5  1  0.90965481  0.41973524  0.98647476  1  2.484795  0  0.508401  1.657161  0  2.501868  0
H  H6  1  0.45592083  0.74646638  0.21072460  1  0.113669  0  0.106074  0.112092  0  1.009037  0
H  H7  1  0.61098246  0.52500722  0.85602305  1  0.100546  0  0.112767  0.11516  0  1.026067  0
H  H8  1  0.58792472  0.55396527  0.27461688  1  0.071778  0  0.110275  0.106895  0  0.982664  0
H  H9  1  0.52533336  0.67201215  0.61891993  1  0.072042  0  0.113408  0.11908  0  0.987853  0
H  H10  1  0.47967189  0.58599649  0.69028433  1  0.037262  0  0.107448  0.123869  0  0.985526  0
H  H11  1  0.89011959  0.77408110  0.70452338  1  0.101343  0  0.11176  0.115751  0  1.004075  0
H  H12  1  0.78181139  0.79699810  0.62781891  1  0.113456  0  0.10555  0.10967  0  1.037857  0
H  H13  1  0.87497892  0.10566124  0.85588398  1  0.125383  0  0.107826  0.119017  0  1.014222  0
H  H14  1  0.97070587  0.01239670  0.77713297  1  0.02394  0  0.098588  0.104835  0  1.008101  0
H  H15  1  0.52481384  0.89493803  0.26524008  1  0.077207  0  0.104605  0.099674  0  0.990124  0
H  H16  1  0.95497228  0.97244308  0.69232072  1  0.039998  0  0.100321  0.089115  0  1.016327  0
H  H17  1  0.50858219  0.13005444  0.19558987  1  0.07537  0  0.095178  0.092176  0  1.044347  0
H  H18  1  0.49425065  0.33863460  0.86705820  1  0.06381  0  0.104131  0.114515  0  0.999151  0
H  H19  1  0.36525261  0.35746135  0.79572228  1  0.071659  0  0.099018  0.108788  0  1.003066  0
H  H20  1  0.34968396  0.33350051  0.70950275  1  0.086689  0  0.094212  0.082655  0  1.070936  0
H  H21  1  0.19882680  0.28664897  0.61878816  1  0.076875  0  0.105206  0.115867  0  1.007863  0
H  H22  1  0.08480860  0.46309651  0.77668082  1  0.089621  0  0.094377  0.086998  0  1.060822  0
H  H23  1  0.11878254  0.42955852  0.68956549  1  0.020586  0  0.092701  0.093338  0  1.010538  0
H  H24  1  0.72989813  0.81389365  0.20385660  1  0.065213  0  0.108417  0.11089  0  0.987978  0
H  H25  1  0.33824994  0.82684538  0.71969518  1  0.027269  0  0.087573  0.101575  0  1.049618  0
H  H26  1  0.32528718  0.90742135  0.63706460  1  0.065965  0  0.096437  0.103655  0  1.027083  0
H  H27  1  0.85162062  0.04017131  0.20647511  1  0.075899  0  0.102432  0.091144  0  0.989454  0
H  H28  1  0.44716514  0.30693289  0.27131846  1  0.049794  0  0.100296  0.088791  0  0.993376  0
H  H29  1  0.79068382  0.21752312  0.28160977  1  0.095214  0  0.105181  0.105709  0  0.996981  0
H  H30  1  0.70192306  0.96287824  0.25192290  1  0.055081  0  0.097311  0.085862  0  1.027447  0
H  H31  1  0.47137675  0.96560481  0.12805756  1  0.627072  0  0.353919  0.391569  0  0.839357  0
H  H32  1  0.51102732  0.49334538  0.81363574  1  0.438492  0  0.295963  0.285042  0  0.986918  0
H  H33  1  0.44812406  0.49761894  0.76083444  1  0.449019  0  0.294271  0.286523  0  0.978904  0
H  H34  1  0.79852817  0.90285321  0.88698006  1  0.62789  0  0.352422  0.396693  0  0.836059  0
H  H35  1  0.07640724  0.75239394  0.78841917  1  0.615587  0  0.345871  0.383176  0  0.852863  0
H  H36  1  0.83458556  0.95171568  0.58116705  1  0.518288  0  0.310965  0.321816  0  0.978079  0
H  H37  1  0.92441477  0.92862744  0.63190758  1  0.441486  0  0.311596  0.30242  0  0.956898  0
H  H38  1  0.42014613  0.28889100  0.58631830  1  0.550189  0  0.316238  0.336609  0  0.965891  0
H  H39  1  0.59812608  0.38426385  0.22655885  1  0.064065  0  0.099119  0.088123  0  1.006587  0
H  H40  1  0.36306361  0.35589591  0.64307748  1  0.438132  0  0.310301  0.299284  0  0.953601  0
H  H41  1  0.07625477  0.47693755  0.84403069  1  0.497842  0  0.293582  0.304167  0  1.011794  0
H  H42  1  0.06833258  0.41905019  0.89931495  1  0.50273  0  0.306892  0.314049  0  0.984463  0
H  H43  1  0.16768282  0.92076216  0.86026875  1  0.47683  0  0.300577  0.291508  0  1.002281  0
H  H44  1  0.09858279  0.02243721  0.90923568  1  0.527402  0  0.311301  0.337447  0  0.962766  0
H  H45  1  0.35036420  0.75498894  0.79470476  1  0.44946  0  0.281111  0.273802  0  1.015356  0
H  H46  1  0.33767176  0.83811512  0.84388445  1  0.410836  0  0.306119  0.297858  0  0.931161  0
H  H47  1  0.94738496  0.60065919  0.24860986  1  0.410552  0  0.303595  0.297421  0  0.946884  0
H  H48  1  0.90715191  0.56854743  0.30198418  1  0.453157  0  0.305621  0.300768  0  0.942779  0
H  H49  1  0.93218074  0.34998330  0.16109228  1  0.613675  0  0.311977  0.348784  0  0.945885  0
H  H50  1  0.14821404  0.34705378  0.22949246  1  0.070432  0  0.101587  0.090681  0  0.991017  0
H  H51  1  0.02536627  0.28006367  0.29813577  1  0.104019  0  0.106531  0.102652  0  0.984369  0
H  H52  1  0.36783832  0.14932101  0.25778634  1  0.090071  0  0.106203  0.103866  0  1.006529  0
H  H53  1  0.22140820  0.93380532  0.25426748  1  0.088103  0  0.109724  0.10751  0  0.975397  0
H  H54  1  0.99943537  0.13409947  0.22721409  1  0.092109  0  0.10622  0.104083  0  1.004195  0
H  H55  1  0.33353237  0.37217513  0.47959175  1  0.580565  0  0.292148  0.38205  0  0.924263  0
H  H56  1  0.00740002  0.96285665  0.00960807  1  0.582557  0  0.296149  0.389349  0  0.912951  0
C  C57  1  0.30059870  0.06308827  0.43125192  1  1.679861  0  0.278508  0.714533  0  4.160476  0
C  C58  1  0.65261020  0.70771612  0.33974823  1  -0.521069  0  -0.014962  -0.005514  0  4.050308  0
C  C59  1  0.81525498  0.44159955  0.21115388  1  1.491125  0  0.224112  0.571774  0  4.169434  0
C  C60  1  0.72854338  0.19757455  0.26218591  1  0.003287  0  -0.067733  -0.071248  0  3.613055  0
C  C61  1  0.62373670  0.76986131  0.43232919  1  1.639967  0  0.283297  0.722612  0  4.150733  0
C  C62  1  0.76207084  0.09917495  0.22143730  1  -0.041262  0  -0.069904  -0.078498  0  3.624308  0
C  C63  1  0.66513291  0.23449927  0.09858638  1  0.143644  0  -0.050147  -0.215412  0  3.983597  0
C  C64  1  0.63589349  0.11888824  0.37995369  1  0.279187  0  -0.04951  -0.214834  0  3.993788  0
C  C65  1  0.62022971  0.29077636  0.23269034  1  -0.014634  0  -0.068942  -0.069973  0  3.626641  0
C  C66  1  0.65370449  0.19317483  0.19063033  1  0.119956  0  0.007514  0.12045  0  3.806058  0
C  C67  1  0.53682194  0.24806589  0.25640832  1  -0.02078  0  -0.073961  -0.087167  0  3.643019  0
C  C68  1  0.64502467  0.15445125  0.28723640  1  0.080171  0  0.005079  0.115686  0  3.820797  0
C  C69  1  0.64677209  0.72353230  0.38348741  1  0.269267  0  -0.04019  -0.207075  0  3.948802  0
C  C70  1  0.57037417  0.14957597  0.21562847  1  -0.019422  0  -0.07467  -0.086942  0  3.631918  0
C  C71  1  0.67881428  0.05646644  0.24533412  1  -0.022393  0  -0.072428  -0.079771  0  3.634269  0
C  C72  1  0.65756242  0.21509290  0.14107416  1  -0.414787  0  -0.023265  -0.027774  0  4.082051  0
C  C73  1  0.61051743  0.09678826  0.42798967  1  1.677264  0  0.275  0.718636  0  4.163467  0
C  C74  1  0.64160910  0.13453578  0.33695508  1  -0.568673  0  -0.023671  -0.028804  0  4.091073  0
C  C75  1  0.09556045  0.21901050  0.27297007  1  -0.025302  0  -0.067688  -0.070295  0  3.614752  0
C  C76  1  0.16386598  0.25559048  0.23587444  1  -0.026468  0  -0.070681  -0.079848  0  3.646391  0
C  C77  1  0.08344462  0.22779874  0.10559575  1  0.101654  0  -0.025136  -0.167789  0  3.913577  0
C  C78  1  0.26417802  0.07185308  0.38173834  1  0.165788  0  -0.040146  -0.194096  0  3.96292  0
C  C79  1  0.08195770  0.13575049  0.23449666  1  0.007974  0  -0.065803  -0.069644  0  3.617048  0
C  C80  1  0.72922344  0.56720118  0.22460299  1  -0.014565  0  -0.005664  -0.131759  0  3.654635  0
C  C81  1  0.14779935  0.17488216  0.19603535  1  0.085948  0  0.016176  0.11239  0  3.779829  0
C  C82  1  0.20357471  0.02637986  0.24917563  1  -0.02697  0  -0.065381  -0.090991  0  3.616425  0
C  C83  1  0.21815099  0.10843785  0.28918287  1  0.117218  0  0.010031  0.122131  0  3.795531  0
C  C84  1  0.27226641  0.06222789  0.21222766  1  0.003378  0  0.004823  -0.0484  0  3.648127  0
C  C85  1  0.30246272  0.07345942  0.57191135  1  1.521274  0  0.27399  0.648384  0  4.067336  0
C  C86  1  0.28573044  0.14620505  0.25074218  1  -0.016275  0  -0.06335  -0.090689  0  3.598795  0
C  C87  1  0.11438103  0.20376156  0.14742255  1  -0.406472  0  -0.02752  -0.062574  0  4.089547  0
C  C88  1  0.24699791  0.08338334  0.33841510  1  -0.465888  0  -0.02716  -0.041187  0  4.072877  0
C  C89  1  0.58862540  0.68626992  0.64026355  1  -0.025476  0  -0.06672  -0.12053  0  3.891653  0
C  C90  1  0.60351629  0.65604826  0.68936090  1  0.016248  0  -0.001813  0.095592  0  4.071443  0
C  C91  1  0.65818109  0.67659962  0.18946675  1  0.091899  0  0.011221  0.117724  0  3.793671  0
C  C92  1  0.62959920  0.60509086  0.78956826  1  -0.016768  0  -0.000551  0.004758  0  3.968862  0
C  C93  1  0.55002065  0.58034327  0.76068069  1  0.402992  0  0.100719  0.252627  0  4.08877  0
C  C94  1  0.53946516  0.60499384  0.71204893  1  0.037084  0  -0.103881  -0.265542  0  3.967669  0
C  C95  1  0.64772029  0.57646426  0.83866197  1  -0.046805  0  -0.078908  -0.135499  0  3.935784  0
C  C96  1  0.71224304  0.61384540  0.86764341  1  0.017078  0  0.001724  -0.035225  0  3.927924  0
C  C97  1  0.62704153  0.77786167  0.56759698  1  1.544977  0  0.278684  0.65366  0  4.068828  0
C  C98  1  0.73285000  0.75745170  0.64510568  1  -0.018653  0  -0.070164  -0.120224  0  3.887616  0
C  C99  1  0.74712646  0.73185937  0.69454557  1  0.037716  0  -0.004578  0.072543  0  4.049278  0
C  C100  1  0.68230816  0.68136730  0.71731734  1  -0.035754  0  0.005376  -0.003286  0  3.919434  0
C  C101  1  0.83082629  0.74822398  0.72274992  1  -0.021654  0  -0.058315  -0.095332  0  3.893356  0
C  C102  1  0.76994875  0.65233582  0.25506654  1  0.512561  0  0.113864  0.262149  0  3.733437  0
C  C103  1  0.84424183  0.72510069  0.77138430  1  0.004136  0  -0.010786  -0.083805  0  3.936526  0
C  C104  1  0.76742567  0.68941241  0.79684205  1  0.017257  0  0.019125  0.065319  0  3.88842  0
C  C105  1  0.69422200  0.65751165  0.76769717  1  0.057346  0  0.010792  0.011826  0  3.91763  0
C  C106  1  0.76096654  0.68341260  0.84797410  1  0.016804  0  -0.001101  -0.089941  0  3.858668  0
C  C107  1  0.65240094  0.73630623  0.61829315  1  -0.01926  0  -0.013803  -0.047151  0  4.006373  0
C  C108  1  0.74734114  0.05651223  0.64054550  1  0.440066  0  0.122421  0.289005  0  4.060392  0
C  C109  1  0.61927198  0.09848359  0.56686375  1  1.460529  0  0.256665  0.649221  0  4.076949  0
C  C110  1  0.75988195  0.08255138  0.68977371  1  0.033311  0  -0.0372  -0.088398  0  4.050581  0
C  C111  1  0.77968319  0.12477037  0.78948576  1  -0.044015  0  -0.00698  0.088685  0  4.044354  0
C  C112  1  0.88324864  0.05120887  0.76048184  1  0.021147  0  -0.101467  -0.143564  0  4.017801  0
C  C113  1  0.65634782  0.69387317  0.28891230  1  0.101981  0  0.009745  0.061761  0  3.790049  0
C  C114  1  0.87284407  0.02985944  0.71274434  1  -0.070812  0  -0.093288  -0.1048  0  4.054112  0
C  C115  1  0.78805093  0.14639160  0.83871017  1  -0.039566  0  -0.090826  -0.164818  0  3.942152  0
C  C116  1  0.68609966  0.22504918  0.86568279  1  -0.03807  0  -0.025623  -0.048909  0  4.079544  0
C  C117  1  0.53436832  0.21686722  0.64368958  1  0.550474  0  0.132661  0.303881  0  4.027225  0
C  C118  1  0.54179599  0.22503457  0.69507856  1  0.022512  0  -0.037376  -0.085885  0  4.043075  0
C  C119  1  0.65530185  0.16208526  0.71712169  1  0.019119  0  0.002725  0.039202  0  3.978766  0
C  C120  1  0.43873962  0.29438497  0.72480085  1  -0.103493  0  -0.09695  -0.113426  0  4.055955  0
C  C121  1  0.61823359  0.61238787  0.25834620  1  0.005701  0  -0.064296  -0.077311  0  3.648042  0
C  C122  1  0.44627691  0.30784008  0.77363629  1  -0.090718  0  -0.109897  -0.174444  0  4.036769  0
C  C123  1  0.56014807  0.25586349  0.79629000  1  -0.056946  0  -0.010974  0.081487  0  4.050622  0
C  C124  1  0.69688871  0.75745133  0.21992724  1  -0.016343  0  -0.07141  -0.146401  0  3.63384  0
C  C125  1  0.66477461  0.18039475  0.76759320  1  -0.019949  0  0.008171  0.010287  0  3.858903  0
C  C126  1  0.57282860  0.27916072  0.84508312  1  -0.004046  0  -0.101744  -0.191868  0  3.982636  0
C  C127  1  0.63533962  0.12435147  0.61686988  1  0.027096  0  -0.043797  -0.306465  0  3.903328  0
C  C128  1  0.21485266  0.21281201  0.64264516  1  -0.082236  0  -0.099893  -0.179661  0  3.968143  0
C  C129  1  0.18862975  0.23495490  0.69224280  1  0.014682  0  -0.011349  0.085778  0  4.055851  0
C  C130  1  0.14302709  0.27533734  0.79349173  1  -0.008285  0  -0.036518  -0.0801  0  4.030606  0
C  C131  1  0.12109956  0.37155434  0.76199580  1  -0.112478  0  -0.099738  -0.108674  0  4.052303  0
C  C132  1  0.14048773  0.35355867  0.71317987  1  -0.037339  0  -0.113814  -0.173799  0  4.066468  0
C  C133  1  0.54512534  0.71957643  0.22397039  1  -0.029445  0  -0.069417  -0.081228  0  3.607091  0
C  C134  1  0.11907283  0.29670632  0.84429111  1  0.539265  0  0.125249  0.296377  0  4.060442  0
C  C135  1  0.58340600  0.80168753  0.25294825  1  -0.023559  0  -0.064694  -0.065373  0  3.614551  0
C  C136  1  0.11396613  0.20569968  0.87276087  1  -0.011842  0  -0.049088  -0.316131  0  3.909102  0
C  C137  1  0.28539961  0.99834904  0.65284584  1  -0.021364  0  -0.10189  -0.17798  0  3.954614  0
C  C138  1  0.26155683  0.01662514  0.70287113  1  -0.011863  0  -0.012441  0.104079  0  4.081812  0
C  C139  1  0.21252407  0.13628514  0.72317699  1  -0.020792  0  0.002467  -0.001474  0  3.866071  0
C  C140  1  0.29027447  0.91908265  0.73442893  1  -0.028518  0  -0.136003  -0.307568  0  4.013966  0
C  C141  1  0.26556358  0.93703280  0.78331034  1  0.371117  0  0.081912  0.264387  0  4.087113  0
C  C142  1  0.20515602  0.05802879  0.80411013  1  -0.016729  0  -0.040433  -0.184758  0  3.969281  0
C  C143  1  0.18736222  0.15610251  0.77396132  1  0.0123  0  0.003102  0.049584  0  3.977803  0
C  C144  1  0.15455491  0.08644459  0.85213269  1  0.511991  0  0.124165  0.3023  0  4.034183  0
C  C145  1  0.68076110  0.63780868  0.09536243  1  -0.068882  0  -0.039881  -0.203949  0  3.936588  0
C  C146  1  0.66572790  0.66105488  0.13859341  1  -0.142291  0  -0.015604  -0.008311  0  4.043485  0
C  C147  1  0.26332950  0.09538550  0.62326633  1  -0.006737  0  -0.026453  -0.047471  0  4.067499  0
C  C148  1  0.70009885  0.25419348  0.05177601  1  1.652266  0  0.277154  0.721337  0  4.15777  0
C  C149  1  0.71113379  0.57696927  0.04903275  1  1.642448  0  0.287746  0.727463  0  4.133809  0
C  C150  1  0.03257606  0.25335524  0.05780770  1  1.702828  0  0.277241  0.705183  0  4.166363  0
C  C151  1  0.70573947  0.25484774  0.91550224  1  1.539001  0  0.27241  0.642744  0  4.081842  0
C  C152  1  0.73659828  0.56322195  0.91762663  1  1.580122  0  0.280769  0.662351  0  4.05639  0
C  C153  1  0.05422043  0.23777646  0.91997508  1  1.468127  0  0.259165  0.654698  0  4.063636  0
C  C154  1  0.35247721  0.98173510  0.17323869  1  1.499894  0  0.230438  0.563089  0  4.153247  0
C  C155  1  0.77573765  0.76653302  0.88257204  1  1.508847  0  0.228608  0.572793  0  4.120443  0
C  C156  1  0.95482736  0.71113788  0.79402424  1  1.508963  0  0.23455  0.585318  0  4.128969  0
N  N157  1  0.47869730  0.54105257  0.78298223  1  -1.2302  0  -0.593579  -0.603918  0  3.336099  0
N  N158  1  0.84313922  0.96633627  0.61673554  1  -1.276652  0  -0.581849  -0.595398  0  3.380997  0
N  N159  1  0.43256168  0.29646342  0.62228284  1  -1.298523  0  -0.566237  -0.572482  0  3.36319  0
N  N160  1  0.09686308  0.40341472  0.86430176  1  -1.303782  0  -0.584365  -0.584923  0  3.364111  0
N  N161  1  0.14527055  0.00055815  0.87733194  1  -1.307014  0  -0.580353  -0.591412  0  3.350678  0
N  N162  1  0.29833443  0.83535688  0.81239198  1  -1.202629  0  -0.604863  -0.627599  0  3.314482  0
N  N163  1  0.88066580  0.62608013  0.27371096  1  -1.213766  0  -0.600663  -0.641889  0  3.279043  0
O  O164  1  0.50870662  0.17017089  0.44556391  1  -1.224705  0  -0.215657  -0.573537  0  2.300232  0
O  O165  1  0.81212889  0.55059698  0.02989866  1  -1.233161  0  -0.22284  -0.57983  0  2.23487  0
O  O166  1  0.00978168  0.35543716  0.03988100  1  -1.250354  0  -0.237862  -0.592675  0  2.225303  0
O  O167  1  0.31350918  0.14940413  0.44758231  1  -1.208709  0  -0.207655  -0.556776  0  2.292979  0
O  O168  1  0.01380564  0.17202210  0.93699407  1  -1.270963  0  -0.224264  -0.586836  0  2.442328  0
O  O169  1  0.79891673  0.17856774  0.93628700  1  -1.256983  0  -0.21516  -0.567508  0  2.370033  0
O  O170  1  0.62924671  0.36016051  0.93345575  1  -1.281449  0  -0.251897  -0.618047  0  2.257699  0
O  O171  1  0.65606776  0.54650249  0.93780090  1  -1.266404  0  -0.235529  -0.602446  0  2.299789  0
O  O172  1  0.84162955  0.52431085  0.93406425  1  -1.261005  0  -0.228621  -0.591897  0  2.332829  0
O  O173  1  0.03863388  0.33434411  0.94411931  1  -1.282946  0  -0.254785  -0.625175  0  2.291129  0
O  O174  1  0.82986148  0.34022583  0.98679589  1  -1.611005  0  -0.392305  -1.2703  0  2.304719  0
O  O175  1  0.53240543  0.78749228  0.54833312  1  -1.263668  0  -0.23409  -0.59731  0  2.294868  0
O  O176  1  0.32109915  0.96701282  0.45406036  1  -1.254418  0  -0.243028  -0.604575  0  2.224689  0
O  O177  1  0.52754000  0.78485753  0.45263387  1  -1.240725  0  -0.228591  -0.586964  0  2.245119  0
O  O178  1  0.69772847  0.79880110  0.45076709  1  -1.241363  0  -0.228721  -0.588179  0  2.241232  0
O  O179  1  0.69185525  0.00131922  0.44832005  1  -1.264051  0  -0.243945  -0.608558  0  2.24331  0
O  O180  1  0.52177683  0.16685898  0.54607117  1  -1.263262  0  -0.224965  -0.586651  0  2.431537  0
O  O181  1  0.31480074  0.15470543  0.55085967  1  -1.252607  0  -0.216424  -0.56226  0  2.357496  0
O  O182  1  0.32691939  0.97067763  0.55184015  1  -1.282969  0  -0.254831  -0.627238  0  2.276215  0
O  O183  1  0.34523792  0.89658180  0.15584720  1  -1.119133  0  -0.278081  -0.472667  0  2.089325  0
O  O184  1  0.43017149  0.01744447  0.15633923  1  -1.12315  0  -0.325895  -0.479254  0  2.231604  0
O  O185  1  0.75617552  0.77045450  0.92603752  1  -1.119106  0  -0.28744  -0.471436  0  2.07954  0
O  O186  1  0.69775069  0.80812926  0.54695947  1  -1.273786  0  -0.236699  -0.602792  0  2.30826  0
O  O187  1  0.79749848  0.84982800  0.86103925  1  -1.116363  0  -0.326826  -0.483641  0  2.280731  0
O  O188  1  0.00735393  0.64310811  0.82729579  1  -1.168028  0  -0.285761  -0.505896  0  2.191677  0
O  O189  1  0.00191586  0.77300819  0.77168320  1  -1.118656  0  -0.324052  -0.475555  0  2.286654  0
O  O190  1  0.83918867  0.35506456  0.23702498  1  -1.139872  0  -0.278659  -0.494538  0  2.165787  0
O  O191  1  0.87075258  0.43431742  0.16860708  1  -1.129221  0  -0.327441  -0.46531  0  2.292782  0
O  O192  1  0.70343084  0.00290380  0.54398987  1  -1.280603  0  -0.256815  -0.626344  0  2.294353  0
O  O193  1  0.50338609  0.99544764  0.49870112  1  -1.608245  0  -0.391204  -1.265855  0  2.294132  0
O  O194  1  0.01163293  0.17457820  0.03918310  1  -1.199478  0  -0.205323  -0.549177  0  2.2847  0
O  O195  1  0.80327072  0.17529394  0.03712340  1  -1.227845  0  -0.215158  -0.576019  0  2.303529  0
O  O196  1  0.62726822  0.35084973  0.02971932  1  -1.258603  0  -0.241509  -0.604246  0  2.233854  0
O  O197  1  0.63637889  0.54719376  0.03194107  1  -1.237926  0  -0.22517  -0.582378  0  2.240861  0
O  O198  1  0.32270432  0.32657648  0.50489948  1  -1.372986  0  -0.578063  -0.996807  0  1.807257  0
O  O199  1  0.99044586  0.00861168  0.98036301  1  -1.376224  0  -0.575572  -1.002295  0  1.810654  0
