# generated using pymatgen
data_Zn2H17C26N7O20
_symmetry_space_group_name_H-M   'P 1'
_cell_length_a   9.98544778
_cell_length_b   11.16511453
_cell_length_c   16.98988773
_cell_angle_alpha   92.42749449
_cell_angle_beta   94.23781473
_cell_angle_gamma   92.91065386
_symmetry_Int_Tables_number   1
_chemical_formula_structural   Zn2H17C26N7O20
_chemical_formula_sum   'Zn2 H17 C26 N7 O20'
_cell_volume   1884.54155428
_cell_formula_units_Z   1
loop_
 _symmetry_equiv_pos_site_id
 _symmetry_equiv_pos_as_xyz
  1  'x, y, z'
loop_
 _atom_site_type_symbol
 _atom_site_label
 _atom_site_symmetry_multiplicity
 _atom_site_fract_x
 _atom_site_fract_y
 _atom_site_fract_z
 _atom_site_occupancy
 _atom_site_pbe_bader_charge
 _atom_site_pbe_bader_spin_density
 _atom_site_pbe_cm5_charge
 _atom_site_pbe_ddec_charge
 _atom_site_pbe_ddec_spin_density
 _atom_site_pbe_ddec_sum_bond_order
 _atom_site_pbe_magmom
Zn  Zn0  1  0.35548743  0.50059236  0.49666430  1  1.300254  0  0.677531  0.862135  0  2.420264  0
Zn  Zn1  1  0.63077570  0.51645034  0.50060114  1  1.291084  0  0.672542  0.837503  0  2.409219  0
H  H2  1  0.67674219  0.45007425  0.25439556  1  0.115185  0  0.101631  0.105724  0  1.011902  0
H  H3  1  0.32522067  0.37078292  0.71417960  1  0.134934  0  0.116948  0.137029  0  0.995905  0
H  H4  1  0.60961588  0.30655083  0.00164933  1  0.070343  0  0.110713  0.11151  0  1.005002  0
H  H5  1  0.22802685  0.44493582  0.10646297  1  0.081008  0  0.104016  0.10276  0  0.993725  0
H  H6  1  0.25341504  0.50396536  0.25034142  1  0.108962  0  0.106035  0.110515  0  0.994653  0
H  H7  1  0.33119120  0.41451608  0.98344789  1  0.062315  0  0.104801  0.103219  0  0.991585  0
H  H8  1  0.65378391  0.39186669  0.11195151  1  0.055996  0  0.104226  0.104984  0  1.004275  0
H  H9  1  0.66669789  0.89105759  0.46780617  1  0.132333  0  0.123113  0.13847  0  0.962291  0
H  H10  1  0.38884893  0.91394209  0.53432661  1  0.151125  0  0.114732  0.135879  0  1.000498  0
H  H11  1  0.15184349  0.66378208  0.55345413  1  0.225947  0  0.15242  0.141814  0  0.949469  0
H  H12  1  0.09321249  0.41452250  0.49235789  1  0.45062  0  0.328221  0.306359  0  0.89996  0
H  H13  1  0.89465120  0.47708584  0.97924741  1  0.076009  0  0.109817  0.117118  0  0.96882  0
H  H14  1  0.72785640  0.53114540  0.97298190  1  0.063823  0  0.096111  0.09236  0  0.997462  0
H  H15  1  0.83336836  0.54917103  0.89205150  1  0.063058  0  0.102915  0.106636  0  0.998013  0
H  H16  1  0.82329997  0.29323564  0.68585410  1  0.06757  0  0.09182  0.104096  0  1.014443  0
H  H17  1  0.87323252  0.28450160  0.78989154  1  0.076101  0  0.100452  0.10767  0  1.003631  0
H  H18  1  0.96386327  0.38512232  0.73157045  1  0.085171  0  0.101211  0.119605  0  1.000411  0
C  C19  1  0.49030619  0.27456543  0.47213397  1  1.69392  0  0.216054  0.593096  0  4.224355  0
C  C20  1  0.48212309  0.51099206  0.34749363  1  1.543159  0  0.216303  0.599294  0  4.148189  0
C  C21  1  0.47878557  0.73989274  0.51548653  1  1.583976  0  0.217543  0.645439  0  4.161034  0
C  C22  1  0.53659773  0.45735651  0.64531581  1  1.551156  0  0.219895  0.620092  0  4.124807  0
C  C23  1  0.46648114  0.48036828  0.26116635  1  -0.054171  0  -0.018666  -0.038279  0  3.967648  0
C  C24  1  0.57867606  0.44767491  0.22158242  1  0.024666  0  -0.082146  -0.081574  0  3.987259  0
C  C25  1  0.56480051  0.41391343  0.14192313  1  -0.065555  0  -0.086438  -0.131093  0  3.963367  0
C  C26  1  0.43822160  0.41177818  0.09884226  1  0.031065  0  -0.002561  0.121359  0  4.027786  0
C  C27  1  0.32648478  0.44566135  0.13906274  1  -0.051924  0  -0.08488  -0.131493  0  3.961132  0
C  C28  1  0.34004583  0.47890404  0.21916638  1  -0.090397  0  -0.078428  -0.078203  0  3.974126  0
C  C29  1  0.40740116  0.33440720  0.83017764  1  0.210075  0  0.070262  0.013194  0  3.939801  0
C  C30  1  0.41540404  0.37319082  0.75430455  1  -0.012069  0  -0.074979  -0.124091  0  3.978429  0
C  C31  1  0.65611928  0.40707112  0.77836907  1  0.602382  0  0.100963  0.168606  0  4.008153  0
C  C32  1  0.64498839  0.37185538  0.85680040  1  0.523098  0  0.08317  0.098216  0  4.000422  0
C  C33  1  0.52004521  0.34016380  0.88598145  1  -0.001337  0  0.003181  0.009365  0  4.005986  0
C  C34  1  0.42310173  0.38459766  0.01390921  1  -0.028821  0  -0.079597  -0.111999  0  3.958874  0
C  C35  1  0.51760520  0.33580582  0.97145395  1  -0.001325  0  -0.085211  -0.106992  0  3.983996  0
C  C36  1  0.53864258  0.41285187  0.72722470  1  0.060859  0  -0.020933  -0.118406  0  3.942745  0
C  C37  1  0.57895167  0.93734255  0.48540297  1  0.092038  0  -0.069175  -0.082093  0  3.959404  0
C  C38  1  0.47671253  0.87259432  0.51316353  1  -0.135943  0  -0.072894  -0.175292  0  3.818275  0
C  C39  1  0.58438230  0.06690546  0.48192387  1  0.209527  0  0.098084  0.06981  0  3.91978  0
C  C40  1  0.48491795  0.14044657  0.46412487  1  0.239783  0  0.081333  -0.109442  0  3.802787  0
C  C41  1  0.09146728  0.58127556  0.53435268  1  0.728327  0  0.127234  0.137258  0  3.858645  0
C  C42  1  0.94435795  0.58221151  0.54103924  1  0.949892  0  0.272793  0.22174  0  3.842732  0
C  C43  1  0.80589902  0.49077433  0.93943950  1  0.34977  0  -0.133458  -0.169428  0  3.889319  0
C  C44  1  0.86468571  0.34369469  0.73998178  1  0.353932  0  -0.142445  -0.177626  0  3.852584  0
N  N45  1  0.15162103  0.49151175  0.50786577  1  -1.158722  0  -0.419248  -0.349578  0  3.216039  0
N  N46  1  0.84687011  0.54438350  0.49251752  1  -0.823075  0  -0.180282  -0.228006  0  3.112239  0
N  N47  1  0.72468676  0.11937001  0.50171420  1  0.468284  0  0.064826  0.519926  0  4.235978  0
N  N48  1  0.35107254  0.08698476  0.43397320  1  0.394  0  0.06085  0.543653  0  4.239874  0
N  N49  1  0.91325277  0.63843126  0.61994484  1  0.479554  0  0.080009  0.469997  0  4.212817  0
N  N50  1  0.88882580  0.49537862  0.41214221  1  0.699273  0  0.149998  0.581052  0  4.273059  0
N  N51  1  0.27682815  0.28080182  0.84942073  1  0.381043  0  0.052795  0.519812  0  4.219051  0
O  O52  1  0.37783747  0.32199968  0.46200647  1  -1.149021  0  -0.311788  -0.528197  0  2.287112  0
O  O53  1  0.60503294  0.32592635  0.48982865  1  -1.147281  0  -0.303037  -0.52397  0  2.327348  0
O  O54  1  0.37751330  0.53699448  0.38232553  1  -1.165035  0  -0.32331  -0.554016  0  2.310417  0
O  O55  1  0.60011254  0.50612994  0.38200333  1  -1.159795  0  -0.325854  -0.557863  0  2.35874  0
O  O56  1  0.36805295  0.68366737  0.52752695  1  -1.161432  0  -0.318508  -0.557621  0  2.258277  0
O  O57  1  0.58945174  0.69257041  0.50452000  1  -1.157512  0  -0.314056  -0.553034  0  2.35822  0
O  O58  1  0.42073597  0.45748337  0.60799400  1  -1.166309  0  -0.318266  -0.55907  0  2.338722  0
O  O59  1  0.64649801  0.49212472  0.61732415  1  -1.14205  0  -0.31507  -0.533246  0  2.342003  0
O  O60  1  0.75892473  0.37288375  0.90744182  1  -1.068146  0  -0.204165  -0.179178  0  2.553712  0
O  O61  1  0.79556222  0.12769740  0.44564017  1  -0.40619  0  -0.110571  -0.294754  0  1.880336  0
O  O62  1  0.76013908  0.13927619  0.57227211  1  -0.443026  0  -0.11531  -0.308385  0  1.905424  0
O  O63  1  0.26630502  0.07066741  0.48247194  1  -0.425181  0  -0.125305  -0.32327  0  1.874552  0
O  O64  1  0.33446880  0.06669154  0.36192783  1  -0.390269  0  -0.112996  -0.29829  0  1.836512  0
O  O65  1  0.98519782  0.60114779  0.67499977  1  -0.387537  0  -0.071288  -0.252486  0  1.898182  0
O  O66  1  0.82992697  0.71448024  0.62169294  1  -0.344485  0  -0.055335  -0.212966  0  1.9239  0
O  O67  1  0.89697354  0.38727167  0.40733079  1  -0.339703  0  -0.046805  -0.234778  0  1.950164  0
O  O68  1  0.90047487  0.57185962  0.36440195  1  -0.316255  0  -0.042175  -0.220022  0  1.907923  0
O  O69  1  0.77994942  0.44209046  0.75667149  1  -1.075126  0  -0.201827  -0.177726  0  2.583672  0
O  O70  1  0.17349596  0.32329067  0.81891502  1  -0.470488  0  -0.14755  -0.35871  0  1.902864  0
O  O71  1  0.27767793  0.19438492  0.89282491  1  -0.443442  0  -0.139991  -0.336116  0  1.875742  0
