# generated using pymatgen
data_CdH9C10(NO2)3
_symmetry_space_group_name_H-M   'P 1'
_cell_length_a   6.82118082
_cell_length_b   12.24911334
_cell_length_c   13.76206977
_cell_angle_alpha   90.00017120
_cell_angle_beta   89.99993824
_cell_angle_gamma   90.00049812
_symmetry_Int_Tables_number   1
_chemical_formula_structural   CdH9C10(NO2)3
_chemical_formula_sum   'Cd4 H36 C40 N12 O24'
_cell_volume   1149.86795312
_cell_formula_units_Z   4
loop_
 _symmetry_equiv_pos_site_id
 _symmetry_equiv_pos_as_xyz
  1  'x, y, z'
loop_
 _atom_site_type_symbol
 _atom_site_label
 _atom_site_symmetry_multiplicity
 _atom_site_fract_x
 _atom_site_fract_y
 _atom_site_fract_z
 _atom_site_occupancy
 _atom_site_hle17_bader_spin_density
 _atom_site_hle17_ddec_charge
 _atom_site_hle17_ddec_spin_density
 _atom_site_hle17_ddec_sum_bond_order
 _atom_site_hle17_magmom
 _atom_site_hse06_10hf_bader_spin_density
 _atom_site_hse06_10hf_ddec_charge
 _atom_site_hse06_10hf_ddec_spin_density
 _atom_site_hse06_10hf_ddec_sum_bond_order
 _atom_site_hse06_10hf_magmom
 _atom_site_hse06_bader_spin_density
 _atom_site_hse06_ddec_charge
 _atom_site_hse06_ddec_spin_density
 _atom_site_hse06_ddec_sum_bond_order
 _atom_site_hse06_magmom
 _atom_site_pbe_bader_spin_density
 _atom_site_pbe_cm5_charge
 _atom_site_pbe_ddec_charge
 _atom_site_pbe_ddec_spin_density
 _atom_site_pbe_ddec_sum_bond_order
 _atom_site_pbe_magmom
Cd  Cd0  1  0.03111145  0.99197276  0.76673408  1  0  1.173604  0  1.654429  0  0  0.987901  0  2.102276  0  0  1.04133  0  2.04977  0  0  0.786415  0.950017  0  2.138135  0
Cd  Cd1  1  0.96889363  0.00802709  0.26673213  1  0  1.17366  0  1.654428  0  0  0.987959  0  2.10228  0  0  1.041388  0  2.049771  0  0  0.78643  0.950075  0  2.138144  0
Cd  Cd2  1  0.46889301  0.49197681  0.26673219  1  0  1.173667  0  1.654445  0  0  0.987924  0  2.1023  0  0  1.041359  0  2.049794  0  0  0.786424  0.95004  0  2.13816  0
Cd  Cd3  1  0.53110768  0.50802304  0.76673184  1  0  1.173631  0  1.654476  0  0  0.987894  0  2.102338  0  0  1.041326  0  2.049836  0  0  0.786411  0.950007  0  2.138199  0
H  H4  1  0.11628813  0.30251532  0.52767971  1  0  0.389777  0  0.919541  0  0  0.351574  0  1.009801  0  0  0.364879  0  0.993573  0  0  0.290783  0.342396  0  1.018152  0
H  H5  1  0.88372182  0.69747965  0.02767964  1  0  0.389829  0  0.919507  0  0  0.351637  0  1.009732  0  0  0.364944  0  0.993484  0  0  0.290789  0.342456  0  1.018088  0
H  H6  1  0.38371682  0.80251622  0.02767121  1  0  0.389807  0  0.919519  0  0  0.351607  0  1.009792  0  0  0.364916  0  0.993534  0  0  0.29074  0.342427  0  1.018146  0
H  H7  1  0.61628873  0.19748201  0.52767507  1  0  0.38973  0  0.919671  0  0  0.35152  0  1.009946  0  0  0.364824  0  0.993676  0  0  0.290733  0.342342  0  1.018298  0
H  H8  1  0.38895058  0.89538369  0.70333786  1  0  0.376633  0  0.941296  0  0  0.329434  0  1.039541  0  0  0.341977  0  1.022147  0  0  0.276163  0.320694  0  1.051616  0
H  H9  1  0.61105463  0.10461350  0.20333710  1  0  0.376629  0  0.94129  0  0  0.329447  0  1.039532  0  0  0.341991  0  1.022135  0  0  0.276178  0.320705  0  1.051609  0
H  H10  1  0.11104813  0.39538515  0.20333691  1  0  0.376641  0  0.941267  0  0  0.329441  0  1.039536  0  0  0.341986  0  1.022138  0  0  0.276177  0.3207  0  1.051612  0
H  H11  1  0.88894829  0.60461775  0.70333805  1  0  0.376632  0  0.941291  0  0  0.329434  0  1.039537  0  0  0.341977  0  1.022143  0  0  0.276172  0.320692  0  1.051614  0
H  H12  1  0.38305257  0.88408754  0.82201113  1  0  0.421999  0  0.87484  0  0  0.386419  0  0.947877  0  0  0.39808  0  0.930974  0  0  0.290415  0.378146  0  0.959842  0
H  H13  1  0.61694948  0.11591168  0.32200822  1  0  0.42196  0  0.874886  0  0  0.386368  0  0.947941  0  0  0.398029  0  0.931038  0  0  0.290436  0.378097  0  0.959903  0
H  H14  1  0.11694426  0.38408822  0.32201018  1  0  0.421985  0  0.874868  0  0  0.386417  0  0.947872  0  0  0.398077  0  0.930969  0  0  0.290446  0.378145  0  0.959835  0
H  H15  1  0.88305192  0.61591181  0.82201135  1  0  0.422023  0  0.874796  0  0  0.386442  0  0.947842  0  0  0.398101  0  0.930941  0  0  0.290438  0.378168  0  0.959808  0
H  H16  1  0.58525870  0.00791677  0.76262785  1  0  0.427913  0  0.871655  0  0  0.398717  0  0.931391  0  0  0.40985  0  0.915189  0  0  0.285966  0.39082  0  0.942873  0
H  H17  1  0.41474786  0.99208225  0.26262593  1  0  0.427828  0  0.871775  0  0  0.398707  0  0.931397  0  0  0.409839  0  0.915196  0  0  0.285954  0.390808  0  0.94288  0
H  H18  1  0.91474409  0.50791619  0.26262732  1  0  0.427866  0  0.871714  0  0  0.398669  0  0.931452  0  0  0.409803  0  0.915248  0  0  0.285942  0.39077  0  0.942935  0
H  H19  1  0.08525368  0.49208854  0.76262211  1  0  0.427829  0  0.871766  0  0  0.398664  0  0.931468  0  0  0.409801  0  0.915256  0  0  0.285948  0.390754  0  0.942963  0
H  H20  1  0.67711603  0.10503086  0.70139153  1  0  0.423845  0  0.875746  0  0  0.3904  0  0.942785  0  0  0.401473  0  0.926563  0  0  0.289994  0.382553  0  0.954265  0
H  H21  1  0.32288625  0.89496877  0.20139158  1  0  0.423834  0  0.875758  0  0  0.390409  0  0.942771  0  0  0.401483  0  0.926547  0  0  0.289988  0.382562  0  0.954251  0
H  H22  1  0.82289130  0.60503065  0.20139105  1  0  0.423825  0  0.875768  0  0  0.390387  0  0.942792  0  0  0.401464  0  0.926565  0  0  0.28998  0.38254  0  0.954271  0
H  H23  1  0.17710805  0.39497306  0.70138625  1  0  0.423815  0  0.875818  0  0  0.390343  0  0.942867  0  0  0.401417  0  0.926645  0  0  0.289955  0.382497  0  0.954342  0
H  H24  1  0.99848451  0.51335887  0.52791589  1  0  0.083017  0  0.919741  0  0  0.094696  0  0.977155  0  0  0.097426  0  0.975303  0  0  0.114773  0.09268  0  0.978562  0
H  H25  1  0.00151077  0.48663936  0.02790633  1  0  0.083014  0  0.919833  0  0  0.094655  0  0.977285  0  0  0.097384  0  0.975433  0  0  0.11477  0.09264  0  0.978693  0
H  H26  1  0.50150709  0.01336062  0.02790701  1  0  0.08305  0  0.919767  0  0  0.094696  0  0.977207  0  0  0.097425  0  0.975354  0  0  0.114773  0.092679  0  0.978617  0
H  H27  1  0.49848673  0.98663924  0.52791303  1  0  0.083049  0  0.919721  0  0  0.094727  0  0.977125  0  0  0.097457  0  0.975272  0  0  0.114771  0.092712  0  0.978536  0
H  H28  1  0.88467206  0.81092647  0.65697176  1  0  0.085218  0  0.97235  0  0  0.09208  0  1.042273  0  0  0.095129  0  1.038647  0  0  0.114725  0.089857  0  1.044919  0
H  H29  1  0.11531564  0.18907464  0.15696934  1  0  0.085189  0  0.97244  0  0  0.09201  0  1.042392  0  0  0.095061  0  1.038761  0  0  0.114695  0.089788  0  1.045034  0
H  H30  1  0.61532531  0.31092714  0.15696717  1  0  0.085167  0  0.972483  0  0  0.09205  0  1.042375  0  0  0.095096  0  1.038749  0  0  0.114713  0.089828  0  1.04502  0
H  H31  1  0.38467265  0.68907152  0.65696811  1  0  0.085246  0  0.97242  0  0  0.092125  0  1.042309  0  0  0.095169  0  1.038686  0  0  0.114741  0.089903  0  1.044952  0
H  H32  1  0.13058146  0.80662667  0.36753586  1  0  0.110108  0  0.952201  0  0  0.117546  0  1.019616  0  0  0.120674  0  1.016786  0  0  0.108832  0.115173  0  1.021833  0
H  H33  1  0.86941024  0.19336699  0.86753011  1  0  0.110071  0  0.95223  0  0  0.117526  0  1.019657  0  0  0.120642  0  1.016839  0  0  0.108825  0.115152  0  1.021874  0
H  H34  1  0.36941116  0.30662865  0.86752969  1  0  0.110084  0  0.952236  0  0  0.117557  0  1.019638  0  0  0.120662  0  1.016835  0  0  0.108836  0.115183  0  1.021857  0
H  H35  1  0.63058493  0.69337236  0.36752975  1  0  0.110076  0  0.952176  0  0  0.117509  0  1.019625  0  0  0.120631  0  1.016803  0  0  0.108824  0.115134  0  1.021842  0
H  H36  1  0.11224143  0.60353847  0.37442046  1  0  0.108693  0  0.962942  0  0  0.119009  0  1.023031  0  0  0.122027  0  1.021764  0  0  0.107384  0.116836  0  1.024105  0
H  H37  1  0.88775465  0.39645929  0.87441306  1  0  0.108647  0  0.962995  0  0  0.118971  0  1.023071  0  0  0.121991  0  1.021803  0  0  0.107373  0.116798  0  1.024147  0
H  H38  1  0.38775247  0.10353890  0.87441282  1  0  0.108618  0  0.963002  0  0  0.118976  0  1.02304  0  0  0.121995  0  1.021775  0  0  0.107371  0.116803  0  1.024116  0
H  H39  1  0.61224069  0.89646294  0.37441852  1  0  0.108621  0  0.962962  0  0  0.118958  0  1.023032  0  0  0.121976  0  1.021768  0  0  0.107374  0.116786  0  1.024106  0
C  C40  1  0.00114468  0.60219141  0.52097621  1  0  0.123131  0  3.685689  0  0  0.08671  0  3.949078  0  0  0.093403  0  3.965689  0  0  0.043183  0.082556  0  3.937781  0
C  C41  1  0.99885062  0.39781007  0.02097019  1  0  0.122934  0  3.685751  0  0  0.086568  0  3.949139  0  0  0.093263  0  3.965749  0  0  0.043098  0.082414  0  3.93784  0
C  C42  1  0.49884694  0.10219233  0.02096776  1  0  0.122916  0  3.685729  0  0  0.086562  0  3.949115  0  0  0.093257  0  3.965724  0  0  0.043126  0.082408  0  3.937818  0
C  C43  1  0.50114542  0.89780669  0.52097427  1  0  0.123005  0  3.685703  0  0  0.086609  0  3.949085  0  0  0.093299  0  3.965702  0  0  0.043169  0.082454  0  3.937791  0
C  C44  1  0.94101542  0.76879529  0.59337151  1  0  0.1001  0  3.676341  0  0  0.057953  0  3.932407  0  0  0.064526  0  3.949101  0  0  0.048373  0.053449  0  3.92167  0
C  C45  1  0.05897534  0.23120724  0.09336779  1  0  0.100196  0  3.676372  0  0  0.058037  0  3.932483  0  0  0.064606  0  3.949188  0  0  0.04843  0.053532  0  3.921747  0
C  C46  1  0.55897997  0.26879323  0.09336769  1  0  0.100176  0  3.676572  0  0  0.057969  0  3.932699  0  0  0.064548  0  3.949384  0  0  0.048425  0.053463  0  3.921963  0
C  C47  1  0.44101519  0.73120440  0.59336871  1  0  0.100025  0  3.676456  0  0  0.05782  0  3.932569  0  0  0.064419  0  3.949221  0  0  0.048366  0.053316  0  3.921833  0
C  C48  1  0.00778456  0.82667868  0.51194589  1  0  -0.060852  0  3.799257  0  0  -0.038383  0  4.037582  0  0  -0.045224  0  4.061326  0  0  -0.003514  -0.034017  0  4.021237  0
C  C49  1  0.99220636  0.17332032  0.01194072  1  0  -0.060886  0  3.799321  0  0  -0.038278  0  4.037483  0  0  -0.045126  0  4.061221  0  0  -0.003455  -0.033913  0  4.021141  0
C  C50  1  0.49221053  0.32667794  0.01194253  1  0  -0.060864  0  3.799139  0  0  -0.038291  0  4.037372  0  0  -0.045135  0  4.0611  0  0  -0.00346  -0.033922  0  4.021028  0
C  C51  1  0.50779212  0.67332024  0.51194408  1  0  -0.060801  0  3.799301  0  0  -0.038266  0  4.037586  0  0  -0.045115  0  4.061325  0  0  -0.003442  -0.033901  0  4.02124  0
C  C52  1  0.07089641  0.76605798  0.43140413  1  0  -0.020243  0  3.66128  0  0  -0.049209  0  3.909316  0  0  -0.046051  0  3.927947  0  0  -0.05965  -0.050806  0  3.896449  0
C  C53  1  0.92909517  0.23393916  0.93139772  1  0  -0.020284  0  3.661258  0  0  -0.049348  0  3.90933  0  0  -0.046181  0  3.927966  0  0  -0.059716  -0.050945  0  3.896465  0
C  C54  1  0.42909401  0.26605780  0.93139501  1  0  -0.020328  0  3.661126  0  0  -0.049425  0  3.909284  0  0  -0.04625  0  3.927923  0  0  -0.059754  -0.051022  0  3.896418  0
C  C55  1  0.57090050  0.73394015  0.43139885  1  0  -0.020259  0  3.661118  0  0  -0.049287  0  3.909245  0  0  -0.046124  0  3.927875  0  0  -0.059704  -0.050885  0  3.89638  0
C  C56  1  0.06407853  0.65256649  0.43578268  1  0  -0.107288  0  3.72787  0  0  -0.119479  0  3.985033  0  0  -0.126165  0  4.00627  0  0  -0.081532  -0.115364  0  3.970862  0
C  C57  1  0.93591597  0.34743066  0.93577439  1  0  -0.107126  0  3.727827  0  0  -0.119305  0  3.984993  0  0  -0.125991  0  4.006227  0  0  -0.081488  -0.115191  0  3.970822  0
C  C58  1  0.43591453  0.15256798  0.93577501  1  0  -0.107111  0  3.727915  0  0  -0.119323  0  3.98509  0  0  -0.126009  0  4.006325  0  0  -0.081496  -0.11521  0  3.97092  0
C  C59  1  0.56408143  0.84743407  0.43577988  1  0  -0.107182  0  3.727768  0  0  -0.119382  0  3.984958  0  0  -0.126068  0  4.006195  0  0  -0.081516  -0.115268  0  3.970787  0
C  C60  1  0.02007220  0.94586121  0.51437591  1  0  0.350483  0  3.762756  0  0  0.316807  0  4.037317  0  0  0.33132  0  4.054675  0  0  0.213609  0.307238  0  4.025253  0
C  C61  1  0.97992751  0.05414105  0.01437116  1  0  0.350465  0  3.76287  0  0  0.316808  0  4.03733  0  0  0.331348  0  4.054642  0  0  0.21358  0.307233  0  4.02528  0
C  C62  1  0.47992618  0.44585960  0.01436893  1  0  0.350641  0  3.762626  0  0  0.316974  0  4.037117  0  0  0.331514  0  4.054431  0  0  0.213635  0.307392  0  4.025071  0
C  C63  1  0.52007500  0.55414022  0.51437379  1  0  0.350562  0  3.762642  0  0  0.316881  0  4.037161  0  0  0.331416  0  4.054486  0  0  0.213634  0.307309  0  4.025098  0
C  C64  1  0.05302644  0.11425327  0.46670319  1  0  0.000376  0  3.797606  0  0  -0.01003  0  4.059179  0  0  -0.01132  0  4.080407  0  0  0.069869  -0.009258  0  4.044949  0
C  C65  1  0.94697240  0.88574807  0.96669996  1  0  0.000302  0  3.797773  0  0  -0.010041  0  4.059215  0  0  -0.011337  0  4.080451  0  0  0.069836  -0.009272  0  4.044974  0
C  C66  1  0.44696158  0.61425290  0.96669611  1  0  0.000351  0  3.797925  0  0  -0.010049  0  4.059389  0  0  -0.011342  0  4.080618  0  0  0.069857  -0.009273  0  4.045155  0
C  C67  1  0.55302553  0.38574925  0.46669686  1  0  0.000497  0  3.797611  0  0  -0.009897  0  4.059224  0  0  -0.011188  0  4.080456  0  0  0.069921  -0.009124  0  4.044992  0
C  C68  1  0.07041773  0.11032422  0.56827293  1  0  -0.026457  0  3.824736  0  0  -0.033063  0  4.085926  0  0  -0.036647  0  4.108328  0  0  0.063632  -0.030811  0  4.070933  0
C  C69  1  0.92958921  0.88968068  0.06827406  1  0  -0.026359  0  3.824553  0  0  -0.032972  0  4.085702  0  0  -0.036557  0  4.108107  0  0  0.06371  -0.030694  0  4.070672  0
C  C70  1  0.42957686  0.61032453  0.06827093  1  0  -0.02644  0  3.824381  0  0  -0.032997  0  4.085481  0  0  -0.036574  0  4.107876  0  0  0.063622  -0.030752  0  4.070493  0
C  C71  1  0.57041981  0.38967465  0.56826734  1  0  -0.026403  0  3.824434  0  0  -0.033025  0  4.085662  0  0  -0.036607  0  4.108063  0  0  0.063581  -0.030775  0  4.070667  0
C  C72  1  0.10877238  0.19596655  0.64020916  1  0  0.647558  0  3.85176  0  0  0.590154  0  4.154487  0  0  0.625483  0  4.14495  0  0  0.223645  0.566199  0  4.160352  0
C  C73  1  0.89124322  0.80403451  0.14021227  1  0  0.647432  0  3.852302  0  0  0.590041  0  4.155012  0  0  0.625375  0  4.14547  0  0  0.223524  0.566073  0  4.160875  0
C  C74  1  0.39124245  0.69596178  0.14022390  1  0  0.647558  0  3.852566  0  0  0.590145  0  4.155254  0  0  0.625474  0  4.14571  0  0  0.223623  0.566195  0  4.161118  0
C  C75  1  0.60876142  0.30403030  0.64021061  1  0  0.647492  0  3.852021  0  0  0.59005  0  4.154793  0  0  0.625376  0  4.145255  0  0  0.223629  0.566095  0  4.160657  0
C  C76  1  0.06285982  0.20633086  0.39790407  1  0  0.639818  0  3.90922  0  0  0.584309  0  4.212376  0  0  0.619414  0  4.203186  0  0  0.212086  0.560494  0  4.217976  0
C  C77  1  0.93714648  0.79367025  0.89790568  1  0  0.639746  0  3.909451  0  0  0.584282  0  4.212516  0  0  0.619387  0  4.203329  0  0  0.212104  0.560466  0  4.218113  0
C  C78  1  0.43713561  0.70632637  0.89789917  1  0  0.639751  0  3.909434  0  0  0.584312  0  4.212458  0  0  0.619421  0  4.20327  0  0  0.212041  0.560496  0  4.218055  0
C  C79  1  0.56286189  0.29367229  0.39790040  1  0  0.639829  0  3.909035  0  0  0.584233  0  4.21233  0  0  0.619335  0  4.203142  0  0  0.212056  0.56042  0  4.217927  0
N  N80  1  0.02041548  0.01047583  0.43405463  1  0  -0.449223  0  3.144447  0  0  -0.38139  0  3.41533  0  0  -0.403462  0  3.433297  0  0  -0.345587  -0.366191  0  3.402765  0
N  N81  1  0.97957609  0.98952296  0.93405456  1  0  -0.449156  0  3.144612  0  0  -0.381348  0  3.415439  0  0  -0.40343  0  3.433402  0  0  -0.345552  -0.366149  0  3.402874  0
N  N82  1  0.47957101  0.51047970  0.93404899  1  0  -0.449335  0  3.14475  0  0  -0.381516  0  3.415625  0  0  -0.403596  0  3.433584  0  0  -0.34559  -0.366312  0  3.403057  0
N  N83  1  0.52042349  0.48952642  0.43405221  1  0  -0.449327  0  3.144511  0  0  -0.381479  0  3.415393  0  0  -0.403559  0  3.433355  0  0  -0.345605  -0.36628  0  3.402825  0
N  N84  1  0.04750443  0.00416632  0.59716598  1  0  -0.458695  0  3.16854  0  0  -0.393913  0  3.441325  0  0  -0.415511  0  3.459776  0  0  -0.347574  -0.378987  0  3.428402  0
N  N85  1  0.95249805  0.99584194  0.09716375  1  0  -0.458756  0  3.168303  0  0  -0.393987  0  3.44107  0  0  -0.41559  0  3.459508  0  0  -0.347611  -0.379064  0  3.428137  0
N  N86  1  0.45249727  0.50416185  0.09716324  1  0  -0.458777  0  3.168195  0  0  -0.394012  0  3.440955  0  0  -0.415619  0  3.459396  0  0  -0.347583  -0.379083  0  3.428042  0
N  N87  1  0.54750667  0.49583416  0.59716503  1  0  -0.458849  0  3.168276  0  0  -0.394054  0  3.441076  0  0  -0.415659  0  3.459519  0  0  -0.347639  -0.379124  0  3.428149  0
N  N88  1  0.94116411  0.65976047  0.59879134  1  0  -0.307617  0  3.215615  0  0  -0.240341  0  3.469678  0  0  -0.25539  0  3.486325  0  0  -0.308991  -0.230159  0  3.458073  0
N  N89  1  0.05882957  0.34024126  0.09878717  1  0  -0.307488  0  3.2155  0  0  -0.240264  0  3.469628  0  0  -0.25531  0  3.486269  0  0  -0.308969  -0.230083  0  3.458024  0
N  N90  1  0.55883546  0.15976086  0.09878606  1  0  -0.307464  0  3.215553  0  0  -0.240261  0  3.469694  0  0  -0.255304  0  3.486332  0  0  -0.308983  -0.230081  0  3.458091  0
N  N91  1  0.44116116  0.84024087  0.59878955  1  0  -0.307527  0  3.215576  0  0  -0.240266  0  3.469664  0  0  -0.25532  0  3.486315  0  0  -0.308997  -0.230086  0  3.45806  0
O  O92  1  0.12178161  0.17507216  0.72888983  1  0  -0.56458  0  1.968252  0  0  -0.497721  0  2.201256  0  0  -0.522829  0  2.190563  0  0  -0.29124  -0.480259  0  2.207982  0
O  O93  1  0.87825727  0.82492756  0.22888791  1  0  -0.564436  0  1.968591  0  0  -0.497608  0  2.201599  0  0  -0.522709  0  2.190899  0  0  -0.291156  -0.480177  0  2.208396  0
O  O94  1  0.37824592  0.67507630  0.22887914  1  0  -0.564401  0  1.969505  0  0  -0.497512  0  2.202468  0  0  -0.522621  0  2.191782  0  0  -0.291077  -0.480059  0  2.209197  0
O  O95  1  0.62175338  0.32491934  0.72887317  1  0  -0.564369  0  1.968831  0  0  -0.497477  0  2.201816  0  0  -0.522587  0  2.19113  0  0  -0.291106  -0.48004  0  2.208587  0
O  O96  1  0.13031637  0.29698937  0.60839939  1  0  -0.571626  0  2.121319  0  0  -0.505899  0  2.342594  0  0  -0.531108  0  2.327259  0  0  -0.312662  -0.488537  0  2.351044  0
O  O97  1  0.86970221  0.70301239  0.10840152  1  0  -0.571675  0  2.121377  0  0  -0.505958  0  2.342636  0  0  -0.531189  0  2.327307  0  0  -0.312624  -0.488589  0  2.351092  0
O  O98  1  0.36969566  0.79698939  0.10839525  1  0  -0.571748  0  2.121041  0  0  -0.506071  0  2.342353  0  0  -0.531289  0  2.327005  0  0  -0.31273  -0.4887  0  2.350794  0
O  O99  1  0.63031266  0.20300421  0.60839403  1  0  -0.571678  0  2.121235  0  0  -0.505914  0  2.342504  0  0  -0.53112  0  2.327138  0  0  -0.312657  -0.488547  0  2.350953  0
O  O100  1  0.09518338  0.30354865  0.43151904  1  0  -0.601139  0  2.027618  0  0  -0.539929  0  2.250943  0  0  -0.566135  0  2.23952  0  0  -0.310347  -0.521748  0  2.257207  0
O  O101  1  0.90480673  0.69644768  0.93152551  1  0  -0.601113  0  2.027338  0  0  -0.539902  0  2.250608  0  0  -0.566111  0  2.239184  0  0  -0.310339  -0.521717  0  2.256873  0
O  O102  1  0.40481054  0.80354726  0.93151199  1  0  -0.601096  0  2.027586  0  0  -0.539929  0  2.250928  0  0  -0.566142  0  2.239491  0  0  -0.310295  -0.521744  0  2.257194  0
O  O103  1  0.59518983  0.19645151  0.43151512  1  0  -0.601139  0  2.027445  0  0  -0.539917  0  2.250861  0  0  -0.566123  0  2.239421  0  0  -0.310347  -0.521735  0  2.257126  0
O  O104  1  0.03994145  0.18895552  0.30830851  1  0  -0.602547  0  2.015537  0  0  -0.536835  0  2.258109  0  0  -0.563102  0  2.245955  0  0  -0.310892  -0.518467  0  2.265768  0
O  O105  1  0.96006209  0.81104365  0.80831961  1  0  -0.602434  0  2.015811  0  0  -0.536815  0  2.258427  0  0  -0.563061  0  2.246232  0  0  -0.31095  -0.518466  0  2.266126  0
O  O106  1  0.46006708  0.68895277  0.80830506  1  0  -0.602512  0  2.015597  0  0  -0.536832  0  2.258163  0  0  -0.563105  0  2.246015  0  0  -0.310904  -0.518463  0  2.265819  0
O  O107  1  0.53993793  0.31104722  0.30830925  1  0  -0.602573  0  2.015553  0  0  -0.536791  0  2.258147  0  0  -0.563076  0  2.246039  0  0  -0.310889  -0.518425  0  2.265805  0
O  O108  1  0.36651484  0.93722432  0.76804040  1  0  -0.836355  0  1.954279  0  0  -0.760567  0  2.172062  0  0  -0.785452  0  2.135941  0  0  -0.567375  -0.742924  0  2.196936  0
O  O109  1  0.63348878  0.06277390  0.26803734  1  0  -0.836275  0  1.95427  0  0  -0.760529  0  2.172055  0  0  -0.785406  0  2.13593  0  0  -0.567412  -0.742884  0  2.196929  0
O  O110  1  0.13348585  0.43722508  0.26803944  1  0  -0.836328  0  1.954234  0  0  -0.760559  0  2.172043  0  0  -0.78544  0  2.13592  0  0  -0.567408  -0.742917  0  2.196915  0
O  O111  1  0.86651044  0.56277477  0.76803976  1  0  -0.836344  0  1.954213  0  0  -0.760586  0  2.172044  0  0  -0.785469  0  2.135922  0  0  -0.567401  -0.742936  0  2.196917  0
O  O112  1  0.70678932  0.05169410  0.75297308  1  0  -0.855722  0  1.870056  0  0  -0.796999  0  2.072732  0  0  -0.818648  0  2.038086  0  0  -0.600469  -0.78161  0  2.096781  0
O  O113  1  0.29321579  0.94830489  0.25297329  1  0  -0.855677  0  1.870178  0  0  -0.797002  0  2.072721  0  0  -0.818655  0  2.038084  0  0  -0.600469  -0.781613  0  2.09677  0
O  O114  1  0.79321416  0.55169292  0.25297262  1  0  -0.855661  0  1.870124  0  0  -0.796917  0  2.07278  0  0  -0.818566  0  2.03813  0  0  -0.600433  -0.781528  0  2.096827  0
O  O115  1  0.20678802  0.44831994  0.75296431  1  0  -0.85565  0  1.870257  0  0  -0.796879  0  2.072921  0  0  -0.818539  0  2.038293  0  0  -0.600436  -0.78148  0  2.096995  0
