# generated using pymatgen
data_Gd2CuH4C10N4O9
_symmetry_space_group_name_H-M   'P 1'
_cell_length_a   6.80338046
_cell_length_b   16.29159817
_cell_length_c   16.29339106
_cell_angle_alpha   118.13467120
_cell_angle_beta   97.93316112
_cell_angle_gamma   98.16199637
_symmetry_Int_Tables_number   1
_chemical_formula_structural   Gd2CuH4C10N4O9
_chemical_formula_sum   'Gd6 Cu3 H12 C30 N12 O27'
_cell_volume   1532.33646215
_cell_formula_units_Z   3
loop_
 _symmetry_equiv_pos_site_id
 _symmetry_equiv_pos_as_xyz
  1  'x, y, z'
loop_
 _atom_site_type_symbol
 _atom_site_label
 _atom_site_symmetry_multiplicity
 _atom_site_fract_x
 _atom_site_fract_y
 _atom_site_fract_z
 _atom_site_occupancy
 _atom_site_pbe_bader_charge
 _atom_site_pbe_bader_spin_density
 _atom_site_pbe_cm5_charge
 _atom_site_pbe_ddec_charge
 _atom_site_pbe_ddec_spin_density
 _atom_site_pbe_ddec_sum_bond_order
 _atom_site_pbe_magmom
Gd  Gd0  1  0.22448543  0.84541832  0.93523243  1  2.08841  -0.011168  1.419071  1.965746  -0.014699  2.496831  -0.015
Gd  Gd1  1  0.37902411  0.08899602  0.15471006  1  2.088321  -0.011457  1.419244  1.966648  -0.015242  2.494672  -0.016
Gd  Gd2  1  0.28793646  0.06512584  0.91040755  1  2.08725  -0.0145  1.417958  1.964366  -0.020465  2.497945  -0.021
Gd  Gd3  1  0.77551404  0.15458517  0.06477132  1  2.088395  -0.01117  1.41903  1.965762  -0.014702  2.496692  -0.015
Gd  Gd4  1  0.62096016  0.91100388  0.84529354  1  2.088269  -0.011458  1.419198  1.966571  -0.015238  2.494854  -0.016
Gd  Gd5  1  0.71206380  0.93487049  0.08959657  1  2.087186  -0.014504  1.417948  1.964358  -0.020472  2.49792  -0.021
Cu  Cu6  1  0.99999667  0.49999353  0.99998794  1  0.997747  0.530763  0.738316  0.665406  0.883157  2.36064  0.533
Cu  Cu7  1  0.50000246  0.50000389  0.49999323  1  0.99932  0.530332  0.738853  0.665428  0.882506  2.360799  0.532
Cu  Cu8  1  0.00000485  0.00000151  0.50000323  1  1.000887  0.530738  0.737172  0.665503  0.883082  2.356849  0.533
H  H9  1  0.65228392  0.57002582  0.09474409  1  0.13507  0.001974  0.122364  0.113106  0.001152  1.000616  0.002
H  H10  1  0.52361504  0.72248808  0.13515409  1  0.100261  0.002246  0.131981  0.100647  0.001452  0.951033  0.001
H  H11  1  0.08300513  0.52412693  0.42945006  1  0.123756  0.001969  0.122204  0.1131  0.001132  1.00094  0.002
H  H12  1  0.80255202  0.41199593  0.27598115  1  0.074455  0.002236  0.132284  0.100777  0.001431  0.951982  0.001
H  H13  1  0.55580905  0.90496345  0.47536734  1  0.145499  0.001969  0.121909  0.112349  0.001153  1.001006  0.002
H  H14  1  0.38583703  0.86532598  0.58798491  1  0.114958  0.002238  0.132628  0.101072  0.00146  0.9513  0.001
H  H15  1  0.34771050  0.42995832  0.90523677  1  0.135474  0.001974  0.122345  0.113083  0.001152  1.000565  0.002
H  H16  1  0.47639943  0.27750396  0.86484642  1  0.100356  0.002245  0.132026  0.100667  0.001452  0.950965  0.001
H  H17  1  0.91698188  0.47587225  0.57054539  1  0.123896  0.001968  0.122208  0.113168  0.001132  1.000848  0.002
H  H18  1  0.19742040  0.58799823  0.72402272  1  0.074794  0.002235  0.132312  0.100859  0.001431  0.951943  0.001
H  H19  1  0.44419717  0.09503575  0.52463480  1  0.145446  0.001968  0.121903  0.112322  0.001153  1.001003  0.002
H  H20  1  0.61416684  0.13468037  0.41202107  1  0.114936  0.002237  0.132632  0.101138  0.00146  0.951242  0.001
C  C21  1  0.95496001  0.66861676  0.00672358  1  0.49723  7.4e-05  0.098978  -0.066307  9.3e-05  3.885155  0.0
C  C22  1  0.71442828  0.62272684  0.07624767  1  0.436267  -0.000732  0.026999  -0.018488  0.000189  3.948561  0.0
C  C23  1  0.12982903  0.64296086  0.96154450  1  1.580743  -0.000358  0.212458  0.57027  0.001038  4.217036  -0.001
C  C24  1  0.64511132  0.70574237  0.09687556  1  0.600557  0.005371  0.080247  0.127511  0.004732  3.960292  0.004
C  C25  1  0.88005173  0.75241614  0.02583243  1  1.292768  0.002087  0.235953  0.473143  0.002237  4.123605  0.001
C  C26  1  0.28668847  0.33774315  0.33117272  1  0.446489  7.9e-05  0.098716  -0.066574  1.1e-05  3.887326  0.0
C  C27  1  0.09225339  0.45295000  0.37668769  1  0.478762  -0.000779  0.027041  -0.018261  0.000202  3.94643  0.0
C  C28  1  0.48728694  0.31859697  0.35708015  1  1.586912  -0.000382  0.212354  0.570346  0.000999  4.219784  -0.001
C  C29  1  0.94034146  0.39053985  0.29324201  1  0.600593  0.005377  0.08031  0.128067  0.004731  3.963196  0.004
C  C30  1  0.12812426  0.27285282  0.24707331  1  1.323663  0.002025  0.235056  0.47339  0.00223  4.124541  0.001
C  C31  1  0.94654566  0.99323742  0.66179379  1  0.470894  0.000106  0.098034  -0.067925  0.000114  3.887594  0.0
C  C32  1  0.63643066  0.92369543  0.54657380  1  0.413009  -0.000651  0.028222  -0.017057  0.000239  3.947149  0.0
C  C33  1  0.16683676  0.03837526  0.68134540  1  1.585897  -0.000368  0.213178  0.571184  0.000987  4.219307  -0.001
C  C34  1  0.54598050  0.90337923  0.60916499  1  0.605251  0.005347  0.080025  0.127696  0.004751  3.960508  0.005
C  C35  1  0.85235207  0.97411453  0.72652354  1  1.278966  0.002089  0.234796  0.473388  0.002247  4.122397  0.001
C  C36  1  0.04504818  0.33138029  0.99327277  1  0.496886  7.1e-05  0.099043  -0.066239  9.2e-05  3.885022  0.0
C  C37  1  0.28556863  0.37725946  0.92373864  1  0.4361  -0.000734  0.026922  -0.018665  0.000189  3.94884  0.0
C  C38  1  0.87016847  0.35703547  0.03844656  1  1.580184  -0.00036  0.212465  0.570451  0.001038  4.217044  -0.001
C  C39  1  0.35490170  0.29424967  0.90312301  1  0.600363  0.005371  0.080286  0.127594  0.004731  3.96018  0.004
C  C40  1  0.11995665  0.24758449  0.97417358  1  1.292202  0.002087  0.235849  0.472973  0.002237  4.123652  0.001
C  C41  1  0.71331116  0.66226607  0.66881839  1  0.446518  7.7e-05  0.09876  -0.066736  1e-05  3.887422  0.0
C  C42  1  0.90773876  0.54705349  0.62330948  1  0.478552  -0.000779  0.027089  -0.018328  0.000202  3.946148  0.0
C  C43  1  0.51271045  0.68141082  0.64291199  1  1.587504  -0.000382  0.212329  0.570354  0.001  4.219733  -0.001
C  C44  1  0.05965099  0.60946149  0.70676030  1  0.600432  0.005378  0.080327  0.128042  0.004731  3.962958  0.004
C  C45  1  0.87186974  0.72715138  0.75292370  1  1.323231  0.002026  0.235183  0.473696  0.002229  4.124359  0.001
C  C46  1  0.05345828  0.00676321  0.33821073  1  0.470252  0.000108  0.098247  -0.067752  0.000116  3.88759  0.0
C  C47  1  0.36357811  0.07630592  0.45343012  1  0.412948  -0.000652  0.028296  -0.016862  0.000238  3.946986  0.0
C  C48  1  0.83316822  0.96162465  0.31866437  1  1.586003  -0.000365  0.213084  0.571193  0.000987  4.219116  -0.001
C  C49  1  0.45402336  0.09662713  0.39084160  1  0.606105  0.005346  0.080099  0.127616  0.00475  3.960498  0.005
C  C50  1  0.14765475  0.02588896  0.27348495  1  1.279173  0.002088  0.234635  0.473234  0.002247  4.122353  0.001
N  N51  1  0.86872974  0.60729890  0.03218871  1  -1.230693  0.082677  -0.34888  -0.198282  0.07041  3.762186  0.072
N  N52  1  0.72463215  0.76803592  0.07289198  1  -1.226291  -0.000467  -0.353089  -0.375987  -0.000827  3.365184  0.0
N  N53  1  0.26169465  0.42442613  0.39244340  1  -1.237522  0.082446  -0.349054  -0.197819  0.070201  3.763345  0.072
N  N54  1  0.95757737  0.30429710  0.23103949  1  -1.222327  -0.000212  -0.355795  -0.379554  -0.000658  3.369931  0.0
N  N55  1  0.83506338  0.96772511  0.57504310  1  -1.217878  0.082879  -0.347313  -0.197131  0.070591  3.758256  0.072
N  N56  1  0.64941848  0.92741018  0.69536526  1  -1.222528  -0.000306  -0.354847  -0.377285  -0.000719  3.367242  0.0
N  N57  1  0.13127015  0.39269026  0.96779606  1  -1.230263  0.082673  -0.348889  -0.198198  0.070402  3.762079  0.072
N  N58  1  0.27538774  0.23196114  0.92711551  1  -1.225998  -0.000467  -0.353114  -0.376006  -0.000827  3.364715  0.0
N  N59  1  0.73830388  0.57558094  0.60754786  1  -1.237465  0.082451  -0.349093  -0.197791  0.070206  3.763341  0.072
N  N60  1  0.04241100  0.69570495  0.76896230  1  -1.222383  -0.000212  -0.355892  -0.379738  -0.000658  3.370016  0.0
N  N61  1  0.16493977  0.03227982  0.42496216  1  -1.217526  0.082871  -0.347367  -0.197231  0.070583  3.758314  0.072
N  N62  1  0.35058577  0.07259403  0.30464158  1  -1.223348  -0.000306  -0.354939  -0.377299  -0.000718  3.367233  0.0
O  O63  1  0.94817194  0.81496641  0.00451182  1  -1.178567  0.011685  -0.359239  -0.612429  0.009675  2.381711  0.011
O  O64  1  0.22821931  0.69481392  0.93682530  1  -1.160112  0.023541  -0.321159  -0.549574  0.019359  2.279684  0.02
O  O65  1  0.17322508  0.56351428  0.95061720  1  -1.104458  0.112734  -0.343367  -0.550144  0.092155  2.313177  0.103
O  O66  1  0.38199694  0.93114797  0.09263483  1  -1.043675  0.399711  -0.790599  -1.045404  0.320455  1.720169  0.327
O  O67  1  0.13351511  0.18896646  0.18468835  1  -1.180805  0.011732  -0.356516  -0.610428  0.009848  2.380881  0.011
O  O68  1  0.53410390  0.24225873  0.30513632  1  -1.153435  0.023911  -0.321267  -0.550231  0.019654  2.279035  0.021
O  O69  1  0.60988457  0.38718361  0.43685273  1  -1.101161  0.113279  -0.343149  -0.550093  0.092598  2.310896  0.103
O  O70  1  0.44877524  0.16083700  0.06870431  1  -1.03717  0.414061  -0.782863  -1.034246  0.332619  1.705987  0.339
O  O71  1  0.94186559  0.99517026  0.81022996  1  -1.172546  0.012136  -0.358405  -0.612841  0.009985  2.382295  0.011
O  O72  1  0.28949345  0.06287714  0.75781920  1  -1.159292  0.023434  -0.321549  -0.549755  0.0193  2.28171  0.02
O  O73  1  0.22190792  0.04946020  0.61295694  1  -1.102353  0.112312  -0.344167  -0.550783  0.09163  2.313038  0.102
O  O74  1  0.28755682  0.90735032  0.83902813  1  -1.036976  0.411697  -0.784026  -1.035811  0.329945  1.707649  0.337
O  O75  1  0.05184924  0.18504211  0.99550236  1  -1.178356  0.011682  -0.35911  -0.61227  0.009672  2.381846  0.011
O  O76  1  0.77179573  0.30519388  0.06317835  1  -1.160192  0.023538  -0.32114  -0.549621  0.019358  2.279932  0.02
O  O77  1  0.82675637  0.43647630  0.04935853  1  -1.104065  0.112752  -0.343397  -0.550348  0.092167  2.313084  0.103
O  O78  1  0.61799544  0.06884764  0.90737461  1  -1.043897  0.399414  -0.790686  -1.045514  0.320221  1.720309  0.327
O  O79  1  0.86648000  0.81103703  0.81530900  1  -1.180612  0.011732  -0.356595  -0.61053  0.009849  2.380807  0.011
O  O80  1  0.46588943  0.75774118  0.69485802  1  -1.153787  0.023909  -0.32118  -0.550143  0.019652  2.279142  0.021
O  O81  1  0.39012181  0.61282418  0.56313505  1  -1.101222  0.113291  -0.343274  -0.550174  0.092606  2.310694  0.103
O  O82  1  0.55122601  0.83916721  0.93130357  1  -1.037181  0.414085  -0.782874  -1.034236  0.332638  1.706125  0.339
O  O83  1  0.05814098  0.00482965  0.18977315  1  -1.172554  0.01214  -0.35838  -0.612809  0.009988  2.382117  0.011
O  O84  1  0.71050207  0.93711846  0.24217999  1  -1.159047  0.023436  -0.321564  -0.549846  0.019302  2.281262  0.02
O  O85  1  0.77809642  0.95053828  0.38704659  1  -1.102349  0.112266  -0.344116  -0.550729  0.091595  2.313219  0.102
O  O86  1  0.71243930  0.09264959  0.16097742  1  -1.036916  0.411926  -0.78386  -1.035696  0.330132  1.707409  0.338
O  O87  1  0.49999231  0.99999659  0.00000958  1  -0.748858  0.933995  -0.518041  -0.764025  0.752521  1.82011  0.835
O  O88  1  0.10120456  0.00062992  0.99924615  1  -0.487134  0.32493  -0.294925  -0.436495  0.260816  2.263913  0.275
O  O89  1  0.89880043  0.99937000  0.00076301  1  -0.498198  0.324892  -0.294848  -0.436535  0.26084  2.263782  0.275
