# generated using pymatgen
data_CdH6C7N4
_symmetry_space_group_name_H-M   'P 1'
_cell_length_a   9.28611523
_cell_length_b   14.79390521
_cell_length_c   15.24600000
_cell_angle_alpha   90.00000000
_cell_angle_beta   90.00000000
_cell_angle_gamma   100.45505393
_symmetry_Int_Tables_number   1
_chemical_formula_structural   CdH6C7N4
_chemical_formula_sum   'Cd8 H48 C56 N32'
_cell_volume   2059.69038742
_cell_formula_units_Z   8
loop_
 _symmetry_equiv_pos_site_id
 _symmetry_equiv_pos_as_xyz
  1  'x, y, z'
loop_
 _atom_site_type_symbol
 _atom_site_label
 _atom_site_symmetry_multiplicity
 _atom_site_fract_x
 _atom_site_fract_y
 _atom_site_fract_z
 _atom_site_occupancy
 _atom_site_hle17_bader_spin_density
 _atom_site_hle17_ddec_charge
 _atom_site_hle17_ddec_spin_density
 _atom_site_hle17_ddec_sum_bond_order
 _atom_site_hle17_magmom
 _atom_site_hse06_10hf_bader_spin_density
 _atom_site_hse06_10hf_ddec_charge
 _atom_site_hse06_10hf_ddec_spin_density
 _atom_site_hse06_10hf_ddec_sum_bond_order
 _atom_site_hse06_10hf_magmom
 _atom_site_hse06_bader_spin_density
 _atom_site_hse06_ddec_charge
 _atom_site_hse06_ddec_spin_density
 _atom_site_hse06_ddec_sum_bond_order
 _atom_site_hse06_magmom
 _atom_site_pbe_bader_charge
 _atom_site_pbe_bader_spin_density
 _atom_site_pbe_cm5_charge
 _atom_site_pbe_ddec_charge
 _atom_site_pbe_ddec_spin_density
 _atom_site_pbe_ddec_sum_bond_order
 _atom_site_pbe_magmom
Cd  Cd0  1  0.69213573  0.24393244  0.79544602  1  0  0.938742  0  1.872563  0  0  0.710456  0  2.326882  0  0  0.759021  0  2.288425  0  1.144255  0  0.806998  0.676629  0  2.352904  0
Cd  Cd1  1  0.30786359  0.25606652  0.29544602  1  0  0.938755  0  1.872567  0  0  0.7105  0  2.326849  0  0  0.759063  0  2.288394  0  1.144242  0  0.807013  0.676673  0  2.352871  0
Cd  Cd2  1  0.30786407  0.75606754  0.20455398  1  0  0.938773  0  1.872521  0  0  0.710497  0  2.326831  0  0  0.759061  0  2.288376  0  1.144239  0  0.807026  0.676669  0  2.352855  0
Cd  Cd3  1  0.69213385  0.74393278  0.70455398  1  0  0.938753  0  1.872577  0  0  0.710484  0  2.326884  0  0  0.759046  0  2.28843  0  1.144245  0  0.806995  0.676656  0  2.352907  0
Cd  Cd4  1  0.76538454  0.99809116  0.76640758  1  0  0.93184  0  1.898759  0  0  0.70348  0  2.355073  0  0  0.750925  0  2.317423  0  1.140936  0  0.804927  0.670478  0  2.380516  0
Cd  Cd5  1  0.23461574  0.50190984  0.26640889  1  0  0.931841  0  1.898779  0  0  0.703496  0  2.355073  0  0  0.750943  0  2.317422  0  1.140872  0  0.804941  0.670493  0  2.380518  0
Cd  Cd6  1  0.23461634  0.00190882  0.23359242  1  0  0.931848  0  1.89877  0  0  0.703494  0  2.355072  0  0  0.750941  0  2.317422  0  1.140935  0  0.804938  0.670492  0  2.380516  0
Cd  Cd7  1  0.76538446  0.49809152  0.73359242  1  0  0.931856  0  1.898775  0  0  0.703485  0  2.3551  0  0  0.75093  0  2.317451  0  1.140938  0  0.804936  0.670482  0  2.380545  0
H  H8  1  0.46528746  0.93622410  0.65063886  1  0  0.0919  0  0.969042  0  0  0.102826  0  1.035282  0  0  0.104957  0  1.033369  0  0.09879  0  0.109028  0.101245  0  1.036665  0
H  H9  1  0.53471477  0.56377621  0.15064017  1  0  0.091854  0  0.969136  0  0  0.10277  0  1.035386  0  0  0.104907  0  1.033467  0  0.098784  0  0.108989  0.101178  0  1.036781  0
H  H10  1  0.53471322  0.06377519  0.34936180  1  0  0.091877  0  0.969086  0  0  0.102798  0  1.035332  0  0  0.10493  0  1.033418  0  0.098799  0  0.109012  0.101211  0  1.036723  0
H  H11  1  0.46528630  0.43622445  0.84936180  1  0  0.091875  0  0.9691  0  0  0.102802  0  1.035338  0  0  0.104935  0  1.033424  0  0.098795  0  0.109004  0.101222  0  1.036721  0
H  H12  1  0.33973555  0.19318352  0.72514758  1  0  0.094263  0  0.94809  0  0  0.110895  0  1.002295  0  0  0.112763  0  1.001059  0  0.088334  0  0.116337  0.109528  0  1.003238  0
H  H13  1  0.66026142  0.30681475  0.22514758  1  0  0.094242  0  0.948089  0  0  0.110875  0  1.002298  0  0  0.112744  0  1.00106  0  0.088341  0  0.116334  0.109508  0  1.003241  0
H  H14  1  0.66026386  0.80681508  0.27485176  1  0  0.094226  0  0.948105  0  0  0.110855  0  1.002315  0  0  0.112724  0  1.001078  0  0.088319  0  0.11632  0.109488  0  1.003258  0
H  H15  1  0.33973367  0.69318386  0.77485176  1  0  0.094262  0  0.948095  0  0  0.110886  0  1.002308  0  0  0.112756  0  1.00107  0  0.08832  0  0.116331  0.10952  0  1.00325  0
H  H16  1  0.16646918  0.95916975  0.61211203  1  0  0.077789  0  0.932341  0  0  0.097204  0  0.989987  0  0  0.097893  0  0.989716  0  0.051295  0  0.094758  0.096603  0  0.990304  0
H  H17  1  0.83352766  0.54083056  0.11211137  1  0  0.077775  0  0.932327  0  0  0.097207  0  0.989963  0  0  0.097892  0  0.989699  0  0.0513  0  0.09478  0.096606  0  0.990282  0
H  H18  1  0.83352934  0.04082954  0.38788863  1  0  0.077766  0  0.932369  0  0  0.097194  0  0.989984  0  0  0.097873  0  0.989724  0  0.051285  0  0.094771  0.096592  0  0.990304  0
H  H19  1  0.16647106  0.45916942  0.88788994  1  0  0.077774  0  0.932323  0  0  0.097206  0  0.989961  0  0  0.097885  0  0.9897  0  0.051295  0  0.094781  0.096606  0  0.990277  0
H  H20  1  0.12462944  0.06675699  0.63878001  1  0  0.076198  0  0.934675  0  0  0.092397  0  0.998189  0  0  0.092845  0  0.998344  0  0.047715  0  0.093172  0.092021  0  0.998121  0
H  H21  1  0.87537067  0.43324472  0.13877935  1  0  0.076152  0  0.93474  0  0  0.09236  0  0.998262  0  0  0.092809  0  0.998417  0  0.047768  0  0.093147  0.091991  0  0.998187  0
H  H22  1  0.87537016  0.93324231  0.36121999  1  0  0.076199  0  0.934703  0  0  0.092393  0  0.998207  0  0  0.092843  0  0.998361  0  0.047789  0  0.093181  0.092027  0  0.99813  0
H  H23  1  0.12462697  0.56675526  0.86122065  1  0  0.076147  0  0.934718  0  0  0.092354  0  0.998247  0  0  0.092802  0  0.998401  0  0.047838  0  0.093142  0.09198  0  0.998178  0
H  H24  1  0.36779386  0.20466872  0.51328480  1  0  0.097226  0  0.947976  0  0  0.111999  0  1.005347  0  0  0.114074  0  1.003717  0  0.1065  0  0.114786  0.11048  0  1.006521  0
H  H25  1  0.63220693  0.29533161  0.01328414  1  0  0.097123  0  0.947986  0  0  0.111897  0  1.00537  0  0  0.113973  0  1.003739  0  0.106532  0  0.114723  0.110377  0  1.006546  0
H  H26  1  0.63220594  0.79533126  0.48671586  1  0  0.097138  0  0.947942  0  0  0.11191  0  1.005326  0  0  0.113985  0  1.003696  0  0.10651  0  0.11475  0.11039  0  1.006501  0
H  H27  1  0.36779414  0.70466906  0.98671652  1  0  0.097127  0  0.947913  0  0  0.111883  0  1.005327  0  0  0.113959  0  1.003697  0  0.106525  0  0.114721  0.110363  0  1.006503  0
H  H28  1  0.11338217  0.94154225  0.43759937  1  0  0.093184  0  0.948806  0  0  0.109278  0  1.005856  0  0  0.111349  0  1.004125  0  0.077074  0  0.11458  0.10772  0  1.007167  0
H  H29  1  0.88661791  0.55845806  0.93759806  1  0  0.093171  0  0.948804  0  0  0.109265  0  1.00585  0  0  0.111335  0  1.004119  0  0.07701  0  0.114587  0.107693  0  1.007176  0
H  H30  1  0.88661851  0.05845704  0.56240129  1  0  0.093202  0  0.948761  0  0  0.109296  0  1.005809  0  0  0.111367  0  1.004077  0  0.077072  0  0.114599  0.107732  0  1.007127  0
H  H31  1  0.11338296  0.44154192  0.06240194  1  0  0.093178  0  0.948784  0  0  0.109272  0  1.005831  0  0  0.111343  0  1.004099  0  0.077033  0  0.114588  0.107705  0  1.007153  0
H  H32  1  0.78281095  0.45867520  0.51288731  1  0  0.094905  0  0.943111  0  0  0.11111  0  0.997587  0  0  0.113313  0  0.99569  0  0.122449  0  0.115004  0.109477  0  0.998926  0
H  H33  1  0.21718897  0.04132582  0.01288731  1  0  0.094922  0  0.943106  0  0  0.111128  0  0.997581  0  0  0.11333  0  0.995684  0  0.122465  0  0.115017  0.109496  0  0.99892  0
H  H34  1  0.21719140  0.54132615  0.48711269  1  0  0.094828  0  0.943143  0  0  0.111036  0  0.997624  0  0  0.113239  0  0.995726  0  0.122484  0  0.114988  0.109403  0  0.998963  0
H  H35  1  0.78281231  0.95867554  0.98711203  1  0  0.09491  0  0.943107  0  0  0.111108  0  0.997589  0  0  0.11331  0  0.995692  0  0.122455  0  0.115004  0.109477  0  0.998927  0
H  H36  1  0.66309870  0.17257217  0.58811426  1  0  0.094705  0  0.961956  0  0  0.10583  0  1.027787  0  0  0.107491  0  1.027147  0  0.076933  0  0.110465  0.104582  0  1.028264  0
H  H37  1  0.33689994  0.32742817  0.08811426  1  0  0.094681  0  0.961966  0  0  0.105809  0  1.027795  0  0  0.10747  0  1.027156  0  0.076742  0  0.110458  0.104564  0  1.028273  0
H  H38  1  0.33689846  0.82742987  0.41188574  1  0  0.094732  0  0.961972  0  0  0.105858  0  1.027794  0  0  0.107521  0  1.027154  0  0.076713  0  0.110471  0.104609  0  1.028269  0
H  H39  1  0.66310006  0.67257250  0.91188574  1  0  0.094689  0  0.961954  0  0  0.105824  0  1.027766  0  0  0.107485  0  1.027126  0  0.076758  0  0.110469  0.104575  0  1.028244  0
H  H40  1  0.64038170  0.30787810  0.37966089  1  0  0.072719  0  0.962934  0  0  0.08633  0  1.033143  0  0  0.086996  0  1.032791  0  0.04706  0  0.088875  0.085786  0  1.033436  0
H  H41  1  0.35961909  0.19212223  0.87966155  1  0  0.072702  0  0.962871  0  0  0.08631  0  1.033086  0  0  0.086976  0  1.032734  0  0.047068  0  0.088858  0.085765  0  1.033378  0
H  H42  1  0.35961829  0.69212257  0.62033911  1  0  0.072721  0  0.962943  0  0  0.086334  0  1.033136  0  0  0.087001  0  1.032782  0  0.047082  0  0.088874  0.085789  0  1.033429  0
H  H43  1  0.64038003  0.80787912  0.12033845  1  0  0.072717  0  0.962892  0  0  0.08634  0  1.033092  0  0  0.087006  0  1.03274  0  0.047042  0  0.088881  0.085796  0  1.033385  0
H  H44  1  0.68282708  0.20103118  0.41129542  1  0  0.078342  0  0.92887  0  0  0.09845  0  0.984871  0  0  0.09922  0  0.984517  0  0.047013  0  0.093891  0.097823  0  0.98517  0
H  H45  1  0.31717244  0.29896846  0.91129608  1  0  0.078332  0  0.92889  0  0  0.098436  0  0.984886  0  0  0.099205  0  0.984532  0  0.047018  0  0.093883  0.09781  0  0.985186  0
H  H46  1  0.31717311  0.79897017  0.58870523  1  0  0.078341  0  0.928814  0  0  0.098424  0  0.984835  0  0  0.099193  0  0.984482  0  0.04698  0  0.093882  0.097797  0  0.985135  0
H  H47  1  0.68282756  0.70103220  0.08870458  1  0  0.078359  0  0.928874  0  0  0.098469  0  0.984871  0  0  0.099237  0  0.984518  0  0.047033  0  0.093894  0.097842  0  0.985171  0
H  H48  1  0.98877551  0.18490283  0.39566181  1  0  0.093304  0  0.962216  0  0  0.105077  0  1.026148  0  0  0.10706  0  1.024548  0  0.09745  0  0.109799  0.103621  0  1.027301  0
H  H49  1  0.01122568  0.31509888  0.89566050  1  0  0.093342  0  0.962235  0  0  0.105109  0  1.026169  0  0  0.107093  0  1.024567  0  0.097411  0  0.109809  0.103653  0  1.027323  0
H  H50  1  0.01122380  0.81509921  0.60433884  1  0  0.093343  0  0.962178  0  0  0.105111  0  1.026115  0  0  0.107095  0  1.024514  0  0.097412  0  0.109817  0.103656  0  1.027268  0
H  H51  1  0.98877344  0.68490247  0.10433950  1  0  0.093289  0  0.962232  0  0  0.105067  0  1.026163  0  0  0.10705  0  1.024565  0  0.09745  0  0.10982  0.103611  0  1.027316  0
H  H52  1  0.87522859  0.44541454  0.32068411  1  0  0.096145  0  0.947051  0  0  0.112249  0  1.001503  0  0  0.114225  0  1.000163  0  0.05717  0  0.11611  0.110813  0  1.002475  0
H  H53  1  0.12477112  0.05458580  0.82068477  1  0  0.096151  0  0.947069  0  0  0.112257  0  1.001519  0  0  0.114235  0  1.000178  0  0.057177  0  0.116113  0.110821  0  1.002491  0
H  H54  1  0.12477160  0.55458682  0.67931523  1  0  0.096163  0  0.947084  0  0  0.11227  0  1.001535  0  0  0.114248  0  1.000193  0  0.057201  0  0.116128  0.110834  0  1.002507  0
H  H55  1  0.87522800  0.94541556  0.17931589  1  0  0.096187  0  0.947037  0  0  0.112264  0  1.001516  0  0  0.114241  0  1.000175  0  0.057146  0  0.116118  0.110828  0  1.002489  0
C  C56  1  0.21019866  0.03336818  0.60960383  1  0  -0.137629  0  3.791528  0  0  -0.186696  0  4.034174  0  0  -0.185509  0  4.048716  0  0.013317  0  -0.1489  -0.187227  0  4.024247  0
C  C57  1  0.78980086  0.46663146  0.10960317  1  0  -0.137572  0  3.791505  0  0  -0.186656  0  4.03425  0  0  -0.185471  0  4.048797  0  0.013301  0  -0.148913  -0.187192  0  4.024323  0
C  C58  1  0.78980182  0.96663042  0.39039748  1  0  -0.137631  0  3.791611  0  0  -0.186647  0  4.034213  0  0  -0.185455  0  4.048757  0  0.013254  0  -0.148918  -0.187185  0  4.024286  0
C  C59  1  0.21019894  0.53336852  0.89039748  1  0  -0.137526  0  3.791572  0  0  -0.186642  0  4.034295  0  0  -0.18545  0  4.048842  0  0.013218  0  -0.148899  -0.187173  0  4.024367  0
C  C60  1  0.34503793  0.05505252  0.66538830  1  0  -0.018635  0  3.819451  0  0  0.008092  0  4.067366  0  0  0.000337  0  4.094696  0  -0.013089  0  -0.042161  0.013018  0  4.048902  0
C  C61  1  0.65495944  0.44494713  0.16538764  1  0  -0.01867  0  3.819396  0  0  0.008024  0  4.067378  0  0  0.000269  0  4.094708  0  -0.012836  0  -0.042182  0.012949  0  4.048916  0
C  C62  1  0.65496039  0.94494609  0.33461301  1  0  -0.018681  0  3.819498  0  0  0.008019  0  4.067423  0  0  0.000264  0  4.094751  0  -0.012841  0  -0.042184  0.012944  0  4.048963  0
C  C63  1  0.34503693  0.55505216  0.83461170  1  0  -0.018616  0  3.819439  0  0  0.008115  0  4.067371  0  0  0.000362  0  4.094698  0  -0.013096  0  -0.042156  0.013039  0  4.04891  0
C  C64  1  0.45432455  0.00235423  0.67845140  1  0  -0.025896  0  3.759924  0  0  -0.072773  0  4.019466  0  0  -0.065935  0  4.03754  0  0.38369  0  -0.007437  -0.076974  0  4.006994  0
C  C65  1  0.54567390  0.49764542  0.17845074  1  0  -0.025874  0  3.760152  0  0  -0.072732  0  4.019688  0  0  -0.065897  0  4.03776  0  0.383444  0  -0.007438  -0.076922  0  4.007222  0
C  C66  1  0.54567378  0.99764438  0.32155057  1  0  -0.025855  0  3.760048  0  0  -0.072728  0  4.019583  0  0  -0.065891  0  4.037661  0  0.383462  0  -0.007452  -0.076922  0  4.007114  0
C  C67  1  0.45432375  0.50235456  0.82154991  1  0  -0.025906  0  3.760064  0  0  -0.072786  0  4.019606  0  0  -0.065949  0  4.037679  0  0.38367  0  -0.007453  -0.076987  0  4.007133  0
C  C68  1  0.39138189  0.13352909  0.71638725  1  0  -0.027708  0  3.765518  0  0  -0.075148  0  4.029762  0  0  -0.068628  0  4.048143  0  0.370736  0  -0.006071  -0.079197  0  4.017082  0
C  C69  1  0.60861548  0.36647055  0.21638725  1  0  -0.027632  0  3.765412  0  0  -0.075056  0  4.02966  0  0  -0.068535  0  4.048038  0  0.37076  0  -0.006055  -0.079105  0  4.016981  0
C  C70  1  0.60861644  0.86646951  0.28361341  1  0  -0.027627  0  3.765422  0  0  -0.075054  0  4.029661  0  0  -0.068534  0  4.048041  0  0.370735  0  -0.006053  -0.079104  0  4.016984  0
C  C71  1  0.39138089  0.63352874  0.78361209  1  0  -0.027702  0  3.765491  0  0  -0.075126  0  4.029726  0  0  -0.068608  0  4.048108  0  0.370741  0  -0.006078  -0.079175  0  4.017046  0
C  C72  1  0.23214647  0.06173028  0.51504198  1  0  -0.01882  0  3.809879  0  0  0.008486  0  4.057262  0  0  0.000775  0  4.08465  0  0.026497  0  -0.041579  0.013356  0  4.038773  0
C  C73  1  0.76785560  0.43827074  0.01504067  1  0  -0.018761  0  3.809884  0  0  0.008477  0  4.057372  0  0  0.000769  0  4.084759  0  0.026232  0  -0.041529  0.013347  0  4.038884  0
C  C74  1  0.76785616  0.93826833  0.48495933  1  0  -0.018736  0  3.809917  0  0  0.008485  0  4.057384  0  0  0.000776  0  4.08477  0  0.026263  0  -0.041556  0.013355  0  4.038897  0
C  C75  1  0.23214635  0.56172924  0.98495999  1  0  -0.018883  0  3.81005  0  0  0.008425  0  4.057464  0  0  0.000716  0  4.084849  0  0.026183  0  -0.041576  0.013295  0  4.038975  0
C  C76  1  0.30671467  0.14479365  0.47995605  1  0  -0.021731  0  3.749618  0  0  -0.069049  0  4.007882  0  0  -0.061894  0  4.025729  0  0.343366  0  -0.003762  -0.073494  0  3.995553  0
C  C77  1  0.69328633  0.35520737  0.97995474  1  0  -0.021604  0  3.749659  0  0  -0.06889  0  4.007912  0  0  -0.061737  0  4.025761  0  0.343622  0  -0.003686  -0.073334  0  3.995582  0
C  C78  1  0.69328601  0.85520565  0.52004526  1  0  -0.02157  0  3.749566  0  0  -0.068858  0  4.007832  0  0  -0.061703  0  4.025677  0  0.343639  0  -0.003698  -0.073303  0  3.995501  0
C  C79  1  0.30671367  0.64479329  0.02004591  1  0  -0.021649  0  3.749617  0  0  -0.068949  0  4.007863  0  0  -0.061796  0  4.025713  0  0.343674  0  -0.003733  -0.073393  0  3.995533  0
C  C80  1  0.17671740  0.01088375  0.44113276  1  0  -0.028644  0  3.775778  0  0  -0.07794  0  4.043137  0  0  -0.071492  0  4.06179  0  0.363213  0  -0.005168  -0.081886  0  4.030297  0
C  C81  1  0.82328447  0.48911658  0.94113276  1  0  -0.02861  0  3.775728  0  0  -0.077878  0  4.043096  0  0  -0.071427  0  4.061744  0  0.363261  0  -0.005163  -0.081812  0  4.030261  0
C  C82  1  0.82328436  0.98911554  0.55886724  1  0  -0.028674  0  3.775728  0  0  -0.077952  0  4.043105  0  0  -0.071504  0  4.061757  0  0.363218  0  -0.005178  -0.081893  0  4.030267  0
C  C83  1  0.17671748  0.51088340  0.05886724  1  0  -0.028551  0  3.775767  0  0  -0.077838  0  4.043114  0  0  -0.071389  0  4.061767  0  0.363261  0  -0.005144  -0.081776  0  4.030279  0
C  C84  1  0.72037572  0.27582210  0.41605274  1  0  -0.142884  0  3.790116  0  0  -0.191835  0  4.032883  0  0  -0.190576  0  4.047144  0  0.025849  0  -0.152461  -0.192364  0  4.023051  0
C  C85  1  0.27962420  0.22417892  0.91605274  1  0  -0.142869  0  3.790017  0  0  -0.191815  0  4.032759  0  0  -0.190556  0  4.047018  0  0.025828  0  -0.152464  -0.192346  0  4.022927  0
C  C86  1  0.27962468  0.72417994  0.58394792  1  0  -0.142851  0  3.789983  0  0  -0.191774  0  4.032688  0  0  -0.190514  0  4.046948  0  0.025839  0  -0.152444  -0.192304  0  4.022862  0
C  C87  1  0.72037492  0.77582243  0.08394726  1  0  -0.142919  0  3.789984  0  0  -0.191881  0  4.032775  0  0  -0.190622  0  4.047033  0  0.025857  0  -0.152483  -0.192408  0  4.022936  0
C  C88  1  0.72068960  0.30386938  0.51083891  1  0  -0.018995  0  3.822916  0  0  0.009476  0  4.068269  0  0  0.0016  0  4.09602  0  -0.025029  0  -0.044756  0.014455  0  4.049525  0
C  C89  1  0.27931120  0.19613095  0.01083956  1  0  -0.019014  0  3.822908  0  0  0.009468  0  4.068237  0  0  0.00159  0  4.095991  0  -0.024988  0  -0.04474  0.014454  0  4.049484  0
C  C90  1  0.27930757  0.69613266  0.48916109  1  0  -0.018998  0  3.822754  0  0  0.009471  0  4.068091  0  0  0.001588  0  4.095851  0  -0.024996  0  -0.044766  0.014447  0  4.049347  0
C  C91  1  0.72068988  0.80386972  0.98916044  1  0  -0.018981  0  3.822808  0  0  0.009487  0  4.068168  0  0  0.001613  0  4.095915  0  -0.025009  0  -0.044737  0.014468  0  4.049424  0
C  C92  1  0.75360370  0.39280904  0.54599764  1  0  -0.028502  0  3.769633  0  0  -0.076661  0  4.027202  0  0  -0.069962  0  4.045461  0  0.357744  0  -0.008825  -0.080797  0  4.014549  0
C  C93  1  0.24639602  0.10719129  0.04599764  1  0  -0.028504  0  3.769625  0  0  -0.076671  0  4.027194  0  0  -0.069972  0  4.045454  0  0.357716  0  -0.008822  -0.08081  0  4.01454  0
C  C94  1  0.24639454  0.60719300  0.45400236  1  0  -0.028313  0  3.769472  0  0  -0.076477  0  4.027041  0  0  -0.069777  0  4.045302  0  0.357748  0  -0.008738  -0.080612  0  4.014388  0
C  C95  1  0.75360486  0.89280869  0.95400171  1  0  -0.028478  0  3.769619  0  0  -0.076627  0  4.027185  0  0  -0.069929  0  4.045443  0  0.35775  0  -0.008803  -0.080767  0  4.014534  0
C  C96  1  0.69339566  0.24704277  0.58458284  1  0  -0.035413  0  3.775256  0  0  -0.082253  0  4.037487  0  0  -0.076179  0  4.056947  0  0.405635  0  -0.012021  -0.085972  0  4.024123  0
C  C97  1  0.30660641  0.25295825  0.08458284  1  0  -0.035393  0  3.775262  0  0  -0.082242  0  4.037498  0  0  -0.076168  0  4.05696  0  0.405794  0  -0.012044  -0.085968  0  4.024136  0
C  C98  1  0.30660366  0.75295927  0.41541781  1  0  -0.035526  0  3.775262  0  0  -0.082373  0  4.037508  0  0  -0.0763  0  4.056968  0  0.405624  0  -0.012067  -0.086088  0  4.024141  0
C  C99  1  0.69339574  0.74704242  0.91541650  1  0  -0.035367  0  3.775225  0  0  -0.082204  0  4.037462  0  0  -0.07613  0  4.056921  0  0.405668  0  -0.012023  -0.085925  0  4.024099  0
C  C100  1  0.86807850  0.30251733  0.37369868  1  0  -0.018414  0  3.817743  0  0  0.008  0  4.066898  0  0  0.000131  0  4.094515  0  -0.025394  0  -0.043621  0.012969  0  4.048263  0
C  C101  1  0.13192269  0.19748437  0.87369802  1  0  -0.018469  0  3.817674  0  0  0.007978  0  4.066775  0  0  0.000109  0  4.094393  0  -0.025396  0  -0.043629  0.012946  0  4.04814  0
C  C102  1  0.13192190  0.69748471  0.62630198  1  0  -0.018505  0  3.81767  0  0  0.007957  0  4.066749  0  0  8.9e-05  0  4.094365  0  -0.025387  0  -0.043642  0.012925  0  4.048113  0
C  C103  1  0.86807643  0.80251698  0.12630198  1  0  -0.018442  0  3.817776  0  0  0.007965  0  4.066938  0  0  9.7e-05  0  4.094555  0  -0.025398  0  -0.043651  0.012933  0  4.048304  0
C  C104  1  0.98350565  0.25327650  0.37117473  1  0  -0.027371  0  3.76352  0  0  -0.073886  0  4.023376  0  0  -0.067041  0  4.041504  0  0.356813  0  -0.007416  -0.078121  0  4.010855  0
C  C105  1  0.01649574  0.24672590  0.87117408  1  0  -0.027357  0  3.763407  0  0  -0.073886  0  4.023263  0  0  -0.067043  0  4.041393  0  0.357738  0  -0.007383  -0.078121  0  4.010741  0
C  C106  1  0.01649474  0.74672554  0.62882592  1  0  -0.02733  0  3.763386  0  0  -0.073863  0  4.023243  0  0  -0.067021  0  4.041373  0  0.357738  0  -0.007396  -0.078098  0  4.010722  0
C  C107  1  0.98350466  0.75327614  0.12882592  1  0  -0.027352  0  3.763542  0  0  -0.073872  0  4.023408  0  0  -0.067029  0  4.041539  0  0.357705  0  -0.007418  -0.078107  0  4.010888  0
C  C108  1  0.92630633  0.38612510  0.33312279  1  0  -0.029321  0  3.769727  0  0  -0.076549  0  4.032391  0  0  -0.070103  0  4.05096  0  0.442092  0  -0.006466  -0.080554  0  4.019601  0
C  C109  1  0.07369359  0.11387592  0.83312344  1  0  -0.029297  0  3.769685  0  0  -0.076537  0  4.032338  0  0  -0.070091  0  4.050906  0  0.442127  0  -0.006465  -0.080541  0  4.019548  0
C  C110  1  0.07369387  0.61387626  0.66687656  1  0  -0.029333  0  3.769701  0  0  -0.076586  0  4.032358  0  0  -0.070141  0  4.050926  0  0.4421  0  -0.00648  -0.08059  0  4.019567  0
C  C111  1  0.92630573  0.88612612  0.16687656  1  0  -0.029386  0  3.769708  0  0  -0.076587  0  4.032358  0  0  -0.070142  0  4.050927  0  0.442199  0  -0.006496  -0.080592  0  4.019568  0
N  N112  1  0.55720037  0.04625217  0.73388692  1  0  -0.290907  0  3.317822  0  0  -0.211382  0  3.598066  0  0  -0.228264  0  3.619136  0  -0.775596  0  -0.292274  -0.199835  0  3.583348  0
N  N113  1  0.44279934  0.45374816  0.23388627  1  0  -0.290881  0  3.317889  0  0  -0.211357  0  3.598122  0  0  -0.228239  0  3.619192  0  -0.775615  0  -0.292252  -0.199809  0  3.5834  0
N  N114  1  0.44279923  0.95374712  0.26611439  1  0  -0.290939  0  3.317827  0  0  -0.211412  0  3.598066  0  0  -0.228294  0  3.619134  0  -0.775592  0  -0.292263  -0.199864  0  3.583347  0
N  N115  1  0.55720065  0.54625250  0.76611373  1  0  -0.290917  0  3.317826  0  0  -0.21139  0  3.598073  0  0  -0.228272  0  3.619141  0  -0.775571  0  -0.292266  -0.199842  0  3.583355  0
N  N116  1  0.51797792  0.12732149  0.75806441  1  0  -0.298412  0  3.315447  0  0  -0.218048  0  3.595225  0  0  -0.235526  0  3.615589  0  -0.776026  0  -0.297391  -0.206096  0  3.580978  0
N  N117  1  0.48202308  0.37267953  0.25806572  1  0  -0.298453  0  3.315428  0  0  -0.218095  0  3.595203  0  0  -0.235572  0  3.615565  0  -0.776038  0  -0.297369  -0.206143  0  3.580958  0
N  N118  1  0.48202316  0.87267918  0.24193493  1  0  -0.298423  0  3.315425  0  0  -0.218065  0  3.595203  0  0  -0.235541  0  3.615566  0  -0.776028  0  -0.297362  -0.206112  0  3.580957  0
N  N119  1  0.51797564  0.62732045  0.74193493  1  0  -0.298422  0  3.315503  0  0  -0.218063  0  3.595275  0  0  -0.23554  0  3.615639  0  -0.775989  0  -0.297353  -0.20611  0  3.581028  0
N  N120  1  0.29599119  0.14287177  0.39137544  1  0  -0.298689  0  3.318085  0  0  -0.215522  0  3.600273  0  0  -0.233613  0  3.621571  0  -0.7745  0  -0.293917  -0.203153  0  3.585385  0
N  N121  1  0.70400852  0.35712856  0.89137479  1  0  -0.298766  0  3.318206  0  0  -0.215599  0  3.600396  0  0  -0.233691  0  3.621696  0  -0.774514  0  -0.29398  -0.203229  0  3.585508  0
N  N122  1  0.70400625  0.85712752  0.60862521  1  0  -0.298756  0  3.318151  0  0  -0.21559  0  3.600337  0  0  -0.233681  0  3.621636  0  -0.774548  0  -0.293935  -0.20322  0  3.585449  0
N  N123  1  0.29599255  0.64287210  0.10862587  1  0  -0.298684  0  3.318111  0  0  -0.215508  0  3.600277  0  0  -0.2336  0  3.621577  0  -0.774556  0  -0.293904  -0.203139  0  3.585389  0
N  N124  1  0.21355799  0.06024969  0.36734947  1  0  -0.301046  0  3.302097  0  0  -0.224454  0  3.587121  0  0  -0.241426  0  3.608274  0  -0.776796  0  -0.297867  -0.212865  0  3.572384  0
N  N125  1  0.78644280  0.43975064  0.86734881  1  0  -0.30104  0  3.302063  0  0  -0.224442  0  3.587082  0  0  -0.241415  0  3.608236  0  -0.776816  0  -0.29784  -0.212852  0  3.572338  0
N  N126  1  0.78644288  0.93975029  0.63265119  1  0  -0.301055  0  3.302086  0  0  -0.224457  0  3.587101  0  0  -0.241429  0  3.608253  0  -0.776804  0  -0.297872  -0.212868  0  3.572359  0
N  N127  1  0.21355915  0.56024934  0.13265053  1  0  -0.301067  0  3.302037  0  0  -0.224481  0  3.587061  0  0  -0.241453  0  3.608212  0  -0.776801  0  -0.297867  -0.212891  0  3.572319  0
N  N128  1  0.74637721  0.38843740  0.63444510  1  0  -0.287718  0  3.354593  0  0  -0.204005  0  3.634671  0  0  -0.221407  0  3.656132  0  -0.800128  0  -0.293596  -0.19211  0  3.619663  0
N  N129  1  0.25362290  0.11156431  0.13444510  1  0  -0.287648  0  3.354574  0  0  -0.203939  0  3.634649  0  0  -0.221339  0  3.656111  0  -0.800085  0  -0.293563  -0.192044  0  3.619642  0
N  N130  1  0.25362210  0.61156465  0.36555556  1  0  -0.287702  0  3.354514  0  0  -0.203995  0  3.634596  0  0  -0.221396  0  3.656057  0  -0.800013  0  -0.293594  -0.192101  0  3.619589  0
N  N131  1  0.74637710  0.88843635  0.86555490  1  0  -0.287691  0  3.354593  0  0  -0.203982  0  3.634668  0  0  -0.221383  0  3.65613  0  -0.800109  0  -0.293586  -0.192087  0  3.619661  0
N  N132  1  0.70888714  0.29861378  0.65836154  1  0  -0.293214  0  3.326409  0  0  -0.216333  0  3.606104  0  0  -0.233655  0  3.628167  0  -0.766927  0  -0.29454  -0.204512  0  3.590754  0
N  N133  1  0.29111386  0.20138724  0.15836154  1  0  -0.293263  0  3.326442  0  0  -0.216389  0  3.606145  0  0  -0.233712  0  3.628209  0  -0.766961  0  -0.294562  -0.204568  0  3.590796  0
N  N134  1  0.29111198  0.70138757  0.34163846  1  0  -0.293274  0  3.326351  0  0  -0.216394  0  3.606058  0  0  -0.233717  0  3.628122  0  -0.766798  0  -0.294582  -0.204573  0  3.590708  0
N  N135  1  0.70888702  0.79861274  0.84163781  1  0  -0.293289  0  3.326464  0  0  -0.216415  0  3.606171  0  0  -0.233738  0  3.628235  0  -0.766846  0  -0.294575  -0.204594  0  3.590821  0
N  N136  1  0.10140366  0.30396974  0.33176440  1  0  -0.29076  0  3.326863  0  0  -0.211509  0  3.605797  0  0  -0.228704  0  3.627171  0  -0.775045  0  -0.292749  -0.19975  0  3.590885  0
N  N137  1  0.89859754  0.19603197  0.83176374  1  0  -0.290781  0  3.326714  0  0  -0.211513  0  3.60565  0  0  -0.228709  0  3.627026  0  -0.776018  0  -0.292773  -0.199755  0  3.590737  0
N  N138  1  0.89859674  0.69603230  0.66823626  1  0  -0.290809  0  3.326798  0  0  -0.21155  0  3.605731  0  0  -0.228746  0  3.627108  0  -0.776067  0  -0.29277  -0.199792  0  3.590819  0
N  N139  1  0.10140158  0.80396938  0.16823691  1  0  -0.290707  0  3.326844  0  0  -0.211448  0  3.605771  0  0  -0.228643  0  3.627146  0  -0.775923  0  -0.292735  -0.19969  0  3.590859  0
N  N140  1  0.06581748  0.38597663  0.30784796  1  0  -0.29058  0  3.342567  0  0  -0.20764  0  3.623661  0  0  -0.225106  0  3.644725  0  -0.783389  0  -0.295785  -0.195743  0  3.608992  0
N  N141  1  0.93418263  0.11402508  0.80784796  1  0  -0.290586  0  3.342467  0  0  -0.207649  0  3.623566  0  0  -0.225115  0  3.644629  0  -0.783348  0  -0.295788  -0.195752  0  3.608897  0
N  N142  1  0.93418184  0.61402542  0.69215204  1  0  -0.29054  0  3.342451  0  0  -0.207594  0  3.623545  0  0  -0.22506  0  3.644609  0  -0.783336  0  -0.295774  -0.195698  0  3.608876  0
N  N143  1  0.06581756  0.88597627  0.19215138  1  0  -0.290591  0  3.34254  0  0  -0.207647  0  3.623619  0  0  -0.225114  0  3.644683  0  -0.783483  0  -0.295766  -0.195751  0  3.608949  0
