# generated using pymatgen
data_HgH6C8(BrN2)2
_symmetry_space_group_name_H-M   'P 1'
_cell_length_a   4.05233919
_cell_length_b   10.84985853
_cell_length_c   12.59426489
_cell_angle_alpha   93.75390042
_cell_angle_beta   90.00019892
_cell_angle_gamma   90.00019232
_symmetry_Int_Tables_number   1
_chemical_formula_structural   HgH6C8(BrN2)2
_chemical_formula_sum   'Hg2 H12 C16 Br4 N8'
_cell_volume   552.54785243
_cell_formula_units_Z   2
loop_
 _symmetry_equiv_pos_site_id
 _symmetry_equiv_pos_as_xyz
  1  'x, y, z'
loop_
 _atom_site_type_symbol
 _atom_site_label
 _atom_site_symmetry_multiplicity
 _atom_site_fract_x
 _atom_site_fract_y
 _atom_site_fract_z
 _atom_site_occupancy
 _atom_site_hle17_bader_spin_density
 _atom_site_hle17_ddec_charge
 _atom_site_hle17_ddec_spin_density
 _atom_site_hle17_ddec_sum_bond_order
 _atom_site_hle17_magmom
 _atom_site_hse06_10hf_bader_spin_density
 _atom_site_hse06_10hf_ddec_charge
 _atom_site_hse06_10hf_ddec_spin_density
 _atom_site_hse06_10hf_ddec_sum_bond_order
 _atom_site_hse06_10hf_magmom
 _atom_site_hse06_bader_spin_density
 _atom_site_hse06_ddec_charge
 _atom_site_hse06_ddec_spin_density
 _atom_site_hse06_ddec_sum_bond_order
 _atom_site_hse06_magmom
 _atom_site_pbe_bader_spin_density
 _atom_site_pbe_cm5_charge
 _atom_site_pbe_ddec_charge
 _atom_site_pbe_ddec_spin_density
 _atom_site_pbe_ddec_sum_bond_order
 _atom_site_pbe_magmom
Hg  Hg0  1  0.00002894  0.00000801  0.99999673  1  0  0.644614  0  2.119311  0  0  0.50244  0  2.610846  0  0  0.554276  0  2.578368  0  0  0.421666  0.46616  0  2.633683  0
Hg  Hg1  1  0.49999483  0.00000947  0.49999625  1  0  0.644578  0  2.119317  0  0  0.502416  0  2.610865  0  0  0.55425  0  2.578361  0  0  0.421662  0.46612  0  2.633732  0
H  H2  1  0.84978272  0.69404486  0.93783739  1  0  0.08646  0  0.976522  0  0  0.084873  0  1.059232  0  0  0.089095  0  1.054805  0  0  0.102447  0.081323  0  1.062906  0
H  H3  1  0.34975967  0.30595735  0.56215844  1  0  0.08662  0  0.976514  0  0  0.085027  0  1.059166  0  0  0.089241  0  1.054741  0  0  0.102521  0.081477  0  1.062845  0
H  H4  1  0.15025548  0.30595369  0.06215322  1  0  0.086589  0  0.976563  0  0  0.084994  0  1.059209  0  0  0.089216  0  1.054774  0  0  0.102435  0.08144  0  1.06289  0
H  H5  1  0.65020203  0.69403560  0.43784295  1  0  0.086493  0  0.976531  0  0  0.084947  0  1.059184  0  0  0.089167  0  1.054766  0  0  0.102496  0.081428  0  1.062838  0
H  H6  1  0.39087481  0.82961131  0.19981283  1  0  0.087139  0  0.976118  0  0  0.089205  0  1.052242  0  0  0.092365  0  1.049351  0  0  0.094127  0.086351  0  1.054949  0
H  H7  1  0.89084794  0.17039774  0.30018246  1  0  0.087154  0  0.976046  0  0  0.089285  0  1.052024  0  0  0.092447  0  1.049129  0  0  0.094141  0.086394  0  1.054765  0
H  H8  1  0.60914611  0.17039091  0.80018118  1  0  0.087098  0  0.975985  0  0  0.089223  0  1.05203  0  0  0.092389  0  1.049128  0  0  0.094148  0.086354  0  1.054749  0
H  H9  1  0.10910636  0.82959708  0.69981507  1  0  0.087199  0  0.975984  0  0  0.089229  0  1.052122  0  0  0.092396  0  1.049223  0  0  0.094158  0.08637  0  1.054833  0
H  H10  1  0.48678170  0.61003155  0.25250836  1  0  0.086709  0  0.95533  0  0  0.088524  0  1.026861  0  0  0.09202  0  1.024522  0  0  0.111195  0.085763  0  1.028989  0
H  H11  1  0.98672165  0.38997666  0.24749972  1  0  0.086711  0  0.955171  0  0  0.088536  0  1.026747  0  0  0.09203  0  1.024407  0  0  0.111179  0.085783  0  1.028854  0
H  H12  1  0.51325650  0.38997618  0.74749471  1  0  0.086863  0  0.955404  0  0  0.088665  0  1.026954  0  0  0.092164  0  1.024609  0  0  0.111214  0.085902  0  1.029092  0
H  H13  1  0.01323512  0.61001714  0.75251681  1  0  0.08681  0  0.955224  0  0  0.088601  0  1.026788  0  0  0.0921  0  1.024444  0  0  0.111204  0.085841  0  1.028907  0
C  C14  1  0.06100917  0.55346484  0.03372220  1  0  0.131226  0  3.762729  0  0  0.132111  0  4.009308  0  0  0.134134  0  4.030207  0  0  0.120924  0.130645  0  3.994997  0
C  C15  1  0.56093664  0.44653636  0.46626820  1  0  0.131296  0  3.762852  0  0  0.131881  0  4.009828  0  0  0.133902  0  4.030727  0  0  0.120682  0.130416  0  3.995519  0
C  C16  1  0.93905865  0.44653745  0.96625752  1  0  0.13129  0  3.763568  0  0  0.132111  0  4.010156  0  0  0.13413  0  4.031062  0  0  0.120828  0.130646  0  3.99584  0
C  C17  1  0.43899298  0.55345749  0.53373880  1  0  0.131173  0  3.763158  0  0  0.131975  0  4.009987  0  0  0.134001  0  4.030887  0  0  0.120775  0.130511  0  3.995683  0
C  C18  1  0.99720957  0.67483913  0.00734472  1  0  0.05384  0  3.663473  0  0  0.020593  0  3.916211  0  0  0.022796  0  3.934385  0  0  0.050705  0.019121  0  3.904383  0
C  C19  1  0.49714593  0.32516727  0.49265770  1  0  0.053705  0  3.663179  0  0  0.020573  0  3.916023  0  0  0.022783  0  3.934192  0  0  0.050708  0.019093  0  3.904203  0
C  C20  1  0.00287305  0.32517234  0.99264904  1  0  0.053666  0  3.663208  0  0  0.020471  0  3.915934  0  0  0.022683  0  3.934098  0  0  0.050741  0.018988  0  3.90413  0
C  C21  1  0.50278616  0.67482657  0.50735010  1  0  0.053871  0  3.663381  0  0  0.020637  0  3.916162  0  0  0.022831  0  3.934351  0  0  0.050789  0.019143  0  3.904298  0
C  C22  1  0.29040639  0.74981678  0.15331795  1  0  0.078909  0  3.675724  0  0  0.051738  0  3.928361  0  0  0.054455  0  3.947723  0  0  0.044094  0.05016  0  3.915515  0
C  C23  1  0.79037070  0.25019853  0.34668791  1  0  0.078772  0  3.676094  0  0  0.051649  0  3.928641  0  0  0.054367  0  3.948006  0  0  0.044078  0.050103  0  3.915801  0
C  C24  1  0.70961947  0.25019183  0.84669073  1  0  0.079105  0  3.676204  0  0  0.051912  0  3.928803  0  0  0.054622  0  3.948179  0  0  0.044189  0.050352  0  3.91595  0
C  C25  1  0.20958360  0.74979531  0.65331989  1  0  0.079013  0  3.675656  0  0  0.051864  0  3.928344  0  0  0.054578  0  3.947708  0  0  0.044173  0.050293  0  3.915493  0
C  C26  1  0.34631199  0.62874649  0.18118564  1  0  0.081189  0  3.685246  0  0  0.060949  0  3.942906  0  0  0.061704  0  3.960317  0  0  0.050385  0.060081  0  3.931357  0
C  C27  1  0.84627953  0.37125139  0.31881289  1  0  0.081375  0  3.685012  0  0  0.061053  0  3.942606  0  0  0.061812  0  3.960004  0  0  0.050393  0.060192  0  3.931051  0
C  C28  1  0.65368673  0.37124650  0.81880543  1  0  0.081008  0  3.684884  0  0  0.060733  0  3.94249  0  0  0.061488  0  3.959891  0  0  0.050294  0.059866  0  3.930938  0
C  C29  1  0.15368217  0.62873690  0.68119695  1  0  0.081065  0  3.685014  0  0  0.060869  0  3.942569  0  0  0.061624  0  3.959966  0  0  0.050368  0.060004  0  3.931026  0
Br  Br30  1  0.39471127  0.09025151  0.14235271  1  0  -0.375788  0  1.185254  0  0  -0.321196  0  1.520509  0  0  -0.341475  0  1.501225  0  0  -0.190992  -0.304644  0  1.533729  0
Br  Br31  1  0.89471074  0.90977416  0.35764597  1  0  -0.375738  0  1.185239  0  0  -0.321159  0  1.520532  0  0  -0.341407  0  1.501185  0  0  -0.191001  -0.304608  0  1.533766  0
Br  Br32  1  0.60536394  0.90974607  0.85764658  1  0  -0.375774  0  1.185342  0  0  -0.321179  0  1.520609  0  0  -0.341468  0  1.501357  0  0  -0.19099  -0.30463  0  1.533836  0
Br  Br33  1  0.10525837  0.09022713  0.64235037  1  0  -0.375798  0  1.185276  0  0  -0.321228  0  1.520574  0  0  -0.341486  0  1.501254  0  0  -0.191038  -0.304676  0  1.533803  0
N  N34  1  0.23313719  0.53096323  0.12205129  1  0  -0.295078  0  3.047564  0  0  -0.263759  0  3.309662  0  0  -0.271552  0  3.325188  0  0  -0.295771  -0.257966  0  3.299038  0
N  N35  1  0.73307644  0.46904927  0.37794717  1  0  -0.295124  0  3.047293  0  0  -0.263638  0  3.309416  0  0  -0.271429  0  3.324941  0  0  -0.295572  -0.257849  0  3.298793  0
N  N36  1  0.76692322  0.46904913  0.87794888  1  0  -0.295075  0  3.04749  0  0  -0.26367  0  3.309525  0  0  -0.271463  0  3.325055  0  0  -0.295652  -0.257874  0  3.298895  0
N  N37  1  0.26688033  0.53095104  0.62206022  1  0  -0.295121  0  3.04763  0  0  -0.263725  0  3.3097  0  0  -0.271516  0  3.325223  0  0  -0.295751  -0.257931  0  3.299072  0
N  N38  1  0.11178335  0.77167816  0.06709273  1  0  -0.257029  0  3.213269  0  0  -0.194386  0  3.473087  0  0  -0.210815  0  3.496538  0  0  -0.297998  -0.184039  0  3.457934  0
N  N39  1  0.61175809  0.22832584  0.43290585  1  0  -0.256971  0  3.213045  0  0  -0.19436  0  3.472823  0  0  -0.210799  0  3.49628  0  0  -0.297957  -0.184011  0  3.457656  0
N  N40  1  0.88825238  0.22832226  0.93289005  1  0  -0.256971  0  3.212951  0  0  -0.194352  0  3.472781  0  0  -0.210786  0  3.496233  0  0  -0.29798  -0.184005  0  3.457618  0
N  N41  1  0.38819127  0.77166984  0.56710364  1  0  -0.257069  0  3.212957  0  0  -0.194434  0  3.472814  0  0  -0.210868  0  3.496272  0  0  -0.298015  -0.184088  0  3.457672  0
