# generated using pymatgen
data_ZnH14C19(NO2)2
_symmetry_space_group_name_H-M   'P 1'
_cell_length_a   8.73901407
_cell_length_b   10.14812894
_cell_length_c   10.82510626
_cell_angle_alpha   77.01592669
_cell_angle_beta   70.38907853
_cell_angle_gamma   84.26659186
_symmetry_Int_Tables_number   1
_chemical_formula_structural   ZnH14C19(NO2)2
_chemical_formula_sum   'Zn2 H28 C38 N4 O8'
_cell_volume   880.89803478
_cell_formula_units_Z   2
loop_
 _symmetry_equiv_pos_site_id
 _symmetry_equiv_pos_as_xyz
  1  'x, y, z'
loop_
 _atom_site_type_symbol
 _atom_site_label
 _atom_site_symmetry_multiplicity
 _atom_site_fract_x
 _atom_site_fract_y
 _atom_site_fract_z
 _atom_site_occupancy
 _atom_site_hle17_bader_spin_density
 _atom_site_hle17_ddec_charge
 _atom_site_hle17_ddec_spin_density
 _atom_site_hle17_ddec_sum_bond_order
 _atom_site_hle17_magmom
 _atom_site_hse06_10hf_bader_spin_density
 _atom_site_hse06_10hf_ddec_charge
 _atom_site_hse06_10hf_ddec_spin_density
 _atom_site_hse06_10hf_ddec_sum_bond_order
 _atom_site_hse06_10hf_magmom
 _atom_site_hse06_bader_spin_density
 _atom_site_hse06_ddec_charge
 _atom_site_hse06_ddec_spin_density
 _atom_site_hse06_ddec_sum_bond_order
 _atom_site_hse06_magmom
 _atom_site_pbe_bader_spin_density
 _atom_site_pbe_cm5_charge
 _atom_site_pbe_ddec_charge
 _atom_site_pbe_ddec_spin_density
 _atom_site_pbe_ddec_sum_bond_order
 _atom_site_pbe_magmom
Zn  Zn0  1  0.43776920  0.37785266  0.90454205  1  0  1.040527  0  1.819077  0  0  0.85333  0  2.283377  0  0  0.904756  0  2.225593  0  0  0.683827  0.815114  0  2.324931  0
Zn  Zn1  1  0.56223973  0.62214755  0.09545504  1  0  1.040597  0  1.818963  0  0  0.853396  0  2.28323  0  0  0.904813  0  2.225449  0  0  0.68385  0.815184  0  2.32478  0
H  H2  1  0.32550693  0.19580754  0.17872795  1  0  0.086015  0  0.940718  0  0  0.095647  0  1.00202  0  0  0.097565  0  1.000875  0  0  0.121149  0.094147  0  1.002981  0
H  H3  1  0.67449297  0.80419460  0.82126030  1  0  0.086028  0  0.940831  0  0  0.09565  0  1.002119  0  0  0.097602  0  1.000933  0  0  0.121168  0.09415  0  1.003075  0
H  H4  1  0.12657627  0.19805316  0.40416269  1  0  0.094364  0  0.99213  0  0  0.104881  0  1.056458  0  0  0.107591  0  1.055948  0  0  0.103648  0.102859  0  1.057003  0
H  H5  1  0.87343118  0.80194808  0.59582908  1  0  0.094273  0  0.992229  0  0  0.104865  0  1.056498  0  0  0.107555  0  1.056009  0  0  0.103629  0.102857  0  1.057026  0
H  H6  1  0.91273050  0.56373517  0.22586632  1  0  0.130806  0  0.976627  0  0  0.13915  0  1.037676  0  0  0.143204  0  1.035402  0  0  0.111469  0.136169  0  1.039524  0
H  H7  1  0.08726985  0.43626589  0.77413219  1  0  0.130862  0  0.976642  0  0  0.139165  0  1.037709  0  0  0.143222  0  1.035436  0  0  0.111474  0.136182  0  1.039554  0
H  H8  1  0.12395611  0.54684951  0.01120660  1  0  0.078669  0  0.952045  0  0  0.08936  0  1.010886  0  0  0.09089  0  1.010228  0  0  0.118906  0.088102  0  1.011644  0
H  H9  1  0.87603914  0.45315249  0.98878858  1  0  0.078725  0  0.952034  0  0  0.089409  0  1.010878  0  0  0.090939  0  1.010225  0  0  0.118938  0.088152  0  1.01163  0
H  H10  1  0.00278905  0.24221480  0.59076536  1  0  0.104284  0  0.953885  0  0  0.116538  0  1.011888  0  0  0.119439  0  1.011133  0  0  0.108583  0.114364  0  1.012718  0
H  H11  1  0.99721749  0.75778035  0.40922608  1  0  0.104321  0  0.953883  0  0  0.11658  0  1.011886  0  0  0.119482  0  1.011129  0  0  0.108651  0.114407  0  1.012722  0
H  H12  1  0.78179989  0.24996438  0.80501633  1  0  0.096063  0  0.918584  0  0  0.107456  0  0.972858  0  0  0.110175  0  0.970626  0  0  0.124947  0.105326  0  0.974631  0
H  H13  1  0.21821322  0.75002580  0.19497975  1  0  0.096012  0  0.918689  0  0  0.10747  0  0.972895  0  0  0.110163  0  0.970691  0  0  0.124963  0.10534  0  0.974677  0
H  H14  1  0.52087779  0.54027046  0.61904806  1  0  0.083855  0  0.963513  0  0  0.091811  0  1.0286  0  0  0.094344  0  1.026362  0  0  0.116651  0.089871  0  1.030337  0
H  H15  1  0.47913501  0.45973178  0.38095673  1  0  0.083708  0  0.963586  0  0  0.091757  0  1.028573  0  0  0.094272  0  1.026379  0  0  0.116624  0.089813  0  1.030312  0
H  H16  1  0.72456787  0.54415944  0.39456574  1  0  0.131533  0  0.990187  0  0  0.138227  0  1.055134  0  0  0.142452  0  1.052403  0  0  0.110834  0.135079  0  1.057374  0
H  H17  1  0.27543747  0.45584169  0.60543499  1  0  0.131496  0  0.990232  0  0  0.138229  0  1.055124  0  0  0.142453  0  1.052395  0  0  0.110834  0.13508  0  1.057365  0
H  H18  1  0.38421442  0.92312731  0.94087211  1  0  0.124649  0  0.939541  0  0  0.131072  0  1.006092  0  0  0.13606  0  1.001163  0  0  0.109182  0.127375  0  1.009874  0
H  H19  1  0.61576657  0.07687635  0.05913799  1  0  0.124596  0  0.939623  0  0  0.130989  0  1.00621  0  0  0.135976  0  1.00128  0  0  0.109143  0.12729  0  1.009993  0
H  H20  1  0.32244583  0.73252715  0.64403650  1  0  0.097352  0  0.968478  0  0  0.105541  0  1.037266  0  0  0.108634  0  1.035597  0  0  0.09736  0.103268  0  1.038553  0
H  H21  1  0.67755396  0.26746877  0.35597247  1  0  0.097429  0  0.968431  0  0  0.105604  0  1.03724  0  0  0.1087  0  1.035566  0  0  0.097356  0.103332  0  1.038528  0
H  H22  1  0.28741213  0.16724846  0.59464811  1  0  0.095481  0  0.950229  0  0  0.105405  0  1.015167  0  0  0.109366  0  1.011999  0  0  0.098845  0.102484  0  1.017528  0
H  H23  1  0.71257884  0.83274634  0.40535350  1  0  0.095485  0  0.950248  0  0  0.105449  0  1.015147  0  0  0.109418  0  1.01196  0  0  0.098878  0.102528  0  1.017511  0
H  H24  1  0.31897391  0.87025468  0.42970865  1  0  0.111129  0  0.956987  0  0  0.13234  0  1.015892  0  0  0.133214  0  1.017375  0  0  0.090136  0.1317  0  1.014921  0
H  H25  1  0.68102596  0.12973822  0.57029814  1  0  0.111099  0  0.95697  0  0  0.132342  0  1.01584  0  0  0.133216  0  1.017326  0  0  0.09013  0.131703  0  1.014869  0
H  H26  1  0.33917965  0.04776822  0.39638455  1  0  0.10479  0  0.966472  0  0  0.125795  0  1.030126  0  0  0.125998  0  1.032177  0  0  0.090141  0.125625  0  1.028697  0
H  H27  1  0.66081909  0.95222264  0.60362206  1  0  0.104822  0  0.966434  0  0  0.125815  0  1.030115  0  0  0.126018  0  1.032165  0  0  0.090146  0.125642  0  1.028693  0
H  H28  1  0.14463155  0.97491663  0.48004582  1  0  0.093313  0  0.957881  0  0  0.114399  0  1.022283  0  0  0.115597  0  1.021649  0  0  0.084104  0.113651  0  1.02251  0
H  H29  1  0.85536695  0.02507427  0.51995439  1  0  0.093346  0  0.957749  0  0  0.114431  0  1.022161  0  0  0.115631  0  1.021524  0  0  0.084099  0.113684  0  1.022388  0
C  C30  1  0.23334879  0.27657588  0.19480714  1  0  0.136899  0  3.698332  0  0  0.107568  0  3.943515  0  0  0.114253  0  3.962484  0  0  0.049683  0.103226  0  3.930403  0
C  C31  1  0.76665240  0.72342727  0.80518422  1  0  0.136788  0  3.69834  0  0  0.107471  0  3.943544  0  0  0.114135  0  3.962501  0  0  0.049608  0.103136  0  3.930437  0
C  C32  1  0.12126123  0.27886708  0.32059317  1  0  -0.163616  0  3.711381  0  0  -0.181466  0  3.955985  0  0  -0.189243  0  3.978087  0  0  -0.083998  -0.176202  0  3.941013  0
C  C33  1  0.87874367  0.72113613  0.67939895  1  0  -0.163546  0  3.711344  0  0  -0.18147  0  3.955963  0  0  -0.189233  0  3.978086  0  0  -0.084025  -0.176214  0  3.940987  0
C  C34  1  0.00279264  0.38328991  0.33786050  1  0  0.100001  0  3.744571  0  0  0.110804  0  3.976839  0  0  0.114484  0  3.99906  0  0  0.014105  0.108489  0  3.961751  0
C  C35  1  0.99721230  0.61671429  0.66213417  1  0  0.100118  0  3.744559  0  0  0.110883  0  3.97683  0  0  0.114579  0  3.999058  0  0  0.014143  0.108561  0  3.961755  0
C  C36  1  0.00214240  0.48041944  0.22289963  1  0  -0.149982  0  3.655314  0  0  -0.168551  0  3.9032  0  0  -0.176087  0  3.923228  0  0  -0.075526  -0.163898  0  3.890181  0
C  C37  1  0.99785897  0.51958368  0.77709631  1  0  -0.150113  0  3.655493  0  0  -0.168603  0  3.903337  0  0  -0.176141  0  3.923363  0  0  -0.075538  -0.163941  0  3.890309  0
C  C38  1  0.12012176  0.47163783  0.10125772  1  0  0.145646  0  3.695928  0  0  0.113136  0  3.949098  0  0  0.120346  0  3.967196  0  0  0.051561  0.108321  0  3.937114  0
C  C39  1  0.87987705  0.52836627  0.89873692  1  0  0.145529  0  3.696067  0  0  0.113008  0  3.949231  0  0  0.12022  0  3.96733  0  0  0.051509  0.108191  0  3.937239  0
C  C40  1  0.88194128  0.38918885  0.47038562  1  0  0.090246  0  3.75525  0  0  0.099703  0  3.990451  0  0  0.103705  0  4.012207  0  0  0.011337  0.097231  0  3.975724  0
C  C41  1  0.11806774  0.61080935  0.52961094  1  0  0.090181  0  3.75534  0  0  0.099667  0  3.990533  0  0  0.103616  0  4.012366  0  0  0.01127  0.097189  0  3.975812  0
C  C42  1  0.89698920  0.30845159  0.58975490  1  0  -0.160875  0  3.705683  0  0  -0.178746  0  3.95624  0  0  -0.186317  0  3.977147  0  0  -0.080191  -0.174282  0  3.942593  0
C  C43  1  0.10302103  0.69154563  0.41023965  1  0  -0.160961  0  3.705824  0  0  -0.178876  0  3.956427  0  0  -0.186431  0  3.977344  0  0  -0.080282  -0.174408  0  3.942786  0
C  C44  1  0.77495899  0.31267684  0.71087119  1  0  0.13699  0  3.691901  0  0  0.106157  0  3.943039  0  0  0.113337  0  3.960765  0  0  0.05432  0.101619  0  3.931006  0
C  C45  1  0.22505130  0.68732037  0.28912520  1  0  0.137028  0  3.692201  0  0  0.106137  0  3.943287  0  0  0.113339  0  3.961013  0  0  0.054253  0.101591  0  3.931259  0
C  C46  1  0.62898106  0.47460994  0.60669134  1  0  0.133278  0  3.701636  0  0  0.102417  0  3.951131  0  0  0.109086  0  3.970275  0  0  0.046054  0.098145  0  3.938126  0
C  C47  1  0.37102696  0.52538819  0.39331107  1  0  0.133523  0  3.701388  0  0  0.102548  0  3.950913  0  0  0.109215  0  3.970052  0  0  0.046173  0.098279  0  3.937896  0
C  C48  1  0.74415644  0.47568314  0.48158328  1  0  -0.171316  0  3.680903  0  0  -0.189438  0  3.930066  0  0  -0.197556  0  3.950271  0  0  -0.083176  -0.184162  0  3.916843  0
C  C49  1  0.25584777  0.52431695  0.51841892  1  0  -0.171304  0  3.68093  0  0  -0.189457  0  3.93011  0  0  -0.197556  0  3.950325  0  0  -0.083196  -0.184175  0  3.916881  0
C  C50  1  0.33128241  0.05756268  0.77368576  1  0  -0.053431  0  3.773374  0  0  -0.025692  0  4.004266  0  0  -0.033999  0  4.02736  0  0  -0.01858  -0.020543  0  3.988867  0
C  C51  1  0.66869847  0.94244000  0.22631996  1  0  -0.053243  0  3.773162  0  0  -0.025568  0  4.004166  0  0  -0.033876  0  4.027261  0  0  -0.018466  -0.020429  0  3.988778  0
C  C52  1  0.35673257  0.93055887  0.84841307  1  0  -0.076241  0  3.682857  0  0  -0.115627  0  3.931245  0  0  -0.112891  0  3.948359  0  0  -0.080546  -0.117338  0  3.920404  0
C  C53  1  0.64325211  0.06944285  0.15159450  1  0  -0.076055  0  3.682632  0  0  -0.115417  0  3.931017  0  0  -0.112675  0  3.948129  0  0  -0.080501  -0.117129  0  3.920175  0
C  C54  1  0.35086457  0.81361958  0.80196199  1  0  -0.082763  0  3.797702  0  0  -0.056254  0  4.036528  0  0  -0.065927  0  4.060404  0  0  -0.026538  -0.050173  0  4.020702  0
C  C55  1  0.64912631  0.18638124  0.19804581  1  0  -0.082943  0  3.79791  0  0  -0.056413  0  4.036647  0  0  -0.066097  0  4.060539  0  0  -0.026581  -0.050324  0  4.020804  0
C  C56  1  0.32349393  0.82467557  0.67955335  1  0  -0.121251  0  3.693724  0  0  -0.154765  0  3.935776  0  0  -0.153693  0  3.955184  0  0  -0.088569  -0.154674  0  3.922205  0
C  C57  1  0.67649959  0.17532126  0.32045356  1  0  -0.121211  0  3.694058  0  0  -0.154758  0  3.936089  0  0  -0.153681  0  3.955498  0  0  -0.08855  -0.154671  0  3.922513  0
C  C58  1  0.29987591  0.95081038  0.60297221  1  0  0.130542  0  3.776406  0  0  0.16237  0  4.011985  0  0  0.160663  0  4.037354  0  0  -0.013892  0.163187  0  3.994636  0
C  C59  1  0.70011408  0.04918336  0.39703453  1  0  0.130438  0  3.776554  0  0  0.162322  0  4.01207  0  0  0.160614  0  4.037444  0  0  -0.013861  0.163143  0  3.994713  0
C  C60  1  0.30234387  0.06656831  0.65240845  1  0  -0.119879  0  3.690207  0  0  -0.152386  0  3.931459  0  0  -0.15162  0  3.950036  0  0  -0.08457  -0.152219  0  3.918557  0
C  C61  1  0.69764105  0.93342737  0.34759660  1  0  -0.119953  0  3.69042  0  0  -0.152499  0  3.93168  0  0  -0.15173  0  3.950256  0  0  -0.084646  -0.152338  0  3.918793  0
C  C62  1  0.34420021  0.18493956  0.81792058  1  0  0.623567  0  3.946936  0  0  0.578252  0  4.233435  0  0  0.61201  0  4.227511  0  0  0.191593  0.555432  0  4.236174  0
C  C63  1  0.65578999  0.81506738  0.18207784  1  0  0.623596  0  3.9466  0  0  0.578271  0  4.233139  0  0  0.612028  0  4.227215  0  0  0.191555  0.555454  0  4.235879  0
C  C64  1  0.37974179  0.67692409  0.88035854  1  0  0.658357  0  3.904563  0  0  0.602719  0  4.202487  0  0  0.638428  0  4.193467  0  0  0.213301  0.578467  0  4.207776  0
C  C65  1  0.62026244  0.32307799  0.11964694  1  0  0.658266  0  3.904411  0  0  0.602683  0  4.20222  0  0  0.638391  0  4.1932  0  0  0.213316  0.578446  0  4.207485  0
C  C66  1  0.27454349  0.96157726  0.47034794  1  0  -0.332009  0  3.732439  0  0  -0.412437  0  3.966435  0  0  -0.414715  0  3.977673  0  0  -0.240964  -0.41065  0  3.958587  0
C  C67  1  0.72545272  0.03841357  0.52965665  1  0  -0.332034  0  3.732244  0  0  -0.412509  0  3.966262  0  0  -0.41479  0  3.977497  0  0  -0.241002  -0.410723  0  3.958418  0
N  N68  1  0.23560548  0.37305853  0.08636878  1  0  -0.318576  0  3.259655  0  0  -0.239637  0  3.524251  0  0  -0.258057  0  3.539719  0  0  -0.316853  -0.226916  0  3.513667  0
N  N69  1  0.76439333  0.62694457  0.91362422  1  0  -0.318419  0  3.259643  0  0  -0.239486  0  3.524241  0  0  -0.257916  0  3.539729  0  0  -0.316746  -0.226768  0  3.513659  0
N  N70  1  0.64163918  0.39346923  0.71980783  1  0  -0.309491  0  3.253995  0  0  -0.232233  0  3.515025  0  0  -0.25084  0  3.532941  0  0  -0.315844  -0.219639  0  3.502697  0
N  N71  1  0.35837480  0.60652905  0.28019003  1  0  -0.309555  0  3.253991  0  0  -0.2322  0  3.51495  0  0  -0.250805  0  3.532855  0  0  -0.315823  -0.219598  0  3.502611  0
O  O72  1  0.41421654  0.17536059  0.90674781  1  0  -0.63112  0  2.003945  0  0  -0.568121  0  2.252754  0  0  -0.597483  0  2.242032  0  0  -0.328035  -0.547016  0  2.259232  0
O  O73  1  0.58577503  0.82464435  0.09325154  1  0  -0.631124  0  2.003945  0  0  -0.568108  0  2.252748  0  0  -0.597469  0  2.242028  0  0  -0.328029  -0.547004  0  2.259226  0
O  O74  1  0.29203395  0.29651935  0.76437101  1  0  -0.64602  0  1.955547  0  0  -0.596443  0  2.187936  0  0  -0.620803  0  2.177824  0  0  -0.331352  -0.578035  0  2.194351  0
O  O75  1  0.70796099  0.70348671  0.23562158  1  0  -0.646115  0  1.955306  0  0  -0.596518  0  2.187687  0  0  -0.62088  0  2.177578  0  0  -0.331366  -0.57811  0  2.194103  0
O  O76  1  0.39617160  0.67043514  0.99364713  1  0  -0.656077  0  2.13448  0  0  -0.594826  0  2.425097  0  0  -0.621589  0  2.409217  0  0  -0.322533  -0.575484  0  2.434921  0
O  O77  1  0.60382866  0.32957293  0.00635920  1  0  -0.656017  0  2.134567  0  0  -0.594736  0  2.425045  0  0  -0.621507  0  2.40918  0  0  -0.322529  -0.5754  0  2.434862  0
O  O78  1  0.38263344  0.57502159  0.82836437  1  0  -0.635686  0  2.096092  0  0  -0.567475  0  2.371792  0  0  -0.594793  0  2.357102  0  0  -0.31054  -0.548027  0  2.381816  0
O  O79  1  0.61737680  0.42498162  0.17163912  1  0  -0.635694  0  2.095892  0  0  -0.567502  0  2.371554  0  0  -0.594796  0  2.356847  0  0  -0.310599  -0.54809  0  2.381625  0
