# generated using pymatgen
data_CuH12C22(NO2)4
_symmetry_space_group_name_H-M   'P 1'
_cell_length_a   7.48313720
_cell_length_b   13.19016010
_cell_length_c   15.86547721
_cell_angle_alpha   79.25190434
_cell_angle_beta   83.00783264
_cell_angle_gamma   85.93635657
_symmetry_Int_Tables_number   1
_chemical_formula_structural   CuH12C22(NO2)4
_chemical_formula_sum   'Cu3 H36 C66 N12 O24'
_cell_volume   1525.20402362
_cell_formula_units_Z   3
loop_
 _symmetry_equiv_pos_site_id
 _symmetry_equiv_pos_as_xyz
  1  'x, y, z'
loop_
 _atom_site_type_symbol
 _atom_site_label
 _atom_site_symmetry_multiplicity
 _atom_site_fract_x
 _atom_site_fract_y
 _atom_site_fract_z
 _atom_site_occupancy
 _atom_site_pbe_bader_charge
 _atom_site_pbe_bader_spin_density
 _atom_site_pbe_cm5_charge
 _atom_site_pbe_ddec_charge
 _atom_site_pbe_ddec_spin_density
 _atom_site_pbe_ddec_sum_bond_order
 _atom_site_pbe_magmom
Cu  Cu0  1  0.00000171  0.99998922  0.50000558  1  1.037916  0.53612  0.746884  0.745479  0.716659  2.184429  0.537
Cu  Cu1  1  0.50775558  0.76149861  0.80402507  1  1.08729  -0.581909  0.725217  0.816707  -0.778957  2.141027  -0.579
Cu  Cu2  1  0.49223436  0.23849517  0.19597325  1  1.087189  0.581853  0.725159  0.816558  0.756794  2.141163  0.579
H  H3  1  0.99406081  0.17065641  0.34535061  1  0.166425  0.001684  0.129321  0.114311  0.000784  0.971871  0.001
H  H4  1  0.00597808  0.82930918  0.65466497  1  0.16615  0.001691  0.129359  0.114352  0.000792  0.971917  0.001
H  H5  1  0.04682671  0.35889720  0.31501814  1  0.161891  0.001106  0.113356  0.13444  0.000598  1.017887  0.001
H  H6  1  0.95322449  0.64106445  0.68498033  1  0.16222  0.001111  0.113364  0.134491  0.000581  1.017779  0.001
H  H7  1  0.14530441  0.44147641  0.43120110  1  0.169782  0.000191  0.113033  0.123839  9.2e-05  1.014744  0.0
H  H8  1  0.85472152  0.55850165  0.56879566  1  0.169201  0.000195  0.113061  0.123835  9.6e-05  1.014878  0.0
H  H9  1  0.12127659  0.14164597  0.59641200  1  0.1735  0.001842  0.124314  0.100623  0.000856  1.025783  0.002
H  H10  1  0.87873280  0.85833915  0.40360102  1  0.173468  0.00186  0.124271  0.100534  0.000853  1.02572  0.002
H  H11  1  0.34257084  0.60399216  0.50213034  1  0.112154  -0.000307  0.112245  0.112782  -0.000166  1.007963  0.0
H  H12  1  0.65742951  0.39600695  0.49785710  1  0.112479  0.000307  0.112266  0.112849  0.000161  1.008117  0.0
H  H13  1  0.43466131  0.78943823  0.48796570  1  0.133488  -0.001223  0.108421  0.131211  -0.000671  1.032379  -0.001
H  H14  1  0.56533753  0.21056321  0.51201515  1  0.133998  0.001178  0.108331  0.131065  0.000622  1.03249  0.001
H  H15  1  0.50778587  0.84903611  0.61856609  1  0.170228  -0.002166  0.129585  0.117691  -0.001062  0.979785  -0.002
H  H16  1  0.49219801  0.15096776  0.38141841  1  0.170099  0.002151  0.129618  0.117695  0.001028  0.979848  0.002
H  H17  1  0.42789128  0.55981095  0.77038242  1  0.173439  -0.002693  0.123811  0.096251  -0.001366  1.012328  -0.002
H  H18  1  0.57211036  0.44018893  0.22960167  1  0.173034  0.002692  0.123763  0.096215  0.001325  1.012279  0.002
H  H19  1  0.25248334  0.36136799  0.89777693  1  0.164495  7e-06  0.133214  0.106792  5e-06  1.004046  0.0
H  H20  1  0.74750406  0.63864510  0.10222422  1  0.164712  -6e-06  0.133127  0.106672  -6e-06  1.004232  0.0
H  H21  1  0.18236094  0.07221758  0.04915813  1  0.138774  2.3e-05  0.136443  0.106147  -2e-06  0.982018  0.0
H  H22  1  0.81762827  0.92778855  0.95085345  1  0.138966  -3.3e-05  0.136468  0.106135  -1.3e-05  0.982064  0.0
H  H23  1  0.16957830  0.98904775  0.91893125  1  0.128103  -6.2e-05  0.122118  0.142107  -5.3e-05  0.98482  0.0
H  H24  1  0.83044638  0.01095115  0.08107939  1  0.128209  6.9e-05  0.122123  0.14202  5.5e-05  0.984847  0.0
H  H25  1  0.18876344  0.10495262  0.77215664  1  0.152182  9e-06  0.125506  0.130109  2.4e-05  0.967028  0.0
H  H26  1  0.81127347  0.89504465  0.22785416  1  0.152117  -4e-06  0.125461  0.13011  -3e-06  0.967025  0.0
H  H27  1  0.40246967  0.94660078  0.07449360  1  0.087864  0.000371  0.105678  0.10792  0.0003  1.026793  0.0
H  H28  1  0.59751575  0.05342237  0.92550863  1  0.087719  -0.000209  0.105648  0.107892  -0.000252  1.026785  0.0
H  H29  1  0.22144771  0.75088471  0.36598790  1  0.09251  0.00019  0.106563  0.110725  6.8e-05  1.017106  0.0
H  H30  1  0.77855839  0.24910895  0.63400571  1  0.0925  0.000159  0.106509  0.110628  7e-05  1.0172  0.0
H  H31  1  0.32429317  0.51775555  0.00863371  1  0.082637  -0.00011  0.111005  0.120263  -0.000129  0.99957  0.0
H  H32  1  0.67568095  0.48225456  0.99136804  1  0.082417  0.000111  0.110979  0.120314  0.000123  0.999439  0.0
H  H33  1  0.23214171  0.24773557  0.03266147  1  0.567068  9e-06  0.307485  0.277451  3.3e-05  1.002903  0.0
H  H34  1  0.76784698  0.75227829  0.96733760  1  0.567119  -9e-06  0.307474  0.277472  -3.3e-05  1.002827  0.0
H  H35  1  0.39917153  0.68140412  0.98373983  1  0.637376  -0.000154  0.30484  0.361293  -0.000323  0.968886  0.0
H  H36  1  0.60084782  0.31861491  0.01626044  1  0.637312  0.000177  0.304913  0.361389  0.000326  0.968884  0.0
H  H37  1  0.17389410  0.52013487  0.19431958  1  0.638  -3e-06  0.296024  0.35934  1.2e-05  0.987472  0.0
H  H38  1  0.82608020  0.47987216  0.80567760  1  0.637971  1.5e-05  0.296028  0.35927  1e-06  0.987629  0.0
C  C39  1  0.03302152  0.20906512  0.39492100  1  0.382142  -0.000505  0.065282  0.116587  0.00022  3.866695  0.0
C  C40  1  0.96701735  0.79090048  0.60508828  1  0.381786  -0.000443  0.065219  0.116535  0.000274  3.866873  0.0
C  C41  1  0.06284902  0.31430606  0.37877365  1  0.103078  0.005566  -0.075036  -0.109559  0.003969  3.924342  0.005
C  C42  1  0.93718027  0.68566193  0.62123078  1  0.10326  0.005607  -0.075009  -0.109461  0.003998  3.92427  0.005
C  C43  1  0.11787027  0.35963924  0.44322929  1  -0.117787  -0.003804  -0.050057  -0.038826  -0.002636  3.875918  -0.002
C  C44  1  0.88215461  0.64033420  0.55676888  1  -0.117441  -0.003785  -0.050129  -0.039027  -0.002607  3.876374  -0.002
C  C45  1  0.14057024  0.29711212  0.52330103  1  0.049479  0.00534  -0.001996  -0.051497  0.00376  3.977426  0.005
C  C46  1  0.85941796  0.70286700  0.47670722  1  0.049199  0.005434  -0.002161  -0.05156  0.003827  3.977533  0.005
C  C47  1  0.10631085  0.19227404  0.53503358  1  0.434357  -0.001393  0.059782  0.072992  -0.000447  3.893516  -0.001
C  C48  1  0.89368530  0.80770733  0.46497953  1  0.434888  -0.001442  0.05989  0.073239  -0.000497  3.893519  -0.001
C  C49  1  0.19987377  0.33653641  0.59587378  1  1.083125  0.000646  0.268782  0.398855  0.000414  4.010937  0.0
C  C50  1  0.80011913  0.66345348  0.40412938  1  1.083039  0.000696  0.268822  0.398724  0.000484  4.01103  0.0
C  C51  1  0.23830821  0.31108428  0.73811131  1  1.135405  -7e-06  0.264185  0.387167  -8e-06  4.033419  0.0
C  C52  1  0.76169849  0.68892172  0.26188982  1  1.134809  -6.2e-05  0.264182  0.387083  -3.5e-05  4.033439  0.0
C  C53  1  0.31007282  0.46319651  0.65147602  1  1.080978  -0.000872  0.268203  0.397555  -0.000596  3.984586  -0.001
C  C54  1  0.68992748  0.53680338  0.34851067  1  1.080882  0.000906  0.268288  0.397835  0.000632  3.984387  0.001
C  C55  1  0.37479100  0.56885157  0.63802290  1  0.027202  -0.006162  0.003932  -0.03451  -0.00439  3.934509  -0.005
C  C56  1  0.62522026  0.43114514  0.36195986  1  0.02769  0.006241  0.004059  -0.034315  0.004326  3.93458  0.005
C  C57  1  0.38013132  0.63366992  0.55688448  1  -0.05575  0.004138  -0.054589  -0.045598  0.002776  3.909981  0.003
C  C58  1  0.61987311  0.36632839  0.44310032  1  -0.056165  -0.004198  -0.054627  -0.045877  -0.002906  3.910551  -0.003
C  C59  1  0.43068767  0.73473770  0.54880223  1  0.007083  -0.007195  -0.082639  -0.126356  -0.005168  3.954312  -0.006
C  C60  1  0.56930588  0.26526224  0.45118106  1  0.006851  0.007038  -0.082817  -0.126371  0.004903  3.95425  0.006
C  C61  1  0.47159156  0.76961533  0.62160616  1  0.450276  0.000529  0.062386  0.108506  -0.000538  3.87624  0.0
C  C62  1  0.52840460  0.23038613  0.37837863  1  0.450441  -0.000587  0.062468  0.108594  0.000335  3.876074  0.0
C  C63  1  0.42475007  0.60831122  0.70710859  1  0.482461  0.001234  0.066896  0.100107  -8.1e-05  3.872701  0.001
C  C64  1  0.57525556  0.39168939  0.29287515  1  0.482915  -0.001262  0.066941  0.10006  -7.9e-05  3.872605  -0.001
C  C65  1  0.22175644  0.24179511  0.82341325  1  0.061974  0.000134  0.012304  -0.034513  9.7e-05  3.939534  0.0
C  C66  1  0.77825985  0.75820849  0.17659336  1  0.062457  -8.1e-05  0.012331  -0.034334  -6.2e-05  3.939646  0.0
C  C67  1  0.23191509  0.28050787  0.89838067  1  0.497172  -0.00021  0.08832  0.100199  -0.000151  3.814204  0.0
C  C68  1  0.76808070  0.71950052  0.10162514  1  0.49708  0.000218  0.088346  0.100188  0.000153  3.814304  0.0
C  C69  1  0.19292321  0.11572401  0.98360370  1  0.512362  -9.2e-05  0.085783  0.132081  -6.4e-05  3.830536  0.0
C  C70  1  0.80706599  0.88428212  0.01640535  1  0.512386  8.6e-05  0.085565  0.13193  5e-05  3.830612  0.0
C  C71  1  0.18322985  0.07200543  0.91138664  1  -0.019383  -8e-05  -0.064203  -0.117299  -0.000118  3.932072  0.0
C  C72  1  0.81679063  0.92799583  0.08861946  1  -0.019412  0.000114  -0.064175  -0.117168  0.000131  3.931918  0.0
C  C73  1  0.19641566  0.13587906  0.83061475  1  -0.034215  -7.3e-05  -0.034626  -0.01681  -3e-05  3.853119  0.0
C  C74  1  0.80360622  0.86412141  0.16939391  1  -0.034563  0.000154  -0.034548  -0.016806  8.4e-05  3.853076  0.0
C  C75  1  0.25194056  0.94864853  0.37212411  1  1.608369  -0.000376  0.19968  0.574142  0.001213  4.250066  -0.003
C  C76  1  0.74806897  0.05135513  0.62787658  1  1.608012  -0.001643  0.199629  0.573979  -0.00054  4.250367  -0.003
C  C77  1  0.29287938  0.90013769  0.29239779  1  -0.048709  0.009101  0.004026  0.000247  0.006586  3.895344  0.007
C  C78  1  0.70711964  0.09986219  0.70760851  1  -0.048949  0.008128  0.003801  4e-05  0.00572  3.895552  0.006
C  C79  1  0.35243155  0.95337737  0.20953129  1  -0.008786  0.004589  -0.014339  -0.049329  0.003356  3.96292  0.002
C  C80  1  0.64755048  0.04663576  0.79047458  1  -0.00869  0.001553  -0.014206  -0.0493  0.000691  3.962574  0.001
C  C81  1  0.35822234  0.90387625  0.13843155  1  -0.015647  0.000712  -0.082896  -0.132891  0.000679  3.985914  0.001
C  C82  1  0.64174929  0.09615241  0.86157315  1  -0.015124  -0.001879  -0.082926  -0.132818  -0.001447  3.985733  -0.002
C  C83  1  0.30944233  0.80180033  0.14749359  1  -0.013598  0.004209  -0.009577  -0.053158  0.002712  3.94577  0.003
C  C84  1  0.69057042  0.19821644  0.85250237  1  -0.01421  0.002649  -0.009681  -0.053424  0.001812  3.946166  0.001
C  C85  1  0.26724762  0.74553854  0.23149158  1  -0.034678  -0.001026  -0.010152  -0.050649  -0.00071  3.958603  -0.001
C  C86  1  0.73277248  0.25446813  0.76850111  1  -0.035031  0.000343  -0.010004  -0.050493  0.000244  3.95855  0.0
C  C87  1  0.25990288  0.79566193  0.30214799  1  0.052772  0.003869  -0.07835  -0.120613  0.002441  3.94855  0.002
C  C88  1  0.74008355  0.20434500  0.69784976  1  0.053413  0.003183  -0.078326  -0.120469  0.002192  3.9484  0.002
C  C89  1  0.41328694  0.06049627  0.19617895  1  1.497193  -0.002625  0.193337  0.542762  -0.000796  4.196777  -0.006
C  C90  1  0.58667399  0.93951083  0.80385240  1  1.497742  0.003441  0.193628  0.543073  0.001087  4.196784  0.006
C  C91  1  0.29323692  0.76460490  0.06489784  1  1.578783  5e-05  0.234694  0.608138  1e-06  4.104377  0.0
C  C92  1  0.70678345  0.23541876  0.93509157  1  1.578891  8e-06  0.234696  0.608249  1.6e-05  4.104306  0.0
C  C93  1  0.22448838  0.63384541  0.25124427  1  1.547891  4.5e-05  0.222233  0.582031  2.8e-05  4.144302  0.0
C  C94  1  0.77553305  0.36616126  0.74874393  1  1.548098  0.000133  0.222338  0.582062  7.1e-05  4.144399  0.0
C  C95  1  0.19548431  0.65654828  0.87601831  1  1.563909  2.8e-05  0.205721  0.559357  -0.000827  4.214417  0.001
C  C96  1  0.80450872  0.34343853  0.12396515  1  1.563984  -3.1e-05  0.205609  0.559305  0.000723  4.214133  -0.001
C  C97  1  0.09575760  0.57587089  0.94034877  1  -0.003839  -0.006425  -0.011953  -0.044873  -0.004679  3.946049  -0.005
C  C98  1  0.90423325  0.42412984  0.05964590  1  -0.003712  0.006425  -0.011869  -0.044746  0.004547  3.945726  0.005
C  C99  1  0.18171754  0.51023043  0.00461782  1  -0.032628  0.00067  -0.080253  -0.111902  0.000388  3.932858  0.001
C  C100  1  0.81826769  0.48977419  0.99538036  1  -0.032693  -0.000667  -0.080143  -0.111933  -0.000411  3.932523  -0.001
C  C101  1  0.91209564  0.56465843  0.93591089  1  -0.020262  -0.001246  -0.006792  -0.048282  -0.000932  3.959311  -0.001
C  C102  1  0.08788786  0.43535238  0.06409084  1  -0.019848  0.001249  -0.006808  -0.048395  0.000899  3.95944  0.001
C  C103  1  0.80638354  0.62850822  0.86871369  1  1.608168  5.5e-05  0.222973  0.605337  -3.9e-05  4.185495  0.0
C  C104  1  0.19358930  0.37150112  0.13129393  1  1.608446  2e-06  0.222895  0.605523  6.8e-05  4.185776  0.0
N  N105  1  0.05299816  0.14952421  0.47251615  1  -1.207046  0.084716  -0.346143  -0.227314  0.058431  3.624752  0.074
N  N106  1  0.94701852  0.85045160  0.52749095  1  -1.207187  0.084885  -0.346069  -0.227371  0.058535  3.625334  0.074
N  N107  1  0.26055248  0.43210559  0.58189902  1  -1.190582  -0.000157  -0.294359  -0.390414  -0.000105  3.188223  0.0
N  N108  1  0.73944164  0.56788584  0.41809437  1  -1.190488  0.001168  -0.294387  -0.390481  0.000739  3.188179  0.001
N  N109  1  0.29939566  0.40587525  0.73166558  1  -1.18376  -0.000277  -0.300066  -0.402757  -0.000179  3.182538  0.0
N  N110  1  0.70062442  0.59413143  0.26832269  1  -1.18392  0.000647  -0.300129  -0.402844  0.000413  3.182565  0.001
N  N111  1  0.18860596  0.27250830  0.67277631  1  -1.192656  9e-05  -0.301642  -0.408546  6.7e-05  3.23735  0.0
N  N112  1  0.81138233  0.72749089  0.32723072  1  -1.192577  0.000568  -0.301651  -0.408503  0.000372  3.237212  0.0
N  N113  1  0.46894095  0.70676808  0.69913785  1  -1.196465  -0.094459  -0.340054  -0.238841  -0.065569  3.659093  -0.081
N  N114  1  0.53105521  0.29323338  0.30084883  1  -1.196884  0.094414  -0.340115  -0.238786  0.063656  3.659042  0.081
N  N115  1  0.21770869  0.21716796  0.97522654  1  -1.282477  0.00018  -0.325594  -0.118247  0.000125  3.663266  0.0
N  N116  1  0.78228176  0.78283971  0.02477906  1  -1.282397  -8.1e-05  -0.325453  -0.118164  -6.2e-05  3.663257  0.0
O  O117  1  0.08588277  0.98489855  0.38034023  1  -1.103642  0.114567  -0.330704  -0.547291  0.075648  2.32585  0.103
O  O118  1  0.91410006  0.01505898  0.61967356  1  -1.103929  0.111747  -0.330695  -0.547209  0.073848  2.326021  0.101
O  O119  1  0.36202079  0.94237439  0.42569342  1  -1.149465  0.004048  -0.319677  -0.54254  0.002272  2.111759  0.004
O  O120  1  0.63798362  0.05766792  0.57430160  1  -1.148744  0.002405  -0.319631  -0.542474  0.001333  2.111758  0.003
O  O121  1  0.38196249  0.11120653  0.25910559  1  -1.072344  0.12309  -0.304521  -0.49657  0.080234  2.294279  0.109
O  O122  1  0.61786289  0.88881398  0.74091077  1  -1.072821  -0.123104  -0.304824  -0.496868  -0.082662  2.294492  -0.109
O  O123  1  0.49770708  0.10202547  0.12525368  1  -1.122499  0.077373  -0.310749  -0.524788  0.050487  2.153438  0.068
O  O124  1  0.50238999  0.89798133  0.87481140  1  -1.122444  -0.075897  -0.310808  -0.524922  -0.05104  2.153633  -0.066
O  O125  1  0.41901898  0.69446922  0.04326584  1  -1.153551  -0.000595  -0.332335  -0.488639  -0.000371  2.331141  -0.001
O  O126  1  0.58099811  0.30554287  0.95673374  1  -1.153552  0.000844  -0.332496  -0.488859  0.000518  2.330937  0.001
O  O127  1  0.17601855  0.80350184  0.01926890  1  -1.147098  0.000448  -0.28994  -0.49772  0.000304  2.141709  0.0
O  O128  1  0.82399288  0.19651416  0.98072347  1  -1.147373  0.000236  -0.2899  -0.49769  0.000134  2.141772  0.0
O  O129  1  0.24392773  0.57999641  0.32235228  1  -1.156608  8e-06  -0.299667  -0.502559  8e-06  2.102698  0.0
O  O130  1  0.75607249  0.42000502  0.67763858  1  -1.15694  0.000138  -0.299782  -0.502662  9e-05  2.102822  0.0
O  O131  1  0.16358733  0.60144937  0.18631069  1  -1.156965  2e-06  -0.335615  -0.502391  1.2e-05  2.347475  0.0
O  O132  1  0.83641510  0.39855976  0.81368075  1  -1.156762  0.000107  -0.335597  -0.502303  4.9e-05  2.347573  0.0
O  O133  1  0.36461500  0.66417927  0.88882085  1  -1.133943  -0.078824  -0.33856  -0.580328  -0.053467  2.445511  -0.069
O  O134  1  0.63537034  0.33582304  0.11116696  1  -1.134179  0.078859  -0.338574  -0.580312  0.051961  2.445335  0.069
O  O135  1  0.12110420  0.70814110  0.81536584  1  -1.139368  -0.001366  -0.296168  -0.502798  -0.000649  2.14324  -0.001
O  O136  1  0.87889985  0.29181940  0.18460402  1  -1.139349  0.001406  -0.296167  -0.502815  0.000632  2.142971  0.001
O  O137  1  0.77727022  0.58955397  0.80499543  1  -1.163264  0.000202  -0.294231  -0.530401  0.00016  2.275611  0.0
O  O138  1  0.22268122  0.41045322  0.19501628  1  -1.16324  -4e-05  -0.294133  -0.530514  -7e-05  2.275853  0.0
O  O139  1  0.73239821  0.71439516  0.88429958  1  -1.163242  -0.010213  -0.312477  -0.539695  -0.007214  2.350814  -0.01
O  O140  1  0.26758641  0.28561950  0.11570339  1  -1.163574  0.010281  -0.312406  -0.539687  0.007032  2.35088  0.01
