# generated using pymatgen
data_AlH9C16O5
_symmetry_space_group_name_H-M   'P 1'
_cell_length_a   6.69746663
_cell_length_b   23.44924153
_cell_length_c   25.97580493
_cell_angle_alpha   90.00003933
_cell_angle_beta   89.99996286
_cell_angle_gamma   89.99991755
_symmetry_Int_Tables_number   1
_chemical_formula_structural   AlH9C16O5
_chemical_formula_sum   'Al4 H36 C64 O20'
_cell_volume   4079.51348167
_cell_formula_units_Z   4
loop_
 _symmetry_equiv_pos_site_id
 _symmetry_equiv_pos_as_xyz
  1  'x, y, z'
loop_
 _atom_site_type_symbol
 _atom_site_label
 _atom_site_symmetry_multiplicity
 _atom_site_fract_x
 _atom_site_fract_y
 _atom_site_fract_z
 _atom_site_occupancy
 _atom_site_pbe_bader_charge
 _atom_site_pbe_bader_spin_density
 _atom_site_pbe_cm5_charge
 _atom_site_pbe_ddec_charge
 _atom_site_pbe_ddec_spin_density
 _atom_site_pbe_ddec_sum_bond_order
 _atom_site_pbe_magmom
Al  Al0  1  0.21048316  0.75096251  0.25000055  1  2.482134  0  0.40071  1.654223  0  2.574142  0
Al  Al1  1  0.78951937  0.24903847  0.74999986  1  2.482125  0  0.400751  1.654272  0  2.574122  0
Al  Al2  1  0.71048416  0.74903699  0.25000051  1  2.482157  0  0.400782  1.654256  0  2.574075  0
Al  Al3  1  0.28951687  0.25096357  0.74999991  1  2.482167  0  0.40082  1.654245  0  2.574068  0
H  H4  1  0.35127585  0.36868801  0.63202631  1  0.101063  0  0.108376  0.110916  0  1.008351  0
H  H5  1  0.64872519  0.63131511  0.36797372  1  0.10103  0  0.108353  0.110948  0  1.0083  0
H  H6  1  0.64872396  0.63131502  0.13202685  1  0.101095  0  0.108345  0.110902  0  1.008327  0
H  H7  1  0.35127558  0.36868681  0.86797242  1  0.101097  0  0.10836  0.110912  0  1.00834  0
H  H8  1  0.85127277  0.13131359  0.86797230  1  0.101121  0  0.108366  0.110873  0  1.008305  0
H  H9  1  0.14872528  0.86868697  0.13202851  1  0.101084  0  0.108356  0.110884  0  1.008335  0
H  H10  1  0.14872949  0.86868706  0.36797115  1  0.101166  0  0.108351  0.110877  0  1.008335  0
H  H11  1  0.85127602  0.13131307  0.63202773  1  0.101108  0  0.108355  0.110866  0  1.008322  0
H  H12  1  0.33838577  0.44080929  0.56103142  1  0.082905  0  0.103337  0.103485  0  1.009519  0
H  H13  1  0.66161078  0.55919255  0.43896861  1  0.082902  0  0.103369  0.103525  0  1.00946  0
H  H14  1  0.66160523  0.55919240  0.06103268  1  0.082882  0  0.103336  0.103482  0  1.009491  0
H  H15  1  0.33838983  0.44080815  0.93896774  1  0.082913  0  0.103351  0.103521  0  1.009476  0
H  H16  1  0.83838593  0.05919145  0.93896603  1  0.082953  0  0.10337  0.103527  0  1.009523  0
H  H17  1  0.16161361  0.94080995  0.06103515  1  0.08296  0  0.103362  0.103522  0  1.009517  0
H  H18  1  0.16161319  0.94081052  0.43896570  1  0.082956  0  0.103363  0.103527  0  1.009479  0
H  H19  1  0.83838486  0.05919046  0.56103395  1  0.082951  0  0.103364  0.103521  0  1.009523  0
H  H20  1  0.71177785  0.35961942  0.63307764  1  0.116645  0  0.109522  0.113354  0  1.007823  0
H  H21  1  0.28822467  0.64038455  0.36692470  1  0.116333  0  0.1095  0.113333  0  1.00788  0
H  H22  1  0.28822046  0.64038318  0.13307401  1  0.11639  0  0.109527  0.113381  0  1.007883  0
H  H23  1  0.71177759  0.35961780  0.86692410  1  0.116362  0  0.109518  0.113375  0  1.007852  0
H  H24  1  0.21177572  0.14038393  0.86692484  1  0.116307  0  0.109504  0.113354  0  1.007834  0
H  H25  1  0.78822532  0.85961492  0.13307480  1  0.116301  0  0.109506  0.113362  0  1.007823  0
H  H26  1  0.78822804  0.85961501  0.36692550  1  0.116279  0  0.109507  0.113337  0  1.007822  0
H  H27  1  0.21177747  0.14038342  0.63307608  1  0.116315  0  0.109507  0.113349  0  1.007848  0
H  H28  1  0.69565970  0.43152705  0.56196803  1  0.066342  0  0.103261  0.103321  0  1.010142  0
H  H29  1  0.30433984  0.56847607  0.43803431  1  0.066615  0  0.103234  0.103333  0  1.010117  0
H  H30  1  0.30433430  0.56847465  0.06196551  1  0.066674  0  0.103253  0.10336  0  1.0101  0
H  H31  1  0.69566226  0.43152421  0.93803530  1  0.066626  0  0.103235  0.103312  0  1.010131  0
H  H32  1  0.19566079  0.06847545  0.93803330  1  0.06663  0  0.10323  0.103322  0  1.010103  0
H  H33  1  0.80434024  0.93152382  0.06196634  1  0.066633  0  0.103235  0.103351  0  1.010086  0
H  H34  1  0.80434131  0.93152482  0.43803400  1  0.066596  0  0.103204  0.103293  0  1.010141  0
H  H35  1  0.19565972  0.06847446  0.56196719  1  0.066451  0  0.10322  0.103292  0  1.010097  0
H  H36  1  0.45631364  0.67444613  0.24999974  1  0.629908  0  0.35742  0.434879  0  0.84486  0
H  H37  1  0.54368590  0.32555442  0.74999991  1  0.629892  0  0.357385  0.434826  0  0.844923  0
H  H38  1  0.95631570  0.82555413  0.24999974  1  0.629906  0  0.357439  0.434897  0  0.844822  0
H  H39  1  0.04368384  0.17444643  0.74999952  1  0.629907  0  0.357433  0.434926  0  0.844784  0
C  C40  1  0.46217059  0.81878345  0.31972467  1  1.567064  0  0.266364  0.639169  0  4.100697  0
C  C41  1  0.53783044  0.18121668  0.68027652  1  1.565739  0  0.266409  0.639142  0  4.100641  0
C  C42  1  0.53782879  0.18121631  0.81972398  1  1.565735  0  0.266415  0.639178  0  4.10058  0
C  C43  1  0.46216478  0.81878382  0.18027644  1  1.565133  0  0.266359  0.639044  0  4.100818  0
C  C44  1  0.96215870  0.68121596  0.18027519  1  1.569261  0  0.266362  0.639141  0  4.100799  0
C  C45  1  0.03784532  0.31878503  0.81972484  1  1.569246  0  0.266295  0.638981  0  4.10099  0
C  C46  1  0.03784697  0.31878540  0.68027507  1  1.569248  0  0.266308  0.63898  0  4.100948  0
C  C47  1  0.96215854  0.68121601  0.31972496  1  1.569244  0  0.266326  0.639006  0  4.100924  0
C  C48  1  0.20153854  0.42287527  0.57690466  1  0.005785  0  -0.082145  -0.127141  0  3.944549  0
C  C49  1  0.79846548  0.57712742  0.42309614  1  0.005871  0  -0.082184  -0.127133  0  3.944559  0
C  C50  1  0.79845840  0.57712687  0.07690475  1  0.005605  0  -0.08215  -0.127101  0  3.944597  0
C  C51  1  0.20153815  0.42287326  0.92309567  1  0.005809  0  -0.082198  -0.127236  0  3.944667  0
C  C52  1  0.70153564  0.07712510  0.92309436  1  0.005825  0  -0.082198  -0.12727  0  3.944537  0
C  C53  1  0.29846539  0.92287503  0.07690644  1  0.005837  0  -0.082168  -0.127211  0  3.944527  0
C  C54  1  0.29846799  0.92287516  0.42309398  1  0.005861  0  -0.082182  -0.127241  0  3.944462  0
C  C55  1  0.70153603  0.07712455  0.57690643  1  0.005814  0  -0.082197  -0.127248  0  3.94457  0
C  C56  1  0.20891453  0.38294094  0.61634058  1  -0.04752  0  -0.078271  -0.083339  0  3.98433  0
C  C57  1  0.79108799  0.61706175  0.38365984  1  -0.047487  0  -0.078255  -0.083533  0  3.98441  0
C  C58  1  0.79108382  0.61706208  0.11634069  1  -0.047426  0  -0.078189  -0.083349  0  3.984353  0
C  C59  1  0.20891274  0.38293933  0.88365895  1  -0.047581  0  -0.078227  -0.083379  0  3.984387  0
C  C60  1  0.70890851  0.11706028  0.88365806  1  -0.047546  0  -0.078225  -0.08322  0  3.984128  0
C  C61  1  0.29108954  0.88293985  0.11634236  1  -0.047527  0  -0.078235  -0.083329  0  3.984145  0
C  C62  1  0.29109371  0.88293952  0.38365766  1  -0.047566  0  -0.078233  -0.083265  0  3.984224  0
C  C63  1  0.70890881  0.11706018  0.61634199  1  -0.047549  0  -0.078226  -0.083249  0  3.984184  0
C  C64  1  0.03213280  0.36035091  0.63691127  1  -0.063082  0  -0.014205  -0.045134  0  3.971159  0
C  C65  1  0.96786823  0.63965178  0.36308953  1  -0.063079  0  -0.01425  -0.045034  0  3.971269  0
C  C66  1  0.96786550  0.63965127  0.13691021  1  -0.06306  0  -0.01422  -0.045107  0  3.971241  0
C  C67  1  0.03213255  0.36034971  0.86308905  1  -0.063064  0  -0.014248  -0.04513  0  3.971249  0
C  C68  1  0.53213417  0.13965123  0.86308740  1  -0.059708  0  -0.014245  -0.045225  0  3.97106  0
C  C69  1  0.46786836  0.86034848  0.13691263  1  -0.059132  0  -0.014201  -0.045049  0  3.971106  0
C  C70  1  0.46786960  0.86034856  0.36308811  1  -0.060933  0  -0.01428  -0.045315  0  3.971201  0
C  C71  1  0.53213293  0.13965072  0.63691192  1  -0.059708  0  -0.014228  -0.045128  0  3.971126  0
C  C72  1  0.84741418  0.37790953  0.61690450  1  0.012539  0  -0.078997  -0.085937  0  3.986599  0
C  C73  1  0.15258536  0.62209401  0.38309745  1  0.012804  0  -0.078963  -0.085921  0  3.986794  0
C  C74  1  0.15258417  0.62209348  0.11690281  1  0.012575  0  -0.079004  -0.085979  0  3.986764  0
C  C75  1  0.84741239  0.37790750  0.88309683  1  0.012751  0  -0.078962  -0.085947  0  3.986768  0
C  C76  1  0.34740912  0.12209292  0.88309603  1  0.012817  0  -0.078931  -0.085866  0  3.986592  0
C  C77  1  0.65258892  0.87790636  0.11690362  1  0.012796  0  -0.07901  -0.085987  0  3.986783  0
C  C78  1  0.65259161  0.87790689  0.38309710  1  0.012844  0  -0.078909  -0.085793  0  3.986557  0
C  C79  1  0.34741092  0.12209239  0.61690485  1  0.012779  0  -0.078983  -0.085985  0  3.986754  0
C  C80  1  0.83880638  0.41770867  0.57748514  1  -0.067455  0  -0.081763  -0.124082  0  3.945285  0
C  C81  1  0.16118868  0.58229402  0.42251758  1  -0.06768  0  -0.081788  -0.124222  0  3.945383  0
C  C82  1  0.16118310  0.58229346  0.07748304  1  -0.067525  0  -0.081805  -0.124233  0  3.945398  0
C  C83  1  0.83881047  0.41770539  0.92251661  1  -0.067766  0  -0.081769  -0.124163  0  3.945414  0
C  C84  1  0.33880892  0.08229335  0.92251539  1  -0.067693  0  -0.081776  -0.124178  0  3.94538  0
C  C85  1  0.66119062  0.91770592  0.07748464  1  -0.067686  0  -0.081784  -0.124224  0  3.945406  0
C  C86  1  0.66119321  0.91770733  0.42251610  1  -0.067714  0  -0.081749  -0.124174  0  3.945332  0
C  C87  1  0.33880782  0.08229280  0.57748585  1  -0.067504  0  -0.081749  -0.124069  0  3.945342  0
C  C88  1  0.01601015  0.44116245  0.55689761  1  0.068295  0  0.005575  0.145689  0  4.10818  0
C  C89  1  0.98399088  0.55883939  0.44310397  1  0.068254  0  0.005621  0.145801  0  4.108231  0
C  C90  1  0.98398236  0.55883796  0.05689611  1  0.068363  0  0.00557  0.14569  0  4.108247  0
C  C91  1  0.01601419  0.44116004  0.94310469  1  0.068383  0  0.005592  0.145809  0  4.108199  0
C  C92  1  0.51600880  0.05883799  0.94310299  1  0.068303  0  0.005617  0.145764  0  4.108131  0
C  C93  1  0.48399074  0.94116172  0.05689781  1  0.068288  0  0.005597  0.145765  0  4.108101  0
C  C94  1  0.48399179  0.94116229  0.44310259  1  0.068305  0  0.005593  0.145839  0  4.10809  0
C  C95  1  0.51600924  0.05883741  0.55689821  1  0.06837  0  0.005577  0.145649  0  4.108294  0
C  C96  1  0.00613470  0.48222603  0.51711829  1  -0.057715  0  -0.041596  -0.10376  0  4.112852  0
C  C97  1  0.99386633  0.51777581  0.48288135  1  -0.296582  0  -0.041498  -0.103623  0  4.112893  0
C  C98  1  0.99385790  0.51777393  0.01711831  1  -0.057816  0  -0.041577  -0.103668  0  4.112711  0
C  C99  1  0.00613567  0.48222364  0.98288365  1  -0.296491  0  -0.041493  -0.103648  0  4.112681  0
C  C100  1  0.50613499  0.01777484  0.98288269  1  -0.057589  0  -0.041628  -0.103745  0  4.112825  0
C  C101  1  0.49386604  0.98222572  0.01711811  1  -0.296688  0  -0.04148  -0.1036  0  4.112735  0
C  C102  1  0.49386551  0.98222461  0.48288154  1  -0.05769  0  -0.041588  -0.103841  0  4.112939  0
C  C103  1  0.50613403  0.01777466  0.51711810  1  -0.296683  0  -0.041452  -0.103466  0  4.112841  0
O  O104  1  0.63015967  0.80179306  0.19748281  1  -1.25626  0  -0.237089  -0.597062  0  2.356644  0
O  O105  1  0.36984286  0.19820792  0.80251799  1  -1.256322  0  -0.237143  -0.597088  0  2.356694  0
O  O106  1  0.36984297  0.19820789  0.69748178  1  -1.256289  0  -0.23714  -0.597078  0  2.356692  0
O  O107  1  0.63016403  0.80179139  0.30251940  1  -1.25638  0  -0.237109  -0.597082  0  2.356475  0
O  O108  1  0.13016780  0.69820817  0.30251865  1  -1.256303  0  -0.237075  -0.597066  0  2.356513  0
O  O109  1  0.86983323  0.30179323  0.69748215  1  -1.256214  0  -0.237112  -0.597101  0  2.356384  0
O  O110  1  0.86983162  0.30179327  0.80251759  1  -1.25624  0  -0.23709  -0.597071  0  2.356478  0
O  O111  1  0.13016643  0.69820686  0.19748283  1  -1.256262  0  -0.237097  -0.597134  0  2.356503  0
O  O112  1  0.29132546  0.80404995  0.30259874  1  -1.250317  0  -0.237227  -0.5951  0  2.335803  0
O  O113  1  0.70868304  0.19595103  0.69740206  1  -1.250274  0  -0.237238  -0.595085  0  2.335542  0
O  O114  1  0.70868292  0.19595107  0.80259803  1  -1.250249  0  -0.237265  -0.59512  0  2.335441  0
O  O115  1  0.29131960  0.80404948  0.19740200  1  -1.250292  0  -0.237222  -0.595034  0  2.3357  0
O  O116  1  0.79132688  0.69595123  0.19740038  1  -1.250407  0  -0.237201  -0.595039  0  2.33593  0
O  O117  1  0.20867266  0.30405018  0.80259965  1  -1.250397  0  -0.237156  -0.594924  0  2.336025  0
O  O118  1  0.20867427  0.30405057  0.69739983  1  -1.250415  0  -0.237161  -0.594929  0  2.336057  0
O  O119  1  0.79132825  0.69594956  0.30259905  1  -1.25038  0  -0.237162  -0.594978  0  2.335991  0
O  O120  1  0.45939977  0.71569011  0.25000013  1  -1.434034  0  -0.44853  -0.997865  0  2.210803  0
O  O121  1  0.54060276  0.28431045  0.74999990  1  -1.434027  0  -0.448517  -0.997856  0  2.210909  0
O  O122  1  0.95940206  0.78430972  0.25000011  1  -1.434031  0  -0.448536  -0.997877  0  2.210784  0
O  O123  1  0.04060046  0.21569083  0.74999992  1  -1.434076  0  -0.448516  -0.997922  0  2.210778  0
