# generated using pymatgen
data_AgH6C7N5
_symmetry_space_group_name_H-M   'P 1'
_cell_length_a   8.34386561
_cell_length_b   8.34384791
_cell_length_c   12.58483970
_cell_angle_alpha   71.27515643
_cell_angle_beta   71.27533654
_cell_angle_gamma   72.36576662
_symmetry_Int_Tables_number   1
_chemical_formula_structural   AgH6C7N5
_chemical_formula_sum   'Ag4 H24 C28 N20'
_cell_volume   766.10110091
_cell_formula_units_Z   4
loop_
 _symmetry_equiv_pos_site_id
 _symmetry_equiv_pos_as_xyz
  1  'x, y, z'
loop_
 _atom_site_type_symbol
 _atom_site_label
 _atom_site_symmetry_multiplicity
 _atom_site_fract_x
 _atom_site_fract_y
 _atom_site_fract_z
 _atom_site_occupancy
 _atom_site_hle17_bader_spin_density
 _atom_site_hle17_ddec_charge
 _atom_site_hle17_ddec_spin_density
 _atom_site_hle17_ddec_sum_bond_order
 _atom_site_hle17_magmom
 _atom_site_hse06_10hf_bader_spin_density
 _atom_site_hse06_10hf_ddec_charge
 _atom_site_hse06_10hf_ddec_spin_density
 _atom_site_hse06_10hf_ddec_sum_bond_order
 _atom_site_hse06_10hf_magmom
 _atom_site_hse06_bader_spin_density
 _atom_site_hse06_ddec_charge
 _atom_site_hse06_ddec_spin_density
 _atom_site_hse06_ddec_sum_bond_order
 _atom_site_hse06_magmom
 _atom_site_pbe_bader_spin_density
 _atom_site_pbe_cm5_charge
 _atom_site_pbe_ddec_charge
 _atom_site_pbe_ddec_spin_density
 _atom_site_pbe_ddec_sum_bond_order
 _atom_site_pbe_magmom
Ag  Ag0  1  0.87377130  0.94753006  0.90837728  1  0  0.45414  0  1.530812  0  0  0.296344  0  1.997109  0  0  0.321847  0  1.954193  0  0  0.4838  0.279265  0  2.026488  0
Ag  Ag1  1  0.05247197  0.12622952  0.59162233  1  0  0.454142  0  1.530831  0  0  0.296321  0  1.997174  0  0  0.321821  0  1.954257  0  0  0.483799  0.279244  0  2.026549  0
Ag  Ag2  1  0.12622683  0.05247483  0.09162135  1  0  0.454151  0  1.530775  0  0  0.296326  0  1.997123  0  0  0.321827  0  1.954205  0  0  0.48379  0.279247  0  2.0265  0
Ag  Ag3  1  0.94753008  0.87376885  0.40837765  1  0  0.45414  0  1.530835  0  0  0.296332  0  1.997165  0  0  0.321832  0  1.954248  0  0  0.48379  0.279253  0  2.026542  0
H  H4  1  0.66803076  0.43124152  0.79573168  1  0  0.101056  0  0.965421  0  0  0.114073  0  1.025162  0  0  0.117241  0  1.02342  0  0  0.101931  0.111792  0  1.026523  0
H  H5  1  0.56875725  0.33196545  0.70426825  1  0  0.101062  0  0.96547  0  0  0.114073  0  1.025214  0  0  0.117242  0  1.023474  0  0  0.101939  0.111792  0  1.026575  0
H  H6  1  0.33197155  0.56875556  0.20426772  1  0  0.101045  0  0.965409  0  0  0.114078  0  1.025129  0  0  0.117252  0  1.023385  0  0  0.101928  0.111797  0  1.026491  0
H  H7  1  0.43123944  0.66803429  0.29573020  1  0  0.101055  0  0.965434  0  0  0.114068  0  1.025185  0  0  0.117236  0  1.023443  0  0  0.101925  0.111787  0  1.026546  0
H  H8  1  0.63734922  0.18169126  0.15642408  1  0  0.097268  0  0.958683  0  0  0.107274  0  1.020366  0  0  0.109824  0  1.020415  0  0  0.098984  0.105467  0  1.020448  0
H  H9  1  0.81830742  0.36265346  0.34357584  1  0  0.097271  0  0.958654  0  0  0.107264  0  1.020356  0  0  0.10981  0  1.020404  0  0  0.098981  0.105457  0  1.020438  0
H  H10  1  0.36265509  0.81830839  0.84357673  1  0  0.097316  0  0.95867  0  0  0.10731  0  1.020352  0  0  0.109855  0  1.020399  0  0  0.098998  0.105502  0  1.020434  0
H  H11  1  0.18169280  0.63734753  0.65642397  1  0  0.097322  0  0.958687  0  0  0.107324  0  1.020364  0  0  0.109869  0  1.020411  0  0  0.099006  0.105516  0  1.020447  0
H  H12  1  0.77554815  0.39909130  0.16829948  1  0  0.086755  0  0.959768  0  0  0.098469  0  1.019794  0  0  0.100739  0  1.019027  0  0  0.097377  0.09683  0  1.020446  0
H  H13  1  0.60090801  0.22445595  0.33169916  1  0  0.086747  0  0.959784  0  0  0.098455  0  1.019816  0  0  0.100725  0  1.019049  0  0  0.097371  0.096816  0  1.020468  0
H  H14  1  0.22445207  0.60090969  0.83170113  1  0  0.086739  0  0.95977  0  0  0.098443  0  1.019813  0  0  0.100712  0  1.019046  0  0  0.097381  0.096805  0  1.020465  0
H  H15  1  0.39909421  0.77554760  0.66829968  1  0  0.086747  0  0.959786  0  0  0.098454  0  1.019818  0  0  0.100722  0  1.019053  0  0  0.097387  0.096815  0  1.02047  0
H  H16  1  0.85993932  0.63102847  0.99570769  1  0  0.077303  0  1.021246  0  0  0.082512  0  1.102372  0  0  0.086299  0  1.098768  0  0  0.085089  0.079761  0  1.105024  0
H  H17  1  0.36897343  0.14005575  0.50429103  1  0  0.077371  0  1.021267  0  0  0.082611  0  1.10233  0  0  0.086398  0  1.098725  0  0  0.085136  0.079858  0  1.104986  0
H  H18  1  0.14005248  0.36897651  0.00429466  1  0  0.077297  0  1.021251  0  0  0.082495  0  1.102394  0  0  0.086283  0  1.098787  0  0  0.085074  0.079744  0  1.105045  0
H  H19  1  0.63102816  0.85993874  0.49570591  1  0  0.077262  0  1.021319  0  0  0.082488  0  1.102424  0  0  0.086277  0  1.09882  0  0  0.085071  0.079738  0  1.105072  0
H  H20  1  0.50044640  0.20226578  0.90890609  1  0  0.293636  0  0.943606  0  0  0.272606  0  1.023696  0  0  0.279363  0  1.017897  0  0  0.282997  0.267799  0  1.027795  0
H  H21  1  0.79773392  0.49955190  0.59109563  1  0  0.293644  0  0.943594  0  0  0.272606  0  1.023698  0  0  0.279363  0  1.017898  0  0  0.282986  0.267799  0  1.027797  0
H  H22  1  0.49955537  0.79773390  0.09109526  1  0  0.2936  0  0.943628  0  0  0.272568  0  1.023726  0  0  0.279322  0  1.017932  0  0  0.282962  0.267761  0  1.027826  0
H  H23  1  0.20226685  0.50044649  0.40890383  1  0  0.293632  0  0.943598  0  0  0.272596  0  1.023705  0  0  0.279352  0  1.017905  0  0  0.282978  0.267788  0  1.027804  0
H  H24  1  0.51605544  0.09643530  0.04398750  1  0  0.29797  0  0.906543  0  0  0.286775  0  0.965999  0  0  0.292136  0  0.962509  0  0  0.294849  0.282951  0  0.968509  0
H  H25  1  0.90356328  0.48394362  0.45601399  1  0  0.298013  0  0.906497  0  0  0.286822  0  0.965942  0  0  0.292183  0  0.96245  0  0  0.294865  0.282997  0  0.968452  0
H  H26  1  0.48394633  0.90356437  0.95601385  1  0  0.297959  0  0.906526  0  0  0.286774  0  0.965971  0  0  0.292135  0  0.962479  0  0  0.294826  0.28295  0  0.96848  0
H  H27  1  0.09643650  0.51605349  0.54398516  1  0  0.297996  0  0.906515  0  0  0.286809  0  0.96595  0  0  0.29217  0  0.962458  0  0  0.294866  0.282985  0  0.968459  0
C  C28  1  0.81171930  0.68485667  0.78113869  1  0  0.265808  0  3.790495  0  0  0.245056  0  4.052879  0  0  0.254435  0  4.069816  0  0  0.212653  0.238691  0  4.041495  0
C  C29  1  0.31514533  0.18827822  0.71886098  1  0  0.265954  0  3.79025  0  0  0.245181  0  4.052666  0  0  0.25456  0  4.0696  0  0  0.212685  0.238815  0  4.041282  0
C  C30  1  0.18827839  0.31514435  0.21886245  1  0  0.265949  0  3.790468  0  0  0.245241  0  4.052785  0  0  0.254621  0  4.06972  0  0  0.212729  0.238875  0  4.041402  0
C  C31  1  0.68485825  0.81171884  0.28113657  1  0  0.265905  0  3.790506  0  0  0.245199  0  4.052819  0  0  0.254578  0  4.069756  0  0  0.212723  0.238835  0  4.041433  0
C  C32  1  0.76832246  0.54657308  0.88428509  1  0  0.020697  0  3.826257  0  0  0.037403  0  4.059917  0  0  0.037744  0  4.082655  0  0  -0.014088  0.037221  0  4.044471  0
C  C33  1  0.45343225  0.23167155  0.61571390  1  0  0.020581  0  3.826305  0  0  0.037268  0  4.060031  0  0  0.037605  0  4.08277  0  0  -0.014162  0.037087  0  4.04458  0
C  C34  1  0.23167341  0.45343056  0.11571667  1  0  0.020677  0  3.826266  0  0  0.037359  0  4.05994  0  0  0.037697  0  4.082681  0  0  -0.0141  0.037178  0  4.044493  0
C  C35  1  0.54656879  0.76832554  0.38428339  1  0  0.020747  0  3.826236  0  0  0.037448  0  4.059866  0  0  0.037788  0  4.082606  0  0  -0.014071  0.037266  0  4.044417  0
C  C36  1  0.69266143  0.42278394  0.87742787  1  0  -0.193364  0  3.686663  0  0  -0.219563  0  3.931832  0  0  -0.225175  0  3.952065  0  0  -0.097291  -0.215699  0  3.918158  0
C  C37  1  0.57721595  0.30733351  0.62257371  1  0  -0.193326  0  3.686748  0  0  -0.219541  0  3.931852  0  0  -0.225161  0  3.952099  0  0  -0.097288  -0.215669  0  3.918184  0
C  C38  1  0.30733654  0.57721578  0.12257349  1  0  -0.193294  0  3.686657  0  0  -0.219494  0  3.93177  0  0  -0.225121  0  3.952032  0  0  -0.097274  -0.215631  0  3.918098  0
C  C39  1  0.42278510  0.69266358  0.37742676  1  0  -0.193402  0  3.686774  0  0  -0.219591  0  3.931886  0  0  -0.225211  0  3.952141  0  0  -0.097293  -0.215726  0  3.918211  0
C  C40  1  0.64616532  0.29039426  0.97458055  1  0  0.294547  0  3.839701  0  0  0.295867  0  4.078394  0  0  0.303933  0  4.100832  0  0  0.084399  0.290206  0  4.063183  0
C  C41  1  0.70960946  0.35382930  0.52542035  1  0  0.294459  0  3.839794  0  0  0.295888  0  4.078318  0  0  0.303957  0  4.100747  0  0  0.084365  0.290204  0  4.063138  0
C  C42  1  0.35383336  0.70960805  0.02542090  1  0  0.294451  0  3.839767  0  0  0.2958  0  4.078412  0  0  0.303866  0  4.100848  0  0  0.084337  0.290141  0  4.063202  0
C  C43  1  0.29039186  0.64616650  0.47458034  1  0  0.294565  0  3.839659  0  0  0.295905  0  4.078325  0  0  0.30397  0  4.100761  0  0  0.08439  0.290246  0  4.063114  0
C  C44  1  0.67639175  0.28294113  0.07985238  1  0  -0.182531  0  3.738719  0  0  -0.205095  0  3.998101  0  0  -0.210243  0  4.018625  0  0  -0.104864  -0.201629  0  3.984364  0
C  C45  1  0.71706119  0.32360795  0.42014895  1  0  -0.182502  0  3.738743  0  0  -0.205077  0  3.998064  0  0  -0.21022  0  4.01858  0  0  -0.104846  -0.201604  0  3.984332  0
C  C46  1  0.32360793  0.71706246  0.92014938  1  0  -0.182594  0  3.738718  0  0  -0.205149  0  3.998089  0  0  -0.210289  0  4.018601  0  0  -0.104846  -0.201683  0  3.98435  0
C  C47  1  0.28293876  0.67639434  0.57985303  1  0  -0.182613  0  3.738727  0  0  -0.205179  0  3.998093  0  0  -0.210321  0  4.018609  0  0  -0.104859  -0.201714  0  3.984356  0
C  C48  1  0.75303712  0.40506147  0.08635773  1  0  -0.057005  0  3.810837  0  0  -0.06963  0  4.069046  0  0  -0.069127  0  4.088645  0  0  -0.097994  -0.069877  0  4.055727  0
C  C49  1  0.59494075  0.24696245  0.41364123  1  0  -0.056947  0  3.810706  0  0  -0.069582  0  4.068928  0  0  -0.069078  0  4.088519  0  0  -0.097958  -0.069833  0  4.055618  0
C  C50  1  0.24696438  0.59493951  0.91364261  1  0  -0.056925  0  3.810663  0  0  -0.069546  0  4.068851  0  0  -0.069045  0  4.088458  0  0  -0.098025  -0.069793  0  4.055532  0
C  C51  1  0.40506383  0.75303590  0.58635742  1  0  -0.056996  0  3.810752  0  0  -0.069625  0  4.068976  0  0  -0.069119  0  4.088571  0  0  -0.098091  -0.069877  0  4.055668  0
C  C52  1  0.79941815  0.53693708  0.98948221  1  0  -0.120349  0  3.757547  0  0  -0.144771  0  4.007268  0  0  -0.148786  0  4.028528  0  0  -0.106805  -0.141978  0  3.992805  0
C  C53  1  0.46306038  0.20058190  0.51051721  1  0  -0.12033  0  3.757572  0  0  -0.144753  0  4.007252  0  0  -0.148776  0  4.028537  0  0  -0.106772  -0.141958  0  3.992785  0
C  C54  1  0.20057855  0.46306266  0.01052022  1  0  -0.120352  0  3.757426  0  0  -0.144758  0  4.007143  0  0  -0.148768  0  4.028389  0  0  -0.106742  -0.141966  0  3.992679  0
C  C55  1  0.53693730  0.79941911  0.48947996  1  0  -0.120327  0  3.757479  0  0  -0.144761  0  4.007198  0  0  -0.14877  0  4.02844  0  0  -0.106732  -0.141973  0  3.992743  0
N  N56  1  0.85388380  0.83121455  0.77786023  1  0  -0.302354  0  3.202407  0  0  -0.238334  0  3.504856  0  0  -0.253095  0  3.516114  0  0  -0.250052  -0.228433  0  3.497236  0
N  N57  1  0.16878745  0.14611498  0.72213989  1  0  -0.302437  0  3.202463  0  0  -0.238414  0  3.504941  0  0  -0.253172  0  3.516196  0  0  -0.250097  -0.228512  0  3.497321  0
N  N58  1  0.14611516  0.16878645  0.22214064  1  0  -0.302364  0  3.202415  0  0  -0.238348  0  3.504848  0  0  -0.253108  0  3.516106  0  0  -0.250075  -0.228447  0  3.497233  0
N  N59  1  0.83121333  0.85388341  0.27786036  1  0  -0.302383  0  3.202476  0  0  -0.238381  0  3.504922  0  0  -0.253141  0  3.516181  0  0  -0.250081  -0.228479  0  3.497303  0
N  N60  1  0.88376227  0.92021669  0.66604328  1  0  -0.091224  0  3.176009  0  0  -0.050961  0  3.483017  0  0  -0.054464  0  3.494697  0  0  -0.125216  -0.048561  0  3.475195  0
N  N61  1  0.07978333  0.11623890  0.83395591  1  0  -0.091264  0  3.175967  0  0  -0.050999  0  3.482964  0  0  -0.054505  0  3.494645  0  0  -0.125249  -0.048599  0  3.475143  0
N  N62  1  0.11623569  0.07978303  0.33395649  1  0  -0.091283  0  3.17603  0  0  -0.051028  0  3.483051  0  0  -0.05453  0  3.49473  0  0  -0.125259  -0.048628  0  3.47523  0
N  N63  1  0.92021816  0.88376208  0.16604363  1  0  -0.09131  0  3.176064  0  0  -0.051051  0  3.483089  0  0  -0.054554  0  3.494768  0  0  -0.125269  -0.048651  0  3.475269  0
N  N64  1  0.85944638  0.83170365  0.60441995  1  0  -0.070538  0  3.216218  0  0  -0.018081  0  3.519952  0  0  -0.023062  0  3.53205  0  0  -0.121678  -0.014609  0  3.511734  0
N  N65  1  0.16829738  0.14055433  0.89557997  1  0  -0.070491  0  3.216107  0  0  -0.018023  0  3.519826  0  0  -0.023004  0  3.531923  0  0  -0.121636  -0.014552  0  3.511609  0
N  N66  1  0.14055186  0.16829477  0.39558163  1  0  -0.070513  0  3.216103  0  0  -0.018048  0  3.519833  0  0  -0.023029  0  3.531928  0  0  -0.121665  -0.014576  0  3.511614  0
N  N67  1  0.83170538  0.85944663  0.10441930  1  0  -0.070521  0  3.216127  0  0  -0.018061  0  3.519857  0  0  -0.023041  0  3.531953  0  0  -0.121672  -0.014589  0  3.511641  0
N  N68  1  0.81461897  0.68405632  0.67341849  1  0  -0.311349  0  2.956362  0  0  -0.2774  0  3.220232  0  0  -0.288057  0  3.234489  0  0  -0.215988  -0.270181  0  3.210677  0
N  N69  1  0.31594481  0.18537910  0.82658126  1  0  -0.311405  0  2.956328  0  0  -0.277451  0  3.220205  0  0  -0.288106  0  3.23446  0  0  -0.215996  -0.270232  0  3.210651  0
N  N70  1  0.18537900  0.31594340  0.32658287  1  0  -0.31146  0  2.956317  0  0  -0.277533  0  3.22019  0  0  -0.288188  0  3.234444  0  0  -0.216024  -0.270313  0  3.210636  0
N  N71  1  0.68405696  0.81462057  0.17341771  1  0  -0.311369  0  2.95637  0  0  -0.277441  0  3.22024  0  0  -0.288096  0  3.234495  0  0  -0.215986  -0.270223  0  3.210687  0
N  N72  1  0.57809914  0.16223590  0.96568917  1  0  -0.660441  0  3.161211  0  0  -0.612518  0  3.404227  0  0  -0.631523  0  3.401827  0  0  -0.608086  -0.598992  0  3.4056  0
N  N73  1  0.83776397  0.42189970  0.53431249  1  0  -0.660516  0  3.161184  0  0  -0.612614  0  3.404141  0  0  -0.631619  0  3.401736  0  0  -0.608115  -0.59908  0  3.405522  0
N  N74  1  0.42190236  0.83776508  0.03431275  1  0  -0.660407  0  3.16124  0  0  -0.612501  0  3.404244  0  0  -0.631504  0  3.401845  0  0  -0.608022  -0.598971  0  3.405606  0
N  N75  1  0.16223499  0.57810130  0.46568759  1  0  -0.66049  0  3.161215  0  0  -0.61258  0  3.404241  0  0  -0.631582  0  3.401837  0  0  -0.608098  -0.599046  0  3.405598  0
