# generated using pymatgen
data_AlH9C21N(O2F)3
_symmetry_space_group_name_H-M   'P 1'
_cell_length_a   4.10636043
_cell_length_b   23.38765010
_cell_length_c   23.38752777
_cell_angle_alpha   119.99957498
_cell_angle_beta   90.00110159
_cell_angle_gamma   89.99920737
_symmetry_Int_Tables_number   1
_chemical_formula_structural   AlH9C21N(O2F)3
_chemical_formula_sum   'Al3 H27 C63 N3 O18 F9'
_cell_volume   1945.18298443
_cell_formula_units_Z   3
loop_
 _symmetry_equiv_pos_site_id
 _symmetry_equiv_pos_as_xyz
  1  'x, y, z'
loop_
 _atom_site_type_symbol
 _atom_site_label
 _atom_site_symmetry_multiplicity
 _atom_site_fract_x
 _atom_site_fract_y
 _atom_site_fract_z
 _atom_site_occupancy
 _atom_site_pbe_bader_charge
 _atom_site_pbe_bader_spin_density
 _atom_site_pbe_cm5_charge
 _atom_site_pbe_ddec_charge
 _atom_site_pbe_ddec_spin_density
 _atom_site_pbe_ddec_sum_bond_order
 _atom_site_pbe_magmom
Al  Al0  1  0.99488804  0.00056487  0.50027589  1  2.511055  0  0.440076  1.617381  0  2.549898  0
Al  Al1  1  0.99488670  0.33304950  0.16694611  1  2.51041  0  0.440083  1.617407  0  2.549865  0
Al  Al2  1  0.99493345  0.66636949  0.83276729  1  2.510689  0  0.440058  1.61747  0  2.549841  0
H  H3  1  0.20592744  0.86958182  0.92131654  1  0.080489  0  0.112515  0.119233  0  0.971663  0
H  H4  1  0.20956896  0.97555478  0.92249042  1  0.06165  0  0.103575  0.114069  0  1.028431  0
H  H5  1  0.78329486  0.88586488  0.74379591  1  0.097239  0  0.110225  0.137443  0  1.021611  0
H  H6  1  0.78321484  0.02458863  0.94747195  1  0.101828  0  0.110205  0.137474  0  1.021546  0
H  H7  1  0.20589404  0.21838602  0.96372608  1  0.070991  0  0.112465  0.119092  0  0.971757  0
H  H8  1  0.20957214  0.11358596  0.85775758  1  0.057062  0  0.103693  0.114244  0  1.02833  0
H  H9  1  0.78333647  0.08951962  0.80873580  1  0.063474  0  0.110257  0.137559  0  1.021703  0
H  H10  1  0.20581457  0.91201940  0.61494354  1  0.100877  0  0.112466  0.119147  0  0.971765  0
H  H11  1  0.20947791  0.91084083  0.71974041  1  0.058977  0  0.103595  0.114083  0  1.028277  0
H  H12  1  0.78979753  0.42099326  0.36882741  1  0.08462  0  0.114916  0.12281  0  0.967581  0
H  H13  1  0.79118876  0.42235210  0.47491110  1  0.069686  0  0.103597  0.11429  0  1.027683  0
H  H14  1  0.21800945  0.24355694  0.38637407  1  0.103185  0  0.110288  0.137093  0  1.022055  0
H  H15  1  0.21810871  0.44696606  0.52383421  1  0.102304  0  0.110296  0.137143  0  1.022022  0
H  H16  1  0.78976814  0.46449032  0.71882087  1  0.078649  0  0.114949  0.122867  0  0.967712  0
H  H17  1  0.79112800  0.35840846  0.61409398  1  0.065319  0  0.103654  0.114219  0  1.027802  0
H  H18  1  0.21801038  0.30949343  0.58977687  1  0.11527  0  0.110262  0.137029  0  1.022172  0
H  H19  1  0.78978006  0.11451094  0.41234257  1  0.086785  0  0.114894  0.122788  0  0.96765  0
H  H20  1  0.79113480  0.21923375  0.41097914  1  0.067722  0  0.103627  0.114201  0  1.027857  0
H  H21  1  0.78988828  0.44794914  0.07922479  1  0.084981  0  0.112961  0.11995  0  0.971151  0
H  H22  1  0.79037363  0.55259909  0.07776233  1  0.06153  0  0.103332  0.113955  0  1.027826  0
H  H23  1  0.21749518  0.64277741  0.25655078  1  0.114669  0  0.110019  0.136865  0  1.023057  0
H  H24  1  0.21761844  0.57676485  0.05288627  1  0.100983  0  0.109944  0.136744  0  1.022942  0
H  H25  1  0.78989114  0.75411535  0.03539549  1  0.083037  0  0.112927  0.119914  0  0.970994  0
H  H26  1  0.79027417  0.75558674  0.14151372  1  0.07263  0  0.103364  0.114038  0  1.0279  0
H  H27  1  0.21750096  0.78043981  0.19055004  1  0.101883  0  0.110047  0.136825  0  1.02302  0
H  H28  1  0.78986417  0.79793948  0.38538769  1  0.077664  0  0.112981  0.120036  0  0.970977  0
H  H29  1  0.79030351  0.69182595  0.28074121  1  0.065543  0  0.103365  0.114115  0  1.027842  0
C  C30  1  0.49421733  0.91328125  0.41225098  1  1.617535  0  0.2849  0.697079  0  4.048583  0
C  C31  1  0.49784203  0.99989847  0.58728788  1  1.620858  0  0.287156  0.700163  0  4.044224  0
C  C32  1  0.49415903  0.08794006  0.50095582  1  1.621115  0  0.288531  0.701517  0  4.040085  0
C  C33  1  0.49782968  0.24603979  0.07927662  1  1.609561  0  0.287142  0.700079  0  4.044243  0
C  C34  1  0.49421612  0.42107469  0.16768752  1  1.624258  0  0.285016  0.697373  0  4.048739  0
C  C35  1  0.49417054  0.33237527  0.25364518  1  1.621047  0  0.288274  0.701249  0  4.040486  0
C  C36  1  0.49788653  0.75404720  0.83343031  1  1.615565  0  0.287191  0.700182  0  4.043923  0
C  C37  1  0.49429282  0.66562558  0.92004741  1  1.620375  0  0.285049  0.697386  0  4.048819  0
C  C38  1  0.49421383  0.57967925  0.74539061  1  1.621382  0  0.288333  0.701425  0  4.040148  0
C  C39  1  0.33688063  0.87371789  0.88302599  1  -0.010939  0  -0.080815  -0.063181  0  4.004933  0
C  C40  1  0.33533682  0.93326563  0.88324552  1  -0.017363  0  -0.105571  -0.200546  0  4.017282  0
C  C41  1  0.49543923  0.93937061  0.83345461  1  0.292415  0  0.095323  0.209207  0  4.025106  0
C  C42  1  0.65586546  0.88387779  0.78345044  1  0.076264  0  -0.107245  -0.308943  0  4.000978  0
C  C43  1  0.65164507  0.82502990  0.78420971  1  0.437437  0  0.104598  0.290776  0  4.062192  0
C  C44  1  0.49667616  0.81812629  0.83341134  1  0.051157  0  -0.023475  -0.163072  0  3.98543  0
C  C45  1  0.65578906  0.06622883  0.94945708  1  0.046261  0  -0.107224  -0.308984  0  4.001196  0
C  C46  1  0.65154821  0.12583650  0.00830121  1  0.431489  0  0.104573  0.290783  0  4.062928  0
C  C47  1  0.49661602  0.18194048  0.01519509  1  0.063552  0  -0.023673  -0.163224  0  3.985454  0
C  C48  1  0.33684354  0.17596050  0.95959739  1  0.000918  0  -0.080704  -0.062974  0  4.005121  0
C  C49  1  0.33530848  0.11663116  0.90005333  1  -0.024939  0  -0.105628  -0.200721  0  4.017374  0
C  C50  1  0.49540830  0.06073404  0.89395484  1  0.319138  0  0.095283  0.209256  0  4.02492  0
C  C51  1  0.65588474  0.04987638  0.76710129  1  0.09784  0  -0.107458  -0.309402  0  4.001534  0
C  C52  1  0.65163453  0.04911407  0.70749270  1  0.432703  0  0.1047  0.291167  0  4.062155  0
C  C53  1  0.49664242  0.99991556  0.65138723  1  0.033335  0  -0.02366  -0.163546  0  3.985659  0
C  C54  1  0.33679751  0.95030612  0.65736676  1  -0.016011  0  -0.080719  -0.062879  0  4.00502  0
C  C55  1  0.33528350  0.95008953  0.71669803  1  -0.006775  0  -0.105611  -0.200739  0  4.017006  0
C  C56  1  0.49542879  0.99987393  0.77259052  1  0.293536  0  0.09559  0.209681  0  4.024888  0
C  C57  1  0.66072144  0.38265179  0.37320903  1  0.027109  0  -0.079234  -0.060558  0  3.99724  0
C  C58  1  0.66481581  0.38299633  0.43282150  1  -0.004845  0  -0.10431  -0.200008  0  4.014877  0
C  C59  1  0.50623482  0.33326839  0.43927698  1  0.292899  0  0.095763  0.208998  0  4.026315  0
C  C60  1  0.34447015  0.28314475  0.38407862  1  0.05658  0  -0.107226  -0.308271  0  4.001413  0
C  C61  1  0.34631535  0.28374873  0.32516979  1  0.429304  0  0.103419  0.289907  0  4.064838  0
C  C62  1  0.49975795  0.33286073  0.31792950  1  0.006118  0  -0.023655  -0.165319  0  3.988096  0
C  C63  1  0.34453423  0.44925299  0.56571581  1  0.064077  0  -0.10726  -0.308344  0  4.001625  0
C  C64  1  0.34639807  0.50815964  0.62523019  1  0.409697  0  0.103515  0.289986  0  4.064386  0
C  C65  1  0.49979695  0.51539726  0.68158755  1  0.01895  0  -0.023548  -0.165159  0  3.987335  0
C  C66  1  0.66072477  0.46011457  0.67610005  1  0.021891  0  -0.079422  -0.060833  0  3.997479  0
C  C67  1  0.66479810  0.40050281  0.61682901  1  -0.013539  0  -0.104425  -0.199819  0  4.014912  0
C  C68  1  0.50623890  0.39405380  0.56064508  1  0.317328  0  0.095816  0.208771  0  4.026244  0
C  C69  1  0.34445764  0.26761115  0.55018838  1  0.032487  0  -0.107345  -0.30832  0  4.001574  0
C  C70  1  0.34629609  0.20809617  0.54958293  1  0.426596  0  0.10365  0.290209  0  4.064578  0
C  C71  1  0.49974056  0.15174366  0.50047178  1  0.043756  0  -0.023632  -0.165505  0  3.987765  0
C  C72  1  0.66070506  0.15722927  0.45068111  1  -0.007374  0  -0.079309  -0.060481  0  3.997345  0
C  C73  1  0.66478179  0.21649805  0.45033386  1  0.004643  0  -0.104373  -0.199899  0  4.015063  0
C  C74  1  0.50620386  0.27268289  0.50006333  1  0.293648  0  0.095811  0.208798  0  4.026019  0
C  C75  1  0.66025562  0.49059774  0.11751335  1  -0.004653  0  -0.080412  -0.062068  0  3.998817  0
C  C76  1  0.66398653  0.54985627  0.11711733  1  0.004509  0  -0.104495  -0.199853  0  4.014483  0
C  C77  1  0.50517726  0.60603004  0.16680315  1  0.299992  0  0.094801  0.208676  0  4.025285  0
C  C78  1  0.34394001  0.60093136  0.21696198  1  0.030729  0  -0.107481  -0.30847  0  4.002325  0
C  C79  1  0.34648468  0.54141756  0.21638783  1  0.418456  0  0.102796  0.289747  0  4.063583  0
C  C80  1  0.49961500  0.48501482  0.16729015  1  0.040635  0  -0.023455  -0.162629  0  3.984413  0
C  C81  1  0.34403774  0.61636338  0.05062968  1  0.058472  0  -0.107433  -0.308382  0  4.002801  0
C  C82  1  0.34659837  0.61692958  0.99169364  1  0.435015  0  0.102715  0.289434  0  4.064145  0
C  C83  1  0.49971707  0.66603493  0.98438647  1  -0.005589  0  -0.023515  -0.162449  0  3.984433  0
C  C84  1  0.66026712  0.71582109  0.03975471  1  0.028666  0  -0.08028  -0.061914  0  3.998949  0
C  C85  1  0.66396453  0.71622252  0.09940778  1  -0.007076  0  -0.104546  -0.200043  0  4.014633  0
C  C86  1  0.50518142  0.66652757  0.10589526  1  0.292974  0  0.094873  0.208718  0  4.024902  0
C  C87  1  0.34394352  0.78269744  0.23239938  1  0.069033  0  -0.107528  -0.308439  0  4.00233  0
C  C88  1  0.34647949  0.84163534  0.29191243  1  0.403766  0  0.102755  0.289593  0  4.063714  0
C  C89  1  0.49962511  0.84894136  0.34831597  1  0.017696  0  -0.023345  -0.16236  0  3.984153  0
C  C90  1  0.66022903  0.79357866  0.34273660  1  0.019729  0  -0.080479  -0.062166  0  3.99874  0
C  C91  1  0.66394926  0.73392447  0.28347892  1  -0.010178  0  -0.104519  -0.200186  0  4.01471  0
C  C92  1  0.50515628  0.72743803  0.22730249  1  0.314329  0  0.094915  0.208964  0  4.025228  0
N  N93  1  0.49524205  0.99999107  0.83333086  1  -1.174816  0  -0.24726  -0.147015  0  3.605141  0
N  N94  1  0.50881697  0.33333738  0.49999535  1  -1.174336  0  -0.246773  -0.145469  0  3.60537  0
N  N95  1  0.50728626  0.66666756  0.16666833  1  -1.172929  0  -0.24668  -0.14634  0  3.603725  0
O  O96  1  0.72861190  0.07703031  0.52959642  1  -1.244755  0  -0.22785  -0.590995  0  2.359647  0
O  O97  1  0.72874766  0.95276440  0.42307308  1  -1.244463  0  -0.23026  -0.592451  0  2.355605  0
O  O98  1  0.73363384  0.97026079  0.54797686  1  -1.258824  0  -0.238302  -0.605653  0  2.33249  0
O  O99  1  0.25645213  0.04917699  0.47163253  1  -1.258098  0  -0.232895  -0.598674  0  2.336617  0
O  O100  1  0.26149704  0.02828748  0.57671819  1  -1.242998  0  -0.225331  -0.586802  0  2.361604  0
O  O101  1  0.25655357  0.92257291  0.45095600  1  -1.25077  0  -0.235412  -0.600595  0  2.333735  0
O  O102  1  0.25647423  0.36169459  0.24419931  1  -1.256289  0  -0.232816  -0.598639  0  2.336651  0
O  O103  1  0.26148336  0.25660904  0.11823476  1  -1.239387  0  -0.225301  -0.586758  0  2.361492  0
O  O104  1  0.25653600  0.38237012  0.13827067  1  -1.255769  0  -0.2356  -0.600794  0  2.333717  0
O  O105  1  0.72860830  0.30373150  0.21409277  1  -1.246859  0  -0.227751  -0.590904  0  2.359745  0
O  O106  1  0.72874691  0.41025002  0.19634310  1  -1.241932  0  -0.230077  -0.592353  0  2.35586  0
O  O107  1  0.73361411  0.28535225  0.08894650  1  -1.249864  0  -0.238288  -0.60565  0  2.332607  0
O  O108  1  0.25650623  0.58911765  0.78415498  1  -1.252614  0  -0.232833  -0.598691  0  2.336568  0
O  O109  1  0.26151907  0.71508842  0.80504245  1  -1.246934  0  -0.225379  -0.586919  0  2.361473  0
O  O110  1  0.25661843  0.69503878  0.91075566  1  -1.25491  0  -0.235429  -0.600708  0  2.333899  0
O  O111  1  0.72864675  0.61922977  0.75630526  1  -1.244783  0  -0.227702  -0.590948  0  2.35969  0
O  O112  1  0.72881094  0.63696452  0.88056362  1  -1.246232  0  -0.23028  -0.592531  0  2.355614  0
O  O113  1  0.73365200  0.74437221  0.86307067  1  -1.250632  0  -0.23837  -0.605731  0  2.332438  0
F  F114  1  0.80875686  0.77213964  0.73481149  1  -0.632383  0  -0.096774  -0.13284  0  1.315685  0
F  F115  1  0.80861698  0.12932573  0.06119207  1  -0.62654  0  -0.096693  -0.132801  0  1.315934  0
F  F116  1  0.80878133  0.09850876  0.70399662  1  -0.62607  0  -0.096739  -0.132903  0  1.315609  0
F  F117  1  0.18810625  0.23429749  0.27248445  1  -0.628145  0  -0.097189  -0.133861  0  1.315577  0
F  F118  1  0.18822693  0.56085117  0.62845930  1  -0.626116  0  -0.097249  -0.133879  0  1.315351  0
F  F119  1  0.18808087  0.20486673  0.59903723  1  -0.627598  0  -0.09732  -0.133955  0  1.315629  0
F  F120  1  0.18898786  0.53831458  0.26603722  1  -0.628439  0  -0.100556  -0.13809  0  1.314106  0
F  F121  1  0.18919046  0.56727338  0.93893022  1  -0.62882  0  -0.100514  -0.137953  0  1.314216  0
F  F122  1  0.18899752  0.89438807  0.29501364  1  -0.626437  0  -0.100494  -0.138016  0  1.314219  0
