# generated using pymatgen
data_ZnH8C13N3O8
_symmetry_space_group_name_H-M   'P 1'
_cell_length_a   8.19046189
_cell_length_b   8.72052194
_cell_length_c   15.18805749
_cell_angle_alpha   74.77911057
_cell_angle_beta   89.65538435
_cell_angle_gamma   86.80591555
_symmetry_Int_Tables_number   1
_chemical_formula_structural   ZnH8C13N3O8
_chemical_formula_sum   'Zn2 H16 C26 N6 O16'
_cell_volume   1045.08650795
_cell_formula_units_Z   2
loop_
 _symmetry_equiv_pos_site_id
 _symmetry_equiv_pos_as_xyz
  1  'x, y, z'
loop_
 _atom_site_type_symbol
 _atom_site_label
 _atom_site_symmetry_multiplicity
 _atom_site_fract_x
 _atom_site_fract_y
 _atom_site_fract_z
 _atom_site_occupancy
 _atom_site_pbe_bader_charge
 _atom_site_pbe_bader_spin_density
 _atom_site_pbe_cm5_charge
 _atom_site_pbe_ddec_charge
 _atom_site_pbe_ddec_spin_density
 _atom_site_pbe_ddec_sum_bond_order
 _atom_site_pbe_magmom
Zn  Zn0  1  0.68740731  0.50692229  0.49908406  1  1.316493  0  0.698398  0.839959  0  2.319636  0
Zn  Zn1  1  0.31259035  0.49311597  0.50090519  1  1.316168  0  0.698309  0.840201  0  2.319777  0
H  H2  1  0.74021921  0.39930746  0.78836597  1  0.1439  0  0.112379  0.123634  0  1.030792  0
H  H3  1  0.25978273  0.60070605  0.21163744  1  0.143752  0  0.112337  0.12357  0  1.030708  0
H  H4  1  0.25747533  0.62368786  0.76043129  1  0.076402  0  0.114934  0.122825  0  0.986966  0
H  H5  1  0.74252390  0.37629769  0.23956617  1  0.076228  0  0.114948  0.122838  0  0.987078  0
H  H6  1  0.11992552  0.68571366  0.89284775  1  0.134807  0  0.124427  0.136238  0  0.973753  0
H  H7  1  0.88009052  0.31428770  0.10715786  1  0.134709  0  0.124413  0.136134  0  0.973652  0
H  H8  1  0.98965141  0.17798799  0.62708511  1  0.066897  0  0.091935  0.138866  0  1.004742  0
H  H9  1  0.19196061  0.21996682  0.65254288  1  0.066253  0  0.089824  0.134552  0  1.022484  0
H  H10  1  0.03476560  0.21429048  0.73462487  1  0.099441  0  0.097275  0.145885  0  1.005457  0
H  H11  1  0.09333671  0.49348120  0.65851361  1  0.099856  0  0.121596  0.117169  0  0.975887  0
H  H12  1  0.88754004  0.45473725  0.63478504  1  0.110221  0  0.112116  0.097525  0  1.050159  0
H  H13  1  0.80806090  0.78003824  0.34742984  1  0.066394  0  0.089831  0.134634  0  1.022432  0
H  H14  1  0.01036218  0.82200315  0.37288773  1  0.066939  0  0.091963  0.138829  0  1.004711  0
H  H15  1  0.96525753  0.78568754  0.26535564  1  0.09898  0  0.097327  0.146023  0  1.005623  0
H  H16  1  0.11245317  0.54523506  0.36520250  1  0.110171  0  0.112115  0.097417  0  1.050127  0
H  H17  1  0.90664332  0.50651422  0.34147532  1  0.099594  0  0.121643  0.11718  0  0.975682  0
C  C18  1  0.45033639  0.80078121  0.46857122  1  1.677885  0  0.22097  0.592287  0  4.209544  0
C  C19  1  0.54966590  0.19925803  0.53143773  1  1.677486  0  0.220819  0.592505  0  4.208408  0
C  C20  1  0.49888673  0.48712620  0.33281295  1  1.573277  0  0.229964  0.608467  0  4.141463  0
C  C21  1  0.50111142  0.51287973  0.66718130  1  1.573265  0  0.230152  0.608487  0  4.141082  0
C  C22  1  0.63683466  0.44609975  0.82007564  1  0.001929  0  -0.071244  -0.119991  0  3.903541  0
C  C23  1  0.36316992  0.55388335  0.17992858  1  -0.003808  0  -0.071133  -0.119781  0  3.90331  0
C  C24  1  0.49996557  0.51177657  0.76597863  1  -0.031769  0  -0.010588  -0.016501  0  3.984474  0
C  C25  1  0.50003310  0.48820394  0.23402726  1  -0.02615  0  -0.010608  -0.016563  0  3.984733  0
C  C26  1  0.36331798  0.57239352  0.80347340  1  0.058254  0  -0.063381  -0.117271  0  3.892389  0
C  C27  1  0.63667564  0.42758950  0.19653168  1  0.058245  0  -0.063331  -0.117182  0  3.89263  0
C  C28  1  0.36324749  0.56985066  0.89618103  1  0.018961  0  0.001425  0.084748  0  4.028722  0
C  C29  1  0.63674192  0.43014609  0.10382550  1  0.018935  0  0.001373  0.084644  0  4.028853  0
C  C30  1  0.50146241  0.50104111  0.95296791  1  -0.057527  0  0.018137  0.019976  0  3.882367  0
C  C31  1  0.49853411  0.49895729  0.04703569  1  -0.005601  0  0.01821  0.02025  0  3.882601  0
C  C32  1  0.63973298  0.43554631  0.91379503  1  0.00915  0  0.005112  0.0382  0  3.987921  0
C  C33  1  0.36027112  0.56444427  0.08620651  1  0.009776  0  0.004887  0.037788  0  3.988272  0
C  C34  1  0.22587321  0.63356885  0.93545151  1  0.059555  0  -0.057754  -0.134822  0  3.935742  0
C  C35  1  0.77412054  0.36643361  0.06454910  1  0.059595  0  -0.057691  -0.134615  0  3.935018  0
C  C36  1  0.22491625  0.63234187  0.02555211  1  0.189355  0  0.082599  0.025645  0  3.911287  0
C  C37  1  0.77510074  0.36765133  0.97444101  1  0.190215  0  0.082491  0.025402  0  3.911254  0
C  C38  1  0.43820854  0.95995428  0.48981712  1  0.209972  0  0.094307  -0.063703  0  3.80846  0
C  C39  1  0.56176876  0.04005425  0.51020176  1  0.30327  0  0.094256  -0.063808  0  3.808144  0
C  C40  1  0.01695960  0.42576635  0.62470397  1  0.230532  0  -0.068181  -0.060603  0  3.915389  0
C  C41  1  0.06175854  0.24783084  0.66141155  1  -0.090147  0  -0.240534  -0.374441  0  3.872312  0
C  C42  1  0.98302887  0.57423034  0.37528403  1  0.23108  0  -0.068097  -0.060747  0  3.914585  0
C  C43  1  0.93825231  0.75217128  0.33856495  1  -0.090005  0  -0.240671  -0.374738  0  3.872539  0
N  N44  1  0.05786282  0.47908580  0.52787363  1  -0.46826  0  -0.120218  0.014057  0  3.33052  0
N  N45  1  0.94212370  0.52092216  0.47211004  1  -0.423323  0  -0.120263  0.016035  0  3.329088  0
N  N46  1  0.07756561  0.70615812  0.05702504  1  0.381599  0  0.057683  0.520341  0  4.194633  0
N  N47  1  0.92244203  0.29386564  0.94297929  1  0.382448  0  0.057621  0.520293  0  4.195574  0
N  N48  1  0.26659601  0.02126939  0.49319313  1  0.443746  0  0.059681  0.540748  0  4.26262  0
N  N49  1  0.73340011  0.97873450  0.50683115  1  0.443639  0  0.059766  0.540123  0  4.262721  0
O  O50  1  0.59376832  0.74211652  0.46283713  1  -1.167694  0  -0.301723  -0.536746  0  2.380565  0
O  O51  1  0.40622532  0.25792885  0.53715153  1  -1.167265  0  -0.301611  -0.536903  0  2.380305  0
O  O52  1  0.31572560  0.74039763  0.46146684  1  -1.143618  0  -0.303745  -0.517674  0  2.311603  0
O  O53  1  0.68428651  0.25963838  0.53854024  1  -1.144  0  -0.303627  -0.517629  0  2.310955  0
O  O54  1  0.63675628  0.48315451  0.37157288  1  -1.171897  0  -0.305084  -0.54597  0  2.378774  0
O  O55  1  0.36323858  0.51686906  0.62842044  1  -1.171838  0  -0.305163  -0.545931  0  2.378628  0
O  O56  1  0.35970427  0.49056801  0.37006091  1  -1.163979  0  -0.306452  -0.534634  0  2.392903  0
O  O57  1  0.64030245  0.50946261  0.62993155  1  -1.164074  0  -0.306548  -0.534625  0  2.392788  0
O  O58  1  0.94597006  0.70109746  0.01802430  1  -0.462331  0  -0.137929  -0.344704  0  1.905085  0
O  O59  1  0.09269163  0.77135097  0.11999928  1  -0.471017  0  -0.130122  -0.338677  0  1.932137  0
O  O60  1  0.05403232  0.29893648  0.98198183  1  -0.462834  0  -0.138007  -0.344858  0  1.905527  0
O  O61  1  0.90734784  0.22869114  0.87999880  1  -0.471846  0  -0.13003  -0.33845  0  1.932379  0
O  O62  1  0.19602774  0.97365150  0.56633158  1  -0.416289  0  -0.102276  -0.296057  0  1.921687  0
O  O63  1  0.20686054  0.10585534  0.42128057  1  -0.419035  0  -0.113455  -0.300158  0  1.880648  0
O  O64  1  0.80397268  0.02633138  0.43368664  1  -0.416009  0  -0.102366  -0.295932  0  1.921684  0
O  O65  1  0.79312459  0.89413079  0.57875219  1  -0.419057  0  -0.113391  -0.299755  0  1.880374  0
