# generated using pymatgen
data_Zr3H14C31NO18F5
_symmetry_space_group_name_H-M   'P 1'
_cell_length_a   14.88619656
_cell_length_b   14.88154367
_cell_length_c   14.86263929
_cell_angle_alpha   59.88852843
_cell_angle_beta   59.86738499
_cell_angle_gamma   59.81837897
_symmetry_Int_Tables_number   1
_chemical_formula_structural   Zr3H14C31NO18F5
_chemical_formula_sum   'Zr6 H28 C62 N2 O36 F10'
_cell_volume   2320.66034019
_cell_formula_units_Z   2
loop_
 _symmetry_equiv_pos_site_id
 _symmetry_equiv_pos_as_xyz
  1  'x, y, z'
loop_
 _atom_site_type_symbol
 _atom_site_label
 _atom_site_symmetry_multiplicity
 _atom_site_fract_x
 _atom_site_fract_y
 _atom_site_fract_z
 _atom_site_occupancy
 _atom_site_pbe_bader_charge
 _atom_site_pbe_bader_spin_density
 _atom_site_pbe_cm5_charge
 _atom_site_pbe_ddec_charge
 _atom_site_pbe_ddec_spin_density
 _atom_site_pbe_ddec_sum_bond_order
 _atom_site_pbe_magmom
Zr  Zr0  1  0.88218454  0.37729590  0.61982909  1  2.634302  0  1.630612  2.376205  0  2.75151  0
Zr  Zr1  1  0.11840868  0.61697508  0.38128892  1  2.629857  0  1.625581  2.373964  0  2.738562  0
Zr  Zr2  1  0.12083336  0.37893179  0.62002304  1  2.638156  0  1.63251  2.378889  0  2.74816  0
Zr  Zr3  1  0.88257722  0.61426204  0.38192660  1  2.633256  0  1.629551  2.372449  0  2.751642  0
Zr  Zr4  1  0.88135122  0.61410137  0.62185144  1  2.635433  0  1.630028  2.372846  0  2.752307  0
Zr  Zr5  1  0.12137227  0.37537554  0.38415200  1  2.637301  0  1.63171  2.374338  0  2.747543  0
H  H6  1  0.90747227  0.40479763  0.78322343  1  0.583785  0  0.327487  0.416506  0  0.869931  0
H  H7  1  0.90754909  0.77723826  0.40791903  1  0.589463  0  0.32621  0.413855  0  0.873453  0
H  H8  1  0.28176999  0.40512080  0.40716356  1  0.599231  0  0.331106  0.421742  0  0.858947  0
H  H9  1  0.90925639  0.40149332  0.40755230  1  0.605178  0  0.332331  0.423408  0  0.857557  0
H  H10  1  0.56783070  0.72983942  0.89590007  1  0.088747  0  0.106759  0.125855  0  0.965134  0
H  H11  1  0.64917395  0.62073250  0.98043346  1  0.037265  0  0.095828  0.103217  0  1.003542  0
H  H12  1  0.47761985  0.62548241  0.14927904  1  0.066547  0  0.094875  0.108803  0  0.992068  0
H  H13  1  0.39664067  0.73253107  0.06379057  1  0.071097  0  0.101045  0.119306  0  0.981899  0
H  H14  1  0.23824773  0.05856018  0.30784084  1  0.057946  0  0.098061  0.107237  0  1.013934  0
H  H15  1  0.13499932  0.13850425  0.24466973  1  0.08042  0  0.098224  0.114394  0  0.987826  0
H  H16  1  0.14056733  0.96503753  0.24677235  1  0.052075  0  0.100055  0.11285  0  0.975392  0
H  H17  1  0.23975624  0.88433372  0.31565162  1  0.063796  0  0.100005  0.116604  0  0.984755  0
H  H18  1  0.51761454  0.84295927  0.37945931  1  0.057965  0  0.095958  0.114534  0  0.998745  0
H  H19  1  0.59712402  0.92892486  0.27201201  1  0.050638  0  0.098362  0.110912  0  0.98496  0
H  H20  1  0.42329500  0.09582264  0.27651796  1  0.052482  0  0.101537  0.114687  0  0.97688  0
H  H21  1  0.34508235  0.00976463  0.38871776  1  0.072789  0  0.101162  0.114898  0  0.991074  0
H  H22  1  0.86439707  0.75829856  0.02833412  1  0.057896  0  0.101487  0.116284  0  0.971526  0
H  H23  1  0.77147000  0.68230796  0.11202713  1  0.071845  0  0.099239  0.112597  0  0.983542  0
H  H24  1  0.76946471  0.68769623  0.94047687  1  0.052166  0  0.096733  0.10555  0  1.009351  0
H  H25  1  0.86355089  0.76179661  0.85708822  1  0.092069  0  0.096555  0.116204  0  1.005643  0
H  H26  1  0.80418883  0.25768032  0.92693959  1  0.0968  0  0.103949  0.110307  0  1.041925  0
H  H27  1  0.64307871  0.26003855  0.09622278  1  0.073933  0  0.102747  0.097924  0  1.006284  0
H  H28  1  0.80754142  0.92521099  0.26507256  1  0.085038  0  0.103675  0.107201  0  1.041527  0
H  H29  1  0.64547915  0.09369587  0.26693766  1  0.070955  0  0.103429  0.100764  0  1.015755  0
H  H30  1  0.54081023  0.33466952  0.75221968  1  0.073696  0  0.09712  0.119006  0  1.011518  0
H  H31  1  0.62290485  0.25346144  0.66399605  1  0.072244  0  0.100826  0.116473  0  0.976822  0
H  H32  1  0.45001043  0.25730583  0.66656753  1  0.081008  0  0.098412  0.119488  0  1.001726  0
H  H33  1  0.36814243  0.33970109  0.75353146  1  0.068794  0  0.100412  0.119574  0  0.984317  0
C  C34  1  0.69373425  0.49818323  0.79916540  1  1.574456  0  0.2384  0.661697  0  4.107008  0
C  C35  1  0.00028797  0.79583373  0.50558098  1  1.573711  0  0.237235  0.661093  0  4.106204  0
C  C36  1  0.29593705  0.50182441  0.19452786  1  1.583938  0  0.23834  0.666823  0  4.101165  0
C  C37  1  0.00421194  0.18986385  0.50667339  1  1.571705  0  0.238506  0.664778  0  4.099413  0
C  C38  1  0.00452921  0.19132188  0.80096720  1  1.605164  0  0.236804  0.643368  0  4.123162  0
C  C39  1  0.69533680  0.50298095  0.50207889  1  1.578851  0  0.23789  0.663415  0  4.103128  0
C  C40  1  0.00147604  0.79524931  0.19323079  1  1.618006  0  0.235115  0.638609  0  4.157833  0
C  C41  1  0.29684021  0.50712462  0.50186614  1  1.58344  0  0.237433  0.662506  0  4.101971  0
C  C42  1  0.00702614  0.50078618  0.79881995  1  1.583806  0  0.236906  0.661797  0  4.103192  0
C  C43  1  0.30342948  0.19417194  0.50539725  1  1.568312  0  0.238154  0.665379  0  4.101667  0
C  C44  1  0.01092511  0.49750514  0.19502792  1  1.575926  0  0.240696  0.669391  0  4.092666  0
C  C45  1  0.69842049  0.79645427  0.50391698  1  1.571173  0  0.236684  0.660845  0  4.106365  0
C  C46  1  0.58997036  0.50137851  0.89538738  1  -0.003617  0  -0.01842  -0.174112  0  3.983964  0
C  C47  1  0.39250467  0.50395197  0.09119937  1  0.065271  0  -0.016852  -0.171576  0  3.989091  0
C  C48  1  0.54954723  0.56821271  0.95709321  1  -0.001471  0  -0.005589  0.069768  0  3.905595  0
C  C49  1  0.43055351  0.43809479  0.02809220  1  0.49466  0  0.098888  0.15537  0  4.04941  0
C  C50  1  0.45546207  0.56930843  0.05068561  1  0.023367  0  -0.006048  0.065215  0  3.91569  0
C  C51  1  0.52570091  0.43659408  0.93433788  1  0.539601  0  0.097395  0.15191  0  4.050364  0
C  C52  1  0.57183354  0.65197529  0.96543125  1  -0.026712  0  -0.14721  -0.194459  0  3.861252  0
C  C53  1  0.46474539  0.65366570  0.07143287  1  0.001506  0  -0.149388  -0.194036  0  3.856841  0
C  C54  1  0.00220487  0.09018619  0.50788963  1  0.044949  0  -0.016599  -0.169707  0  3.970977  0
C  C55  1  0.99980253  0.89487491  0.50782841  1  0.031352  0  -0.018106  -0.172657  0  3.982323  0
C  C56  1  0.07240670  0.04599829  0.42221996  1  -0.032068  0  -0.006761  0.062874  0  3.904708  0
C  C57  1  0.92712555  0.93989248  0.59366035  1  0.545454  0  0.099697  0.15552  0  4.045738  0
C  C58  1  0.07184518  0.95231137  0.42277571  1  0.032658  0  -0.006363  0.06629  0  3.911459  0
C  C59  1  0.92872704  0.03312978  0.59412069  1  0.524127  0  0.099563  0.156939  0  4.046774  0
C  C60  1  0.16155506  0.06284837  0.30991492  1  -0.028318  0  -0.1484  -0.193277  0  3.860028  0
C  C61  1  0.16302741  0.95475757  0.31218625  1  -0.000809  0  -0.147899  -0.192182  0  3.860981  0
C  C62  1  0.60243280  0.90026328  0.50172647  1  -0.002052  0  -0.018572  -0.174273  0  3.982916  0
C  C63  1  0.40694892  0.09772714  0.50248353  1  0.046838  0  -0.016643  -0.172148  0  3.986487  0
C  C64  1  0.53984872  0.94167926  0.43544371  1  -0.021759  0  -0.008347  0.060922  0  3.917569  0
C  C65  1  0.47247886  0.05987201  0.56569826  1  0.529335  0  0.100509  0.158269  0  4.054576  0
C  C66  1  0.44622466  0.03564635  0.43637592  1  0.050036  0  -0.006977  0.064234  0  3.91496  0
C  C67  1  0.56608822  0.96439602  0.56597758  1  0.534225  0  0.100241  0.159982  0  4.037217  0
C  C68  1  0.52963889  0.92096091  0.35151795  1  0.006937  0  -0.149493  -0.194588  0  3.859148  0
C  C69  1  0.42201782  0.02637478  0.35443231  1  -0.021678  0  -0.148341  -0.196898  0  3.866422  0
C  C70  1  0.01608531  0.49982096  0.09139808  1  0.093199  0  -0.0163  -0.170113  0  3.977083  0
C  C71  1  0.01343970  0.50227461  0.89478882  1  0.033547  0  -0.018478  -0.173303  0  3.976449  0
C  C72  1  0.94183315  0.58383826  0.03605767  1  -0.014973  0  -0.006035  0.066935  0  3.908676  0
C  C73  1  0.09092190  0.41838430  0.94826841  1  0.512618  0  0.099251  0.154711  0  4.045824  0
C  C74  1  0.94044840  0.58526814  0.94224671  1  -0.017513  0  -0.0063  0.065526  0  3.903751  0
C  C75  1  0.09207745  0.41706775  0.04273859  1  0.52317  0  0.099014  0.156374  0  4.047711  0
C  C76  1  0.84545889  0.69036840  0.03905913  1  -0.0206  0  -0.147756  -0.19117  0  3.860618  0
C  C77  1  0.84452674  0.69278666  0.93197024  1  -0.021281  0  -0.149653  -0.194331  0  3.85884  0
C  C78  1  0.00241986  0.09109840  0.90380823  1  0.082453  0  0.00655  -0.097612  0  3.882017  0
C  C79  1  0.90450540  0.09154532  0.99856148  1  0.015027  0  0.011553  0.080628  0  3.930275  0
C  C80  1  0.09518664  0.99778897  0.90668407  1  0.208868  0  0.089862  0.016956  0  3.920181  0
C  C81  1  0.80753830  0.18599424  0.00138083  1  -0.010394  0  -0.085439  -0.125236  0  3.941417  0
C  C82  1  0.71667179  0.18660200  0.09615031  1  -0.048982  0  -0.078851  -0.055022  0  3.990823  0
C  C83  1  0.99936953  0.89757380  0.09212689  1  0.072388  0  0.015339  -0.072593  0  3.873916  0
C  C84  1  0.09153315  0.89931698  0.99766195  1  0.221623  0  0.087923  0.000454  0  3.912036  0
C  C85  1  0.90479670  0.99483551  0.09581579  1  -0.017957  0  0.00567  0.061589  0  3.937475  0
C  C86  1  0.80943725  0.99868762  0.19207004  1  -0.023911  0  -0.084752  -0.120053  0  3.947337  0
C  C87  1  0.71782929  0.09267695  0.19239830  1  -0.000752  0  -0.083273  -0.071086  0  4.00219  0
C  C88  1  0.59347606  0.50721357  0.50159528  1  0.008184  0  -0.01777  -0.172506  0  3.976018  0
C  C89  1  0.39498908  0.51049429  0.50207771  1  0.085261  0  -0.018264  -0.17304  0  3.978213  0
C  C90  1  0.54165933  0.42869935  0.57996546  1  0.003774  0  -0.003844  0.070484  0  3.899725  0
C  C91  1  0.44609641  0.59069745  0.42285725  1  0.467095  0  0.094677  0.149281  0  4.054349  0
C  C92  1  0.44684744  0.43045494  0.58033781  1  0.002507  0  -0.003912  0.07029  0  3.900289  0
C  C93  1  0.54139444  0.58885948  0.42240488  1  0.526732  0  0.095362  0.150395  0  4.049308  0
C  C94  1  0.54917505  0.32479678  0.67980738  1  -0.017621  0  -0.149219  -0.197308  0  3.852539  0
C  C95  1  0.44127533  0.32733145  0.68070411  1  -0.006568  0  -0.148082  -0.194845  0  3.845456  0
N  N96  1  0.18288772  0.79481387  0.99019622  1  0.393477  0  0.064275  0.520684  0  4.209239  0
N  N97  1  0.19810673  0.00129067  0.80974342  1  0.439837  0  0.060656  0.516114  0  4.254917  0
O  O98  1  0.73683937  0.41998038  0.76099498  1  -1.171525  0  -0.359859  -0.625236  0  2.31187  0
O  O99  1  0.07564124  0.76112443  0.42554320  1  -1.170545  0  -0.345844  -0.601182  0  2.250953  0
O  O100  1  0.25846159  0.57880657  0.23265599  1  -1.173742  0  -0.349526  -0.607419  0  2.253739  0
O  O101  1  0.92707840  0.23243949  0.58066415  1  -1.177537  0  -0.359075  -0.618576  0  2.313151  0
O  O102  1  0.08032494  0.22971871  0.76393388  1  -1.168679  0  -0.337472  -0.593377  0  2.27112  0
O  O103  1  0.73775858  0.57728855  0.42560434  1  -1.170083  0  -0.364278  -0.624908  0  2.316275  0
O  O104  1  0.92578613  0.75609530  0.23232676  1  -1.170179  0  -0.3419  -0.602432  0  2.305837  0
O  O105  1  0.26120058  0.42853620  0.57844639  1  -1.16849  0  -0.340103  -0.593414  0  2.251463  0
O  O106  1  0.92618153  0.57518187  0.76513152  1  -1.182729  0  -0.343573  -0.602741  0  2.234685  0
O  O107  1  0.26403547  0.22946416  0.43002371  1  -1.16834  0  -0.346346  -0.605619  0  2.250691  0
O  O108  1  0.08352401  0.41944062  0.23872818  1  -1.166184  0  -0.35766  -0.614554  0  2.31338  0
O  O109  1  0.73597056  0.75237024  0.58244221  1  -1.163025  0  -0.35707  -0.611001  0  2.314739  0
O  O110  1  0.26190547  0.23452178  0.58143092  1  -1.163971  0  -0.356114  -0.615983  0  2.31519  0
O  O111  1  0.93143445  0.57351658  0.23368415  1  -1.175548  0  -0.346099  -0.60349  0  2.254134  0
O  O112  1  0.73594606  0.75986478  0.42572206  1  -1.174184  0  -0.344836  -0.604377  0  2.249894  0
O  O113  1  0.08120606  0.42433098  0.75853165  1  -1.166383  0  -0.360596  -0.618225  0  2.320619  0
O  O114  1  0.92886541  0.22851302  0.76209705  1  -1.166029  0  -0.338036  -0.592503  0  2.279163  0
O  O115  1  0.25726537  0.58076088  0.42467568  1  -1.171831  0  -0.361828  -0.623092  0  2.309695  0
O  O116  1  0.07537293  0.76239758  0.23283903  1  -1.16399  0  -0.342807  -0.609932  0  2.264843  0
O  O117  1  0.73349116  0.42428775  0.57843549  1  -1.16952  0  -0.338851  -0.594826  0  2.240072  0
O  O118  1  0.08227851  0.22651349  0.42982900  1  -1.168387  0  -0.342526  -0.601264  0  2.234286  0
O  O119  1  0.73356487  0.57282249  0.76419924  1  -1.170973  0  -0.34272  -0.59929  0  2.253541  0
O  O120  1  0.92555931  0.75422752  0.58152231  1  -1.168314  0  -0.357517  -0.615841  0  2.316538  0
O  O121  1  0.26075375  0.42165965  0.23923210  1  -1.163648  0  -0.355999  -0.612962  0  2.314343  0
O  O122  1  0.93508275  0.42835965  0.43457665  1  -1.23112  0  -0.696083  -1.075703  0  2.376614  0
O  O123  1  0.20185969  0.43078504  0.43457301  1  -1.22702  0  -0.694175  -1.071945  0  2.372016  0
O  O124  1  0.93326732  0.69737592  0.43332826  1  -1.222769  0  -0.693986  -1.070392  0  2.37653  0
O  O125  1  0.93420430  0.42876806  0.70330290  1  -1.218456  0  -0.693858  -1.075671  0  2.37048  0
O  O126  1  0.04965993  0.54697940  0.55025536  1  -1.196787  0  -0.791272  -1.151392  0  2.134762  0
O  O127  1  0.85299758  0.54519018  0.55077043  1  -1.196137  0  -0.791036  -1.151692  0  2.130528  0
O  O128  1  0.05061606  0.54529465  0.35324525  1  -1.195954  0  -0.788606  -1.143831  0  2.117288  0
O  O129  1  0.05069745  0.34826568  0.55200207  1  -1.201118  0  -0.790514  -1.152296  0  2.12638  0
O  O130  1  0.15723107  0.71098597  0.03466065  1  -0.440933  0  -0.107485  -0.298732  0  1.913048  0
O  O131  1  0.27794187  0.79771885  0.93870194  1  -0.42568  0  -0.110608  -0.308734  0  1.937245  0
O  O132  1  0.26522784  0.02222720  0.81445551  1  -0.393101  0  -0.091245  -0.272607  0  1.928045  0
O  O133  1  0.20580390  0.98523134  0.73163875  1  -0.437303  0  -0.125765  -0.314884  0  1.856651  0
F  F134  1  0.37633589  0.37335043  0.05412350  1  -0.613193  0  -0.088664  -0.104976  0  1.402995  0
F  F135  1  0.55253923  0.36918205  0.88226034  1  -0.623001  0  -0.081783  -0.106884  0  1.427513  0
F  F136  1  0.85148191  0.89489372  0.68153615  1  -0.621445  0  -0.079738  -0.102544  0  1.429046  0
F  F137  1  0.85531287  0.06497989  0.68309897  1  -0.614965  0  -0.088741  -0.106348  0  1.395684  0
F  F138  1  0.44986533  0.11536756  0.62777986  1  -0.617731  0  -0.08046  -0.1026  0  1.435494  0
F  F139  1  0.62165795  0.93844633  0.62955886  1  -0.614129  0  -0.088717  -0.105795  0  1.391542  0
F  F140  1  0.16788157  0.33246748  0.91256338  1  -0.615339  0  -0.085822  -0.105896  0  1.407009  0
F  F141  1  0.16942547  0.32994627  0.08595074  1  -0.614931  0  -0.083719  -0.104807  0  1.416211  0
F  F142  1  0.40603905  0.67437296  0.34143134  1  -0.623208  0  -0.088422  -0.114298  0  1.413144  0
F  F143  1  0.58141847  0.67060971  0.33992650  1  -0.62554  0  -0.086897  -0.113887  0  1.420536  0
