# generated using pymatgen
data_Zn4H42C36O13
_symmetry_space_group_name_H-M   'P 1'
_cell_length_a   21.69587359
_cell_length_b   21.70410029
_cell_length_c   21.62482627
_cell_angle_alpha   60.20529196
_cell_angle_beta   60.28751941
_cell_angle_gamma   89.97582362
_symmetry_Int_Tables_number   1
_chemical_formula_structural   Zn4H42C36O13
_chemical_formula_sum   'Zn8 H84 C72 O26'
_cell_volume   7255.18282291
_cell_formula_units_Z   2
loop_
 _symmetry_equiv_pos_site_id
 _symmetry_equiv_pos_as_xyz
  1  'x, y, z'
loop_
 _atom_site_type_symbol
 _atom_site_label
 _atom_site_symmetry_multiplicity
 _atom_site_fract_x
 _atom_site_fract_y
 _atom_site_fract_z
 _atom_site_occupancy
 _atom_site_pbe_bader_charge
 _atom_site_pbe_bader_spin_density
 _atom_site_pbe_cm5_charge
 _atom_site_pbe_ddec_charge
 _atom_site_pbe_ddec_spin_density
 _atom_site_pbe_ddec_sum_bond_order
 _atom_site_pbe_magmom
Zn  Zn0  1  0.95318901  0.03925159  0.08476779  1  1.299577  0  0.664083  0.950019  0  2.39078  0
Zn  Zn1  1  0.95378625  0.04174770  0.93535133  1  1.307364  0  0.663667  0.950917  0  2.389447  0
Zn  Zn2  1  0.95418528  0.89357164  0.08103507  1  1.318226  0  0.663126  0.949766  0  2.393438  0
Zn  Zn3  1  0.10103828  0.03955472  0.93737846  1  1.307756  0  0.663135  0.954127  0  2.381784  0
Zn  Zn4  1  0.52595308  0.46712656  0.93596774  1  1.304438  0  0.663462  0.948552  0  2.393961  0
Zn  Zn5  1  0.52550017  0.46623306  0.08551745  1  1.300004  0  0.663319  0.950822  0  2.390432  0
Zn  Zn6  1  0.37901627  0.46762707  0.08532917  1  1.299744  0  0.662976  0.953885  0  2.381759  0
Zn  Zn7  1  0.52773844  0.61344393  0.93431873  1  1.307305  0  0.663005  0.948485  0  2.397529  0
H  H8  1  0.86878936  0.23252582  0.94440751  1  0.037104  0  0.108405  0.092012  0  0.948522  0
H  H9  1  0.76435329  0.12767260  0.14278087  1  0.041139  0  0.091668  0.093415  0  0.978772  0
H  H10  1  0.83102343  0.21682875  0.08046317  1  0.025752  0  0.091641  0.092388  0  0.986786  0
H  H11  1  0.68371921  0.20457785  0.13866466  1  0.010358  0  0.088719  0.059175  0  0.982831  0
H  H12  1  0.65549345  0.17440804  0.05257839  1  0.028024  0  0.08808  0.057097  0  0.98475  0
H  H13  1  0.78386452  0.16568682  0.93806948  1  0.027969  0  0.092975  0.09553  0  0.986979  0
H  H14  1  0.73326550  0.09459055  0.05089189  1  0.016354  0  0.090492  0.089477  0  0.976589  0
H  H15  1  0.79434394  0.30130305  0.88594433  1  0.013396  0  0.088914  0.059833  0  0.983068  0
H  H16  1  0.64757545  0.28953550  0.94250673  1  0.022575  0  0.091133  0.091831  0  0.985282  0
H  H17  1  0.71389597  0.37865035  0.88118628  1  0.042331  0  0.091876  0.09419  0  0.979064  0
H  H18  1  0.60838643  0.27305663  0.07946841  1  0.038586  0  0.10836  0.091885  0  0.949483  0
H  H19  1  0.74325678  0.41111651  0.97432903  1  0.041138  0  0.090426  0.089081  0  0.976787  0
H  H20  1  0.69233101  0.33962465  0.08706753  1  0.05721  0  0.093215  0.095495  0  0.987048  0
H  H21  1  0.82175840  0.33217435  0.97212098  1  0.014834  0  0.088422  0.058725  0  0.983398  0
H  H22  1  0.75470365  0.82217924  0.35591363  1  0.025542  0  0.108388  0.092056  0  0.946967  0
H  H23  1  0.87177456  0.89762524  0.35838424  1  0.030872  0  0.091558  0.092566  0  0.978634  0
H  H24  1  0.78500392  0.91245927  0.38146575  1  0.041186  0  0.092143  0.092631  0  0.987538  0
H  H25  1  0.79629347  0.81305147  0.51467595  1  0.009143  0  0.088836  0.058857  0  0.983209  0
H  H26  1  0.81136742  0.69762772  0.51038678  1  0.002882  0  0.088247  0.057694  0  0.98402  0
H  H27  1  0.80664646  0.71941871  0.37616956  1  0.041004  0  0.092664  0.0937  0  0.985998  0
H  H28  1  0.88632118  0.77079856  0.35445970  1  0.022551  0  0.090808  0.090023  0  0.977274  0
H  H29  1  0.67685947  0.68531509  0.50459767  1  0.011969  0  0.088657  0.058575  0  0.984001  0
H  H30  1  0.69073999  0.58899615  0.63703608  1  0.02299  0  0.091768  0.092333  0  0.985912  0
H  H31  1  0.60322153  0.60201071  0.66076283  1  0.037455  0  0.091276  0.092235  0  0.979067  0
H  H32  1  0.72034120  0.68229682  0.65931927  1  0.037055  0  0.108552  0.092427  0  0.947953  0
H  H33  1  0.58663906  0.72905835  0.66160671  1  0.007532  0  0.091199  0.090249  0  0.977469  0
H  H34  1  0.66492641  0.78289053  0.63985942  1  0.02765  0  0.092971  0.094533  0  0.985723  0
H  H35  1  0.66347241  0.80274665  0.50495763  1  0.005892  0  0.088701  0.058508  0  0.983645  0
H  H36  1  0.17265633  0.11497483  0.06702464  1  0.02298  0  0.108142  0.09224  0  0.947655  0
H  H37  1  0.08713285  0.22644233  0.03556468  1  0.042065  0  0.091694  0.093486  0  0.980028  0
H  H38  1  0.07813686  0.16425868  0.13402025  1  -0.001973  0  0.091585  0.091678  0  0.986386  0
H  H39  1  0.17054843  0.31080320  0.02442199  1  0.043481  0  0.088631  0.058467  0  0.982725  0
H  H40  1  0.28637287  0.32660208  0.89093009  1  0.032869  0  0.088371  0.057792  0  0.984245  0
H  H41  1  0.27018314  0.19063368  0.91157812  1  0.033142  0  0.093071  0.094502  0  0.98686  0
H  H42  1  0.21338940  0.24435561  0.88930895  1  -0.004847  0  0.091124  0.090698  0  0.97602  0
H  H43  1  0.30590611  0.18912229  0.00761379  1  0.021352  0  0.088731  0.058564  0  0.982855  0
H  H44  1  0.39897737  0.33524918  0.89759997  1  0.015547  0  0.091756  0.092212  0  0.986986  0
H  H45  1  0.38925175  0.27379950  0.99670067  1  0.027525  0  0.091464  0.093012  0  0.978767  0
H  H46  1  0.30381918  0.38495137  0.96310145  1  0.043376  0  0.108296  0.092189  0  0.948101  0
H  H47  1  0.26409315  0.25746208  0.14117478  1  0.033241  0  0.090726  0.08966  0  0.976362  0
H  H48  1  0.20688519  0.31057890  0.11902601  1  0.030372  0  0.092799  0.094141  0  0.986121  0
H  H49  1  0.19049656  0.17394874  0.14117610  1  0.020624  0  0.088388  0.058279  0  0.984734  0
H  H50  1  0.87703426  0.82657424  0.95064385  1  0.036424  0  0.108705  0.092933  0  0.94754  0
H  H51  1  0.75851730  0.90352335  0.99057633  1  0.016915  0  0.091229  0.092536  0  0.97859  0
H  H52  1  0.82223748  0.91758360  0.88940655  1  0.029185  0  0.091551  0.092122  0  0.985684  0
H  H53  1  0.67908411  0.81806711  0.99852414  1  0.008532  0  0.088632  0.058553  0  0.983767  0
H  H54  1  0.66916822  0.70234831  0.12780224  1  0.025533  0  0.088551  0.058073  0  0.984291  0
H  H55  1  0.80546641  0.72581692  0.10516263  1  0.041158  0  0.092731  0.094807  0  0.985586  0
H  H56  1  0.74698658  0.77790596  0.13173362  1  0.040839  0  0.090857  0.090247  0  0.975713  0
H  H57  1  0.81177755  0.69354495  0.00473735  1  0.036709  0  0.088771  0.058646  0  0.983633  0
H  H58  1  0.66947195  0.59280843  0.11450342  1  0.021529  0  0.092196  0.09333  0  0.987189  0
H  H59  1  0.73198419  0.60799532  0.01236081  1  0.01462  0  0.091182  0.091919  0  0.977695  0
H  H60  1  0.61367801  0.68439589  0.05589420  1  0.051311  0  0.108864  0.092407  0  0.948505  0
H  H61  1  0.74081497  0.73181956  0.87406214  1  0.023008  0  0.090662  0.090065  0  0.976798  0
H  H62  1  0.68306305  0.78434750  0.90077039  1  0.035925  0  0.092569  0.094145  0  0.986524  0
H  H63  1  0.82057753  0.80841121  0.87538411  1  0.025089  0  0.088231  0.057801  0  0.983277  0
H  H64  1  0.17273094  0.24073583  0.66367247  1  0.042522  0  0.107195  0.090991  0  0.947989  0
H  H65  1  0.09151183  0.12670926  0.66220054  1  0.011175  0  0.091658  0.093703  0  0.980176  0
H  H66  1  0.08006966  0.21466059  0.63860675  1  0.041076  0  0.091724  0.092219  0  0.986042  0
H  H67  1  0.17549462  0.20127968  0.50594751  1  0.007062  0  0.088837  0.05914  0  0.983363  0
H  H68  1  0.29100478  0.18248894  0.50916151  1  0.00047  0  0.088194  0.057521  0  0.985404  0
H  H69  1  0.27243454  0.18472790  0.64345439  1  0.04093  0  0.092991  0.094024  0  0.986777  0
H  H70  1  0.21797488  0.10685858  0.66521966  1  0.034354  0  0.090987  0.089744  0  0.977216  0
H  H71  1  0.30797600  0.31608167  0.51550027  1  0.013096  0  0.088675  0.058937  0  0.983601  0
H  H72  1  0.40183097  0.30137446  0.38339987  1  0.019845  0  0.091742  0.092366  0  0.986803  0
H  H73  1  0.39106053  0.38970592  0.35904499  1  0.059732  0  0.091535  0.093467  0  0.979497  0
H  H74  1  0.30689938  0.27442159  0.36147333  1  0.045963  0  0.108243  0.091745  0  0.948266  0
H  H75  1  0.26508240  0.41031039  0.35742780  1  -0.00162  0  0.091041  0.090018  0  0.977062  0
H  H76  1  0.20897008  0.33303626  0.37983815  1  0.038583  0  0.092878  0.094512  0  0.987377  0
H  H77  1  0.19147137  0.33410720  0.51409640  1  0.013344  0  0.08843  0.057907  0  0.984564  0
H  H78  1  0.17639471  0.84049126  0.93970527  1  0.043387  0  0.108137  0.092476  0  0.949547  0
H  H79  1  0.08880073  0.75132458  0.13768948  1  0.032141  0  0.091902  0.094539  0  0.97944  0
H  H80  1  0.08126218  0.72149869  0.07827664  1  0.039633  0  0.091677  0.091697  0  0.985418  0
H  H81  1  0.17396341  0.67903247  0.13259051  1  0.019533  0  0.089352  0.060336  0  0.982348  0
H  H82  1  0.28730398  0.79557003  0.04274369  1  0.003075  0  0.088652  0.058253  0  0.984163  0
H  H83  1  0.26957764  0.91559048  0.92881979  1  0.041425  0  0.093321  0.095638  0  0.986868  0
H  H84  1  0.21084685  0.87642732  0.04149740  1  0.021657  0  0.090929  0.089877  0  0.975101  0
H  H85  1  0.30987238  0.82970611  0.87882188  1  0.026494  0  0.089193  0.059925  0  0.9824  0
H  H86  1  0.40250756  0.78762195  0.93314575  1  0.021654  0  0.091039  0.091338  0  0.984541  0
H  H87  1  0.39461499  0.75636234  0.87498320  1  0.061866  0  0.091863  0.094461  0  0.979404  0
H  H88  1  0.30576137  0.66972581  0.07292754  1  0.034937  0  0.107962  0.092133  0  0.95076  0
H  H89  1  0.27370910  0.63225647  0.97060387  1  0.023821  0  0.090911  0.089438  0  0.976122  0
H  H90  1  0.21399032  0.59317714  0.08326198  1  0.044527  0  0.09342  0.095672  0  0.987113  0
H  H91  1  0.19650329  0.71287022  0.96881762  1  0.007592  0  0.088508  0.058428  0  0.984418  0
C  C92  1  0.87570254  0.12478287  0.00823079  1  1.529702  0  0.229611  0.62349  0  4.120472  0
C  C93  1  0.82930356  0.17695307  0.00496629  1  0.010181  0  -0.085389  -0.106329  0  3.872656  0
C  C94  1  0.79117816  0.18409532  0.08182536  1  -0.021413  0  -0.164136  -0.194066  0  3.934306  0
C  C95  1  0.73193006  0.21980524  0.07530979  1  -0.013216  0  -0.089055  -0.036601  0  3.774108  0
C  C96  1  0.71468987  0.20116861  0.02273017  1  -0.019132  0  -0.089632  -0.034554  0  3.778221  0
C  C97  1  0.76418095  0.15512035  0.00111292  1  0.003807  0  -0.16077  -0.19134  0  3.92469  0
C  C98  1  0.74590179  0.28628088  0.94905714  1  -0.018467  0  -0.089677  -0.038506  0  3.77747  0
C  C99  1  0.68691960  0.32204875  0.94191918  1  -0.018459  0  -0.164032  -0.193643  0  3.936212  0
C  C100  1  0.64797714  0.32867474  0.01911059  1  0.020421  0  -0.08547  -0.107505  0  3.874682  0
C  C101  1  0.71257837  0.35050908  0.02375048  1  -0.050007  0  -0.160466  -0.189653  0  3.921476  0
C  C102  1  0.76271230  0.30495296  0.00188293  1  -0.019985  0  -0.090497  -0.03956  0  3.78059  0
C  C103  1  0.60177782  0.38099589  0.01533005  1  1.534422  0  0.229056  0.624754  0  4.120574  0
C  C104  1  0.86470321  0.88445839  0.24367827  1  1.549447  0  0.229264  0.622513  0  4.118232  0
C  C105  1  0.81139112  0.83456915  0.34170503  1  0.014399  0  -0.084875  -0.105852  0  3.868838  0
C  C106  1  0.81298652  0.86964469  0.38790131  1  -0.019471  0  -0.164177  -0.192825  0  3.934691  0
C  C107  1  0.77599433  0.80280906  0.48196061  1  -0.005668  0  -0.089648  -0.036505  0  3.776739  0
C  C108  1  0.78472458  0.73178829  0.47993708  1  0.013213  0  -0.08973  -0.036781  0  3.776595  0
C  C109  1  0.82555269  0.75969851  0.38479064  1  -0.037826  0  -0.161554  -0.189672  0  3.920379  0
C  C110  1  0.69793722  0.69696992  0.53591762  1  -0.01428  0  -0.08997  -0.036813  0  3.775338  0
C  C111  1  0.66191120  0.63113375  0.63038400  1  -0.025756  0  -0.162983  -0.19173  0  3.928739  0
C  C112  1  0.66326536  0.66795889  0.67507123  1  -0.019542  0  -0.084592  -0.106803  0  3.871432  0
C  C113  1  0.64747346  0.74158728  0.63160061  1  0.014861  0  -0.162354  -0.190319  0  3.926384  0
C  C114  1  0.68921185  0.76852215  0.53676834  1  -0.01331  0  -0.089952  -0.037994  0  3.779895  0
C  C115  1  0.61162113  0.61929175  0.77328727  1  1.556285  0  0.229259  0.623008  0  4.117009  0
C  C116  1  0.10692865  0.10882230  0.02302767  1  1.526011  0  0.229498  0.625001  0  4.113468  0
C  C117  1  0.15603392  0.15521184  0.02618465  1  0.036725  0  -0.085006  -0.106858  0  3.866869  0
C  C118  1  0.11852321  0.19992936  0.06311428  1  -0.002169  0  -0.164357  -0.193042  0  3.930967  0
C  C119  1  0.18392370  0.25960531  0.03222845  1  -0.039811  0  -0.090054  -0.035773  0  3.77444  0
C  C120  1  0.25471946  0.26923442  0.95040384  1  -0.033272  0  -0.08925  -0.036309  0  3.778227  0
C  C121  1  0.22795763  0.21516286  0.93633326  1  0.023438  0  -0.161256  -0.191085  0  3.921428  0
C  C122  1  0.29274216  0.24042356  0.99967241  1  -0.025527  0  -0.089887  -0.03587  0  3.774659  0
C  C123  1  0.35826935  0.30014031  0.96844441  1  0.005096  0  -0.164327  -0.193635  0  3.93556  0
C  C124  1  0.32070806  0.34557565  0.00420707  1  0.017968  0  -0.08531  -0.107669  0  3.872992  0
C  C125  1  0.24911300  0.28597037  0.09445166  1  -0.030161  0  -0.161063  -0.18894  0  3.920971  0
C  C126  1  0.22206993  0.23113558  0.08137419  1  -0.021397  0  -0.090197  -0.039233  0  3.77835  0
C  C127  1  0.37032834  0.39359994  0.00517757  1  1.550967  0  0.229228  0.624249  0  4.119225  0
C  C128  1  0.88029038  0.88941942  0.99835697  1  1.563139  0  0.229232  0.624124  0  4.119609  0
C  C129  1  0.83526909  0.84019439  0.99408630  1  0.002517  0  -0.085138  -0.108141  0  3.871186  0
C  C130  1  0.78802333  0.87518677  0.95991794  1  -0.0026  0  -0.163033  -0.191428  0  3.93013  0
C  C131  1  0.73188482  0.80803686  0.98871886  1  0.000423  0  -0.089762  -0.037552  0  3.775171  0
C  C132  1  0.72584701  0.73731381  0.06796350  1  -0.032725  0  -0.089912  -0.037193  0  3.779765  0
C  C133  1  0.77823733  0.76589679  0.08270228  1  -0.042388  0  -0.16147  -0.190384  0  3.922258  0
C  C134  1  0.75876229  0.70309185  0.01482457  1  -0.02663  0  -0.089868  -0.037115  0  3.77578  0
C  C135  1  0.70269874  0.63563910  0.04413924  1  0.002612  0  -0.163367  -0.192667  0  3.934659  0
C  C136  1  0.65419012  0.67047298  0.01196005  1  -0.001063  0  -0.084752  -0.106644  0  3.875286  0
C  C137  1  0.71056878  0.74437390  0.92275557  1  -0.018923  0  -0.162357  -0.190896  0  3.926233  0
C  C138  1  0.76420576  0.77355930  0.93580784  1  -0.028331  0  -0.089627  -0.036656  0  3.776569  0
C  C139  1  0.60667824  0.62040006  0.01103044  1  1.574504  0  0.228051  0.622322  0  4.122947  0
C  C140  1  0.10842942  0.13082634  0.77610910  1  1.545741  0  0.228319  0.622362  0  4.121176  0
C  C141  1  0.15783849  0.18432107  0.67808983  1  0.024012  0  -0.084592  -0.104951  0  3.870282  0
C  C142  1  0.12149102  0.18496068  0.63226523  1  0.000158  0  -0.164754  -0.1942  0  3.938037  0
C  C143  1  0.18753655  0.22088648  0.53814978  1  -0.009018  0  -0.090033  -0.037123  0  3.779509  0
C  C144  1  0.25836768  0.20954154  0.53991519  1  0.011493  0  -0.089626  -0.03655  0  3.780302  0
C  C145  1  0.23107176  0.16776907  0.63495194  1  -0.05462  0  -0.160853  -0.18932  0  3.919058  0
C  C146  1  0.29519486  0.29607312  0.48403553  1  -0.002404  0  -0.089692  -0.037421  0  3.777784  0
C  C147  1  0.36066386  0.33136168  0.38973023  1  -0.027688  0  -0.164716  -0.194433  0  3.935533  0
C  C148  1  0.32322615  0.33142115  0.34512618  1  -0.011882  0  -0.084608  -0.105124  0  3.866426  0
C  C149  1  0.25094552  0.34933273  0.38795132  1  0.023195  0  -0.160907  -0.190301  0  3.922668  0
C  C150  1  0.22411068  0.30740571  0.48281806  1  -0.034996  0  -0.089835  -0.036431  0  3.779345  0
C  C151  1  0.37202038  0.38278592  0.24689273  1  1.537683  0  0.22914  0.622828  0  4.115487  0
C  C152  1  0.10775962  0.88561467  0.00401788  1  1.572741  0  0.228686  0.624225  0  4.118694  0
C  C153  1  0.15746529  0.83684313  0.99954700  1  -0.001739  0  -0.086022  -0.107825  0  3.870555  0
C  C154  1  0.12081861  0.75412956  0.07735996  1  -0.024784  0  -0.164568  -0.19316  0  3.934182  0
C  C155  1  0.18709117  0.72560739  0.06945950  1  -0.021855  0  -0.090097  -0.03912  0  3.776718  0
C  C156  1  0.25642994  0.79695836  0.01450419  1  0.002457  0  -0.089843  -0.03657  0  3.779189  0
C  C157  1  0.22778593  0.86406881  0.99277140  1  -0.020601  0  -0.159635  -0.190385  0  3.916139  0
C  C158  1  0.29662320  0.78319101  0.94203353  1  -0.021464  0  -0.090244  -0.038477  0  3.776927  0
C  C159  1  0.36275236  0.75455697  0.93468850  1  -0.042187  0  -0.163747  -0.19269  0  3.934587  0
C  C160  1  0.32555513  0.67230088  0.01349442  1  0.034332  0  -0.086418  -0.109917  0  3.877379  0
C  C161  1  0.25594185  0.64469600  0.01939991  1  -0.028999  0  -0.159688  -0.189259  0  3.91747  0
C  C162  1  0.22728899  0.71177182  0.99705806  1  -0.007685  0  -0.089691  -0.037574  0  3.779303  0
C  C163  1  0.37477169  0.62302483  0.01145702  1  1.545035  0  0.228773  0.626003  0  4.119537  0
O  O164  1  0.99066923  0.00370652  0.00949702  1  -1.225721  0  -0.573477  -1.028211  0  2.551563  0
O  O165  1  0.89156864  0.10363106  0.95808097  1  -1.18381  0  -0.322036  -0.554831  0  2.332545  0
O  O166  1  0.89578407  0.10678963  0.05964272  1  -1.158295  0  -0.316835  -0.545708  0  2.328489  0
O  O167  1  0.58321949  0.39986009  0.06787786  1  -1.161701  0  -0.322288  -0.555483  0  2.330315  0
O  O168  1  0.58473872  0.40144766  0.96099428  1  -1.186905  0  -0.316813  -0.546315  0  2.334364  0
O  O169  1  0.88401383  0.85158055  0.20498841  1  -1.172764  0  -0.320022  -0.550877  0  2.327817  0
O  O170  1  0.88561121  0.95508652  0.20773908  1  -1.169479  0  -0.317393  -0.548541  0  2.336542  0
O  O171  1  0.59305480  0.65354639  0.81035884  1  -1.170783  0  -0.319847  -0.551489  0  2.328596  0
O  O172  1  0.59138689  0.54828749  0.81124056  1  -1.155974  0  -0.317057  -0.547297  0  2.328352  0
O  O173  1  0.14048772  0.08667039  0.97390042  1  -1.16581  0  -0.322357  -0.555775  0  2.322033  0
O  O174  1  0.03629307  0.09547627  0.06957940  1  -1.179905  0  -0.316665  -0.547429  0  2.334837  0
O  O175  1  0.33722222  0.41438327  0.05582168  1  -1.168454  0  -0.321273  -0.553129  0  2.323631  0
O  O176  1  0.44104852  0.40970350  0.95500572  1  -1.189875  0  -0.317228  -0.548093  0  2.341874  0
O  O177  1  0.90203243  0.85553952  0.04791546  1  -1.175416  0  -0.321242  -0.554845  0  2.334947  0
O  O178  1  0.89343472  0.96010806  0.95218044  1  -1.179538  0  -0.31666  -0.545656  0  2.326273  0
O  O179  1  0.58680740  0.65357967  0.95941272  1  -1.184457  0  -0.320171  -0.551643  0  2.337671  0
O  O180  1  0.58952666  0.54960457  0.06237559  1  -1.191201  0  -0.317323  -0.547057  0  2.330582  0
O  O181  1  0.14136279  0.11530234  0.81467517  1  -1.180736  0  -0.32146  -0.553807  0  2.32241  0
O  O182  1  0.03821128  0.10578353  0.81214692  1  -1.18567  0  -0.316306  -0.547297  0  2.339797  0
O  O183  1  0.33834128  0.39726765  0.20923274  1  -1.171656  0  -0.321016  -0.553448  0  2.319708  0
O  O184  1  0.44261139  0.40703845  0.20952977  1  -1.167414  0  -0.316774  -0.546869  0  2.332641  0
O  O185  1  0.14027405  0.95607732  0.94519581  1  -1.18794  0  -0.32369  -0.557913  0  2.32063  0
O  O186  1  0.03802120  0.85313994  0.06524120  1  -1.184119  0  -0.315803  -0.545174  0  2.331749  0
O  O187  1  0.34164991  0.55293193  0.07175299  1  -1.181433  0  -0.324362  -0.55896  0  2.323465  0
O  O188  1  0.44464832  0.65483654  0.95071084  1  -1.189265  0  -0.315569  -0.544624  0  2.333324  0
O  O189  1  0.48935345  0.50333651  0.01059564  1  -1.206929  0  -0.573306  -1.027537  0  2.551746  0
