# generated using pymatgen
data_ZnH12C20NO5
_symmetry_space_group_name_H-M   'P 1'
_cell_length_a   10.25747984
_cell_length_b   14.19588277
_cell_length_c   27.11469595
_cell_angle_alpha   103.93779503
_cell_angle_beta   89.98178600
_cell_angle_gamma   111.17260491
_symmetry_Int_Tables_number   1
_chemical_formula_structural   ZnH12C20NO5
_chemical_formula_sum   'Zn8 H96 C160 N8 O40'
_cell_volume   3556.93155821
_cell_formula_units_Z   8
loop_
 _symmetry_equiv_pos_site_id
 _symmetry_equiv_pos_as_xyz
  1  'x, y, z'
loop_
 _atom_site_type_symbol
 _atom_site_label
 _atom_site_symmetry_multiplicity
 _atom_site_fract_x
 _atom_site_fract_y
 _atom_site_fract_z
 _atom_site_occupancy
 _atom_site_pbe_bader_charge
 _atom_site_pbe_bader_spin_density
 _atom_site_pbe_cm5_charge
 _atom_site_pbe_ddec_charge
 _atom_site_pbe_ddec_spin_density
 _atom_site_pbe_ddec_sum_bond_order
 _atom_site_pbe_magmom
Zn  Zn0  1  0.33029326  0.22313531  0.92347039  1  1.29182  0  0.688653  0.845061  0  2.267406  0
Zn  Zn1  1  0.10719629  0.77681866  0.57648379  1  1.29163  0  0.688841  0.845129  0  2.268763  0
Zn  Zn2  1  0.66971024  0.77686693  0.07653050  1  1.291879  0  0.68869  0.845058  0  2.267368  0
Zn  Zn3  1  0.89280195  0.22318280  0.42351663  1  1.291497  0  0.688899  0.84528  0  2.268596  0
Zn  Zn4  1  0.33963022  0.00101928  0.92732882  1  1.282942  0  0.689316  0.831452  0  2.314846  0
Zn  Zn5  1  0.33835541  0.99896662  0.57266479  1  1.283076  0  0.689573  0.83169  0  2.314074  0
Zn  Zn6  1  0.66036431  0.99898060  0.07266993  1  1.283026  0  0.689377  0.831537  0  2.314708  0
Zn  Zn7  1  0.66164479  0.00103485  0.42733675  1  1.283156  0  0.689577  0.831636  0  2.314107  0
H  H8  1  0.42109322  0.35719176  0.08426192  1  0.086642  0  0.101154  0.104084  0  1.008999  0
H  H9  1  0.06396895  0.64278743  0.41577147  1  0.087776  0  0.101399  0.104258  0  1.008633  0
H  H10  1  0.57890696  0.64280578  0.91573802  1  0.086624  0  0.101165  0.104108  0  1.009013  0
H  H11  1  0.93602754  0.35721638  0.58422962  1  0.087759  0  0.101393  0.104227  0  1.008694  0
H  H12  1  0.43603037  0.40824708  0.17969786  1  0.134261  0  0.104334  0.113307  0  1.033888  0
H  H13  1  0.02765778  0.59162220  0.32033429  1  0.13603  0  0.10491  0.113909  0  1.033468  0
H  H14  1  0.56396630  0.59175125  0.82030217  1  0.134338  0  0.104326  0.113279  0  1.03393  0
H  H15  1  0.97233969  0.40838161  0.67966679  1  0.135938  0  0.104938  0.113973  0  1.033494  0
H  H16  1  0.54935106  0.17516423  0.21895683  1  0.090586  0  0.10034  0.100018  0  1.033268  0
H  H17  1  0.37414422  0.82474249  0.28099729  1  0.082346  0  0.10061  0.100183  0  1.033058  0
H  H18  1  0.45064581  0.82483645  0.78104386  1  0.090537  0  0.10036  0.100017  0  1.033275  0
H  H19  1  0.62585518  0.17525740  0.71900257  1  0.082081  0  0.100606  0.100179  0  1.033039  0
H  H20  1  0.62321589  0.08134532  0.27201518  1  0.099658  0  0.109662  0.114708  0  1.004321  0
H  H21  1  0.54161127  0.91888842  0.22797353  1  0.107309  0  0.109654  0.114965  0  1.00445  0
H  H22  1  0.37677473  0.91865066  0.72798382  1  0.099594  0  0.109665  0.114643  0  1.004367  0
H  H23  1  0.45838677  0.08110678  0.77202575  1  0.107312  0  0.109645  0.114978  0  1.004388  0
H  H24  1  0.35517592  0.15082778  0.38559315  1  0.074182  0  0.104106  0.108232  0  0.991407  0
H  H25  1  0.20401289  0.84912655  0.11444480  1  0.06946  0  0.104136  0.108326  0  0.9907  0
H  H26  1  0.64482018  0.84917135  0.61440809  1  0.074246  0  0.104128  0.108278  0  0.991325  0
H  H27  1  0.79598593  0.15087022  0.88555504  1  0.069441  0  0.104133  0.108348  0  0.990689  0
H  H28  1  0.28083990  0.24703271  0.33224817  1  0.08304  0  0.102142  0.098842  0  1.044497  0
H  H29  1  0.03367383  0.75267014  0.16778282  1  0.071325  0  0.101852  0.097943  0  1.044637  0
H  H30  1  0.71915835  0.75296877  0.66775410  1  0.083107  0  0.102143  0.098764  0  1.044503  0
H  H31  1  0.96632421  0.24732898  0.83221805  1  0.071305  0  0.101842  0.097925  0  1.044656  0
H  H32  1  0.29743724  0.08310611  0.17974820  1  0.097407  0  0.105172  0.10691  0  1.011362  0
H  H33  1  0.21448130  0.91669723  0.32018618  1  0.093587  0  0.105524  0.10704  0  1.012154  0
H  H34  1  0.70256470  0.91689301  0.82025267  1  0.09725  0  0.105164  0.106881  0  1.011382  0
H  H35  1  0.78552728  0.08330736  0.67981500  1  0.093442  0  0.105542  0.107084  0  1.012128  0
H  H36  1  0.29167850  0.03384110  0.08509940  1  0.130933  0  0.103557  0.108313  0  1.015578  0
H  H37  1  0.25812224  0.96607065  0.41482358  1  0.106444  0  0.103655  0.108462  0  1.015735  0
H  H38  1  0.70832656  0.96615646  0.91490127  1  0.130934  0  0.103534  0.108342  0  1.01562  0
H  H39  1  0.74188010  0.03393317  0.58517824  1  0.106545  0  0.103625  0.108433  0  1.015636  0
H  H40  1  0.11693540  0.93552600  0.76184828  1  0.106198  0  0.109453  0.110733  0  1.019734  0
H  H41  1  0.18165442  0.06465590  0.73811014  1  0.090495  0  0.109751  0.110946  0  1.019166  0
H  H42  1  0.88306206  0.06447389  0.23815158  1  0.105976  0  0.109452  0.110733  0  1.019743  0
H  H43  1  0.81834070  0.93534323  0.26189110  1  0.090386  0  0.109734  0.110927  0  1.019281  0
H  H44  1  0.02111137  0.74524343  0.72338437  1  0.130577  0  0.11005  0.114603  0  1.031054  0
H  H45  1  0.27618013  0.25495844  0.77653087  1  0.130804  0  0.110215  0.114933  0  1.030621  0
H  H46  1  0.97888862  0.25475568  0.27661539  1  0.130402  0  0.110046  0.114619  0  1.031179  0
H  H47  1  0.72381888  0.74504067  0.22346926  1  0.130833  0  0.110214  0.114913  0  1.030634  0
H  H48  1  0.63984752  0.45275547  0.73900278  1  0.081947  0  0.101857  0.102828  0  1.02218  0
H  H49  1  0.18733188  0.54762099  0.76114217  1  0.080898  0  0.101742  0.102775  0  1.021865  0
H  H50  1  0.36015325  0.54724911  0.26099729  1  0.08197  0  0.101851  0.102869  0  1.022143  0
H  H51  1  0.81266655  0.45237889  0.23885695  1  0.080907  0  0.101727  0.10275  0  1.021867  0
H  H52  1  0.48631220  0.32704265  0.78483070  1  0.117101  0  0.103175  0.101776  0  1.056601  0
H  H53  1  0.15950342  0.67343616  0.71536971  1  0.111106  0  0.102826  0.101529  0  1.05631  0
H  H54  1  0.51368778  0.67295644  0.21516721  1  0.116971  0  0.103192  0.101814  0  1.056641  0
H  H55  1  0.84050048  0.32656685  0.28463054  1  0.111268  0  0.10283  0.101499  0  1.056316  0
H  H56  1  0.81278180  0.43921158  0.90736223  1  0.074918  0  0.102236  0.104202  0  1.001073  0
H  H57  1  0.37314124  0.56090062  0.59262226  1  0.075843  0  0.10268  0.104553  0  1.001194  0
H  H58  1  0.18721642  0.56078204  0.09263574  1  0.075116  0  0.10222  0.104209  0  1.001058  0
H  H59  1  0.62686714  0.43910553  0.40737912  1  0.075871  0  0.102652  0.104503  0  1.001126  0
H  H60  1  0.96930453  0.56109647  0.86083426  1  0.07435  0  0.094801  0.090313  0  1.034857  0
H  H61  1  0.40785126  0.43898370  0.63910250  1  0.064238  0  0.095047  0.090616  0  1.035315  0
H  H62  1  0.03069429  0.43890029  0.13916558  1  0.074334  0  0.094805  0.090306  0  1.034859  0
H  H63  1  0.59215127  0.56101854  0.36089765  1  0.06416  0  0.095038  0.090626  0  1.035281  0
H  H64  1  0.89515264  0.69439616  0.86966844  1  0.06747  0  0.099713  0.097897  0  1.037384  0
H  H65  1  0.20086946  0.30567756  0.63025076  1  0.059244  0  0.099755  0.098217  0  1.037668  0
H  H66  1  0.10485008  0.30560452  0.13033152  1  0.067447  0  0.099687  0.097829  0  1.037409  0
H  H67  1  0.79913208  0.69432075  0.36974817  1  0.059246  0  0.099762  0.098219  0  1.037668  0
H  H68  1  0.00193831  0.88440417  0.90881082  1  0.064054  0  0.10366  0.109535  0  0.988395  0
H  H69  1  0.11773303  0.11567774  0.59113952  1  0.065005  0  0.103715  0.109691  0  0.988724  0
H  H70  1  0.99806402  0.11559572  0.09118904  1  0.064057  0  0.103662  0.109551  0  0.988413  0
H  H71  1  0.88226287  0.88431903  0.40886106  1  0.064917  0  0.10373  0.109717  0  0.988723  0
H  H72  1  0.34408155  0.40904511  0.00475855  1  0.109177  0  0.120109  0.093953  0  0.996855  0
H  H73  1  0.93566048  0.59066545  0.49525428  1  0.116455  0  0.119988  0.093824  0  0.996998  0
H  H74  1  0.65592311  0.59095556  0.99524104  1  0.109189  0  0.120076  0.093922  0  0.996856  0
H  H75  1  0.06433483  0.40933600  0.50474541  1  0.116502  0  0.119997  0.093857  0  0.996973  0
H  H76  1  0.34680493  0.58430033  0.00729770  1  0.226101  0  0.110236  0.13651  0  1.082645  0
H  H77  1  0.76271850  0.41552449  0.49265263  1  0.206262  0  0.11041  0.136918  0  1.081649  0
H  H78  1  0.65320071  0.41570034  0.99270226  1  0.226134  0  0.110268  0.136544  0  1.082625  0
H  H79  1  0.23727973  0.58447695  0.50734669  1  0.206266  0  0.110404  0.136937  0  1.081617  0
H  H80  1  0.16626432  0.45956249  0.84867593  1  0.136091  0  0.113315  0.126866  0  1.025055  0
H  H81  1  0.70649483  0.54040101  0.65124843  1  0.139424  0  0.113738  0.127228  0  1.025078  0
H  H82  1  0.83373782  0.54043897  0.15132486  1  0.136153  0  0.113307  0.126875  0  1.02502  0
H  H83  1  0.29350165  0.45959888  0.34875143  1  0.139362  0  0.11373  0.127237  0  1.025052  0
H  H84  1  0.18241934  0.29231918  0.85331365  1  0.115996  0  0.126022  0.102413  0  1.013126  0
H  H85  1  0.89007556  0.70752256  0.64663986  1  0.119203  0  0.126119  0.102224  0  1.012558  0
H  H86  1  0.81758104  0.70768071  0.14668657  1  0.115984  0  0.126011  0.102397  0  1.013111  0
H  H87  1  0.10992189  0.29247733  0.35336000  1  0.119228  0  0.126135  0.102209  0  1.012571  0
H  H88  1  0.29276094  0.70939452  0.01040979  1  0.129371  0  0.11899  0.139755  0  1.002513  0
H  H89  1  0.58337865  0.29045560  0.48950408  1  0.114509  0  0.118908  0.14001  0  1.001988  0
H  H90  1  0.70725075  0.29060849  0.98959009  1  0.129353  0  0.118973  0.139715  0  1.002451  0
H  H91  1  0.41662738  0.70954194  0.51049549  1  0.114507  0  0.118915  0.140034  0  1.001961  0
H  H92  1  0.31890098  0.88646271  0.00615791  1  0.142169  0  0.12406  0.105343  0  1.005804  0
H  H93  1  0.43257839  0.11338945  0.49378116  1  0.140809  0  0.123587  0.105003  0  1.006129  0
H  H94  1  0.68110505  0.11353872  0.99384067  1  0.142162  0  0.124054  0.105346  0  1.005737  0
H  H95  1  0.56742647  0.88660966  0.50621898  1  0.140781  0  0.12357  0.104972  0  1.006155  0
H  H96  1  0.28110175  0.80314381  0.84779816  1  0.131011  0  0.123861  0.104253  0  1.001436  0
H  H97  1  0.47728043  0.19694267  0.65214767  1  0.149472  0  0.124054  0.104072  0  1.000913  0
H  H98  1  0.71889492  0.19685451  0.15220077  1  0.131027  0  0.12386  0.104259  0  1.001457  0
H  H99  1  0.52271742  0.80305800  0.34785229  1  0.149458  0  0.124017  0.104032  0  1.000966  0
H  H100  1  0.25557402  0.62013955  0.84473501  1  0.09237  0  0.114514  0.122657  0  1.01519  0
H  H101  1  0.63473238  0.37989426  0.65518222  1  0.088653  0  0.114792  0.122824  0  1.014615  0
H  H102  1  0.74442733  0.37986033  0.15526411  1  0.092437  0  0.114503  0.122605  0  1.015222  0
H  H103  1  0.36526546  0.62010640  0.34481700  1  0.088646  0  0.114749  0.122688  0  1.014672  0
C  C104  1  0.35000798  0.16120251  0.02190874  1  1.552964  0  0.221222  0.597883  0  4.161295  0
C  C105  1  0.18898088  0.83879650  0.47805815  1  1.567579  0  0.22078  0.597352  0  4.164464  0
C  C106  1  0.64998928  0.83879505  0.97809156  1  1.553026  0  0.221288  0.597979  0  4.161256  0
C  C107  1  0.81102146  0.16120341  0.52194319  1  1.567622  0  0.220786  0.597319  0  4.164539  0
C  C108  1  0.35488947  0.19232640  0.07895203  1  0.032303  0  -0.017976  -0.040273  0  3.97114  0
C  C109  1  0.16276191  0.80762606  0.42102479  1  -0.028608  0  -0.017728  -0.038121  0  3.971179  0
C  C110  1  0.64511247  0.80766881  0.92104872  1  0.03242  0  -0.017992  -0.040415  0  3.971247  0
C  C111  1  0.83724004  0.19237697  0.57897656  1  -0.028631  0  -0.01779  -0.038232  0  3.971215  0
C  C112  1  0.39428187  0.29787749  0.10562724  1  -0.101506  0  -0.082776  -0.092163  0  3.966469  0
C  C113  1  0.09652542  0.70206275  0.39438696  1  -0.103294  0  -0.083011  -0.093718  0  3.966744  0
C  C114  1  0.60571968  0.70212084  0.89437280  1  -0.10158  0  -0.082829  -0.092201  0  3.966688  0
C  C115  1  0.90347185  0.29794262  0.60561469  1  -0.103222  0  -0.082946  -0.09353  0  3.966728  0
C  C116  1  0.40168117  0.32633161  0.15864669  1  -0.00911  0  -0.077798  -0.094348  0  3.94239  0
C  C117  1  0.07532969  0.67354497  0.34136785  1  0.050274  0  -0.077932  -0.093284  0  3.941182  0
C  C118  1  0.59831999  0.67366595  0.84135399  1  -0.00919  0  -0.077787  -0.094324  0  3.942428  0
C  C119  1  0.92467206  0.32645963  0.65863444  1  0.050215  0  -0.077997  -0.093491  0  3.941296  0
C  C120  1  0.36817696  0.24925865  0.18578914  1  -0.040156  0  -0.010017  4.7e-05  0  3.957242  0
C  C121  1  0.11891753  0.75059112  0.31420597  1  -0.090483  0  -0.010619  -0.001558  0  3.957703  0
C  C122  1  0.63182206  0.75074047  0.81421173  1  -0.040206  0  -0.010008  1.1e-05  0  3.957324  0
C  C123  1  0.88108344  0.24941192  0.68579612  1  -0.090126  0  -0.010535  -0.001337  0  3.957603  0
C  C124  1  0.37096356  0.28047629  0.24259264  1  0.904188  0  0.165237  0.355889  0  3.971304  0
C  C125  1  0.09044131  0.71934605  0.25741356  1  0.960149  0  0.165355  0.35502  0  3.970665  0
C  C126  1  0.62903351  0.71952283  0.75740824  1  0.903771  0  0.165242  0.356005  0  3.971193  0
C  C127  1  0.90955713  0.28065777  0.74258863  1  0.960156  0  0.165252  0.354872  0  3.970754  0
C  C128  1  0.40908383  0.21718192  0.27221651  1  -0.009786  0  -0.016073  -0.012395  0  3.986453  0
C  C129  1  0.19181787  0.78264739  0.22777392  1  -0.087158  0  -0.01576  -0.010852  0  3.983161  0
C  C130  1  0.59091266  0.78281798  0.72778446  1  -0.009375  0  -0.016147  -0.012657  0  3.986562  0
C  C131  1  0.80818037  0.21735407  0.77222650  1  -0.087146  0  -0.015761  -0.010858  0  3.983374  0
C  C132  1  0.50473547  0.16933746  0.25502846  1  -0.048023  0  -0.080884  -0.10231  0  3.977744  0
C  C133  1  0.33527841  0.83060855  0.24495554  1  -0.03428  0  -0.080984  -0.102806  0  3.976723  0
C  C134  1  0.49525828  0.83066089  0.74497269  1  -0.048142  0  -0.08086  -0.102229  0  3.977641  0
C  C135  1  0.66471885  0.16938900  0.75504477  1  -0.034221  0  -0.080975  -0.102769  0  3.976724  0
C  C136  1  0.54575247  0.11552864  0.28445606  1  0.0377  0  -0.076014  -0.07643  0  3.957082  0
C  C137  1  0.42998697  0.88458353  0.21554574  1  0.051577  0  -0.076368  -0.077082  0  3.958497  0
C  C138  1  0.45424089  0.88446891  0.71554388  1  0.037818  0  -0.07601  -0.076371  0  3.956947  0
C  C139  1  0.57001458  0.11541480  0.78445466  1  0.051823  0  -0.076368  -0.077131  0  3.958632  0
C  C140  1  0.49118673  0.10791801  0.33129651  1  -0.045108  0  -0.008678  -0.015827  0  3.95586  0
C  C141  1  0.38299151  0.89218015  0.16872341  1  -0.021182  0  -0.00912  -0.016458  0  3.955706  0
C  C142  1  0.50880761  0.89207954  0.66870380  1  -0.045078  0  -0.008694  -0.01569  0  3.955609  0
C  C143  1  0.61700692  0.10781584  0.83127670  1  -0.021446  0  -0.009112  -0.016472  0  3.955808  0
C  C144  1  0.54128720  0.05176322  0.36215664  1  1.522416  0  0.196643  0.555296  0  4.209483  0
C  C145  1  0.48922226  0.94831629  0.13784663  1  1.519294  0  0.196863  0.555547  0  4.207921  0
C  C146  1  0.45870811  0.94823433  0.63784330  1  1.522455  0  0.196638  0.555217  0  4.209607  0
C  C147  1  0.51077597  0.05168125  0.86215294  1  1.519079  0  0.196891  0.555581  0  4.207915  0
C  C148  1  0.39624074  0.15615441  0.34885721  1  -0.051101  0  -0.081972  -0.094094  0  3.961474  0
C  C149  1  0.23984423  0.84384102  0.15116786  1  -0.076742  0  -0.081794  -0.094017  0  3.960671  0
C  C150  1  0.60375496  0.84384392  0.65114320  1  -0.051195  0  -0.082035  -0.094299  0  3.961278  0
C  C151  1  0.76015595  0.15615653  0.84883208  1  -0.07672  0  -0.081808  -0.09408  0  3.960751  0
C  C152  1  0.35547847  0.21028163  0.31940962  1  -0.0515  0  -0.078501  -0.085377  0  3.960194  0
C  C153  1  0.14505533  0.78958054  0.18060945  1  0.013924  0  -0.078338  -0.084732  0  3.960252  0
C  C154  1  0.64451607  0.78971828  0.68059209  1  -0.05148  0  -0.078468  -0.085157  0  3.960141  0
C  C155  1  0.85494447  0.21042013  0.81939088  1  0.013976  0  -0.078284  -0.084642  0  3.960317  0
C  C156  1  0.32688836  0.14354754  0.15903081  1  -0.068323  0  -0.078685  -0.09972  0  3.96154  0
C  C157  1  0.18347834  0.85629913  0.34092783  1  -0.069686  0  -0.07894  -0.099346  0  3.962116  0
C  C158  1  0.67311222  0.85645079  0.84096959  1  -0.068321  0  -0.078646  -0.099598  0  3.961496  0
C  C159  1  0.81652497  0.14370467  0.65907288  1  -0.069852  0  -0.078971  -0.099497  0  3.962295  0
C  C160  1  0.32123641  0.11544904  0.10605232  1  -0.079286  0  -0.083994  -0.090548  0  3.967239  0
C  C161  1  0.20600255  0.88445551  0.39389955  1  -0.050748  0  -0.084278  -0.091392  0  3.967677  0
C  C162  1  0.67876983  0.88455087  0.89394939  1  -0.079114  0  -0.083954  -0.090568  0  3.967053  0
C  C163  1  0.79400115  0.11554908  0.60610237  1  -0.050727  0  -0.084259  -0.091341  0  3.967733  0
C  C164  1  0.13116131  0.03777437  0.86087050  1  1.507445  0  0.218567  0.590577  0  4.141435  0
C  C165  1  0.09321484  0.96232270  0.63912290  1  1.52369  0  0.219403  0.592371  0  4.140377  0
C  C166  1  0.86883361  0.96222630  0.13912872  1  1.50753  0  0.218535  0.590436  0  4.141493  0
C  C167  1  0.90678125  0.03767642  0.36087761  1  1.523729  0  0.219388  0.592339  0  4.140417  0
C  C168  1  0.06938840  0.92231868  0.83813053  1  -0.010852  0  -0.005869  -0.01599  0  3.967183  0
C  C169  1  0.14724566  0.07780675  0.66182443  1  -0.058484  0  -0.004864  -0.015805  0  3.968839  0
C  C170  1  0.93061198  0.07768121  0.16186970  1  -0.010864  0  -0.00583  -0.015951  0  3.967222  0
C  C171  1  0.85275004  0.92219158  0.33817560  1  -0.058395  0  -0.004902  -0.01582  0  3.968899  0
C  C172  1  0.07170532  0.88246768  0.78567817  1  0.029606  0  -0.071984  -0.069977  0  3.924209  0
C  C173  1  0.18951167  0.11767499  0.71426329  1  0.061631  0  -0.072866  -0.070736  0  3.924077  0
C  C174  1  0.92829507  0.11753222  0.21432206  1  0.029821  0  -0.071995  -0.069974  0  3.924252  0
C  C175  1  0.81048209  0.88232335  0.28573711  1  0.061531  0  -0.072838  -0.070717  0  3.924163  0
C  C176  1  0.01780720  0.77548125  0.76409757  1  -0.11485  0  -0.075455  -0.082984  0  3.92014  0
C  C177  1  0.24262496  0.22468083  0.73582791  1  -0.074621  0  -0.074324  -0.081611  0  3.919178  0
C  C178  1  0.98219221  0.22451864  0.23590266  1  -0.114675  0  -0.075431  -0.082996  0  3.920168  0
C  C179  1  0.75737347  0.77531905  0.26417158  1  -0.074448  0  -0.07434  -0.081581  0  3.919124  0
C  C180  1  0.95630707  0.70553464  0.79409041  1  -0.006514  0  -0.017254  -0.019082  0  3.968824  0
C  C181  1  0.25099377  0.29461502  0.70583656  1  0.02081  0  -0.018  -0.019228  0  3.969783  0
C  C182  1  0.04369663  0.29446604  0.20590992  1  -0.006723  0  -0.017287  -0.019048  0  3.968699  0
C  C183  1  0.74900485  0.70538331  0.29416348  1  0.020785  0  -0.018024  -0.019313  0  3.969871  0
C  C184  1  0.89347986  0.59167052  0.76800384  1  0.932891  0  0.16588  0.356893  0  3.971324  0
C  C185  1  0.30178843  0.40845701  0.73195174  1  0.916222  0  0.165952  0.355799  0  3.972085  0
C  C186  1  0.10651838  0.40833094  0.23199622  1  0.933106  0  0.165781  0.356615  0  3.971515  0
C  C187  1  0.69821487  0.59154287  0.26804701  1  0.916273  0  0.165953  0.355891  0  3.972014  0
C  C188  1  0.81296328  0.51576561  0.79708245  1  -0.012497  0  -0.010088  0.008234  0  3.964033  0
C  C189  1  0.29701842  0.48436869  0.70291716  1  -0.053138  0  -0.010221  0.008401  0  3.96274  0
C  C190  1  0.18703593  0.48423584  0.20291723  1  -0.012402  0  -0.01003  0.008328  0  3.963996  0
C  C191  1  0.70298332  0.51563198  0.29708243  1  -0.053156  0  -0.010219  0.008363  0  3.962738  0
C  C192  1  0.67831451  0.44683468  0.77511080  1  -0.125486  0  -0.081084  -0.102174  0  3.962712  0
C  C193  1  0.23149525  0.55341871  0.72497551  1  -0.036914  0  -0.080594  -0.101211  0  3.962213  0
C  C194  1  0.32168529  0.55316598  0.22488878  1  -0.12554  0  -0.081097  -0.102179  0  3.962698  0
C  C195  1  0.76850474  0.44658040  0.27502388  1  -0.036896  0  -0.080605  -0.101211  0  3.962188  0
C  C196  1  0.59237203  0.37814302  0.80085969  1  -0.004454  0  -0.08083  -0.078078  0  3.961349  0
C  C197  1  0.21423719  0.62215771  0.69927383  1  0.003762  0  -0.080391  -0.078116  0  3.961804  0
C  C198  1  0.40762698  0.62185607  0.19913896  1  -0.004269  0  -0.080817  -0.078128  0  3.961432  0
C  C199  1  0.78576495  0.37784374  0.30072623  1  0.003622  0  -0.080401  -0.078027  0  3.961796  0
C  C200  1  0.63885180  0.37703751  0.84916850  1  -0.025555  0  -0.012936  -0.020125  0  3.961522  0
C  C201  1  0.26155301  0.62315716  0.65090338  1  -0.020602  0  -0.01291  -0.020104  0  3.961222  0
C  C202  1  0.36114799  0.62295924  0.15082987  1  -0.025545  0  -0.012905  -0.020118  0  3.961524  0
C  C203  1  0.73845518  0.37684664  0.34909696  1  -0.020636  0  -0.01294  -0.020336  0  3.961256  0
C  C204  1  0.53779151  0.31159732  0.87830035  1  1.539317  0  0.195023  0.548933  0  4.216167  0
C  C205  1  0.22591714  0.68866408  0.62183756  1  1.53779  0  0.194976  0.548721  0  4.21748  0
C  C206  1  0.46220574  0.68840020  0.12169738  1  1.539384  0  0.194958  0.548872  0  4.216242  0
C  C207  1  0.77409104  0.31133971  0.37816204  1  1.537803  0  0.195042  0.548881  0  4.217197  0
C  C208  1  0.77591803  0.44216452  0.87026497  1  0.005939  0  -0.081288  -0.088478  0  3.968179  0
C  C209  1  0.33339921  0.55797453  0.62973490  1  0.002226  0  -0.081151  -0.087574  0  3.967123  0
C  C210  1  0.22408039  0.55783146  0.12973367  1  0.005731  0  -0.081348  -0.088555  0  3.968324  0
C  C211  1  0.66660936  0.44203005  0.37026554  1  0.002148  0  -0.081086  -0.08734  0  3.966878  0
C  C212  1  0.86262393  0.51093222  0.84432408  1  -0.048635  0  -0.089256  -0.11442  0  3.985388  0
C  C213  1  0.35134895  0.48917034  0.65563316  1  -0.086595  0  -0.090444  -0.11649  0  3.986157  0
C  C214  1  0.13737664  0.48906610  0.15567522  1  -0.048714  0  -0.089221  -0.114387  0  3.985532  0
C  C215  1  0.64865182  0.51083033  0.34436606  1  -0.086439  0  -0.09045  -0.116571  0  3.986174  0
C  C216  1  0.94872761  0.74626672  0.84621400  1  -0.020419  0  -0.084042  -0.100639  0  3.991313  0
C  C217  1  0.20267725  0.25386113  0.65372180  1  -0.035797  0  -0.084116  -0.101447  0  3.992921  0
C  C218  1  0.05127238  0.25373239  0.15378577  1  -0.020368  0  -0.084015  -0.100549  0  3.991299  0
C  C219  1  0.79732079  0.74613797  0.34627760  1  -0.03584  0  -0.084114  -0.101404  0  3.992971  0
C  C220  1  0.00730745  0.85356028  0.86826110  1  -0.050081  0  -0.092132  -0.122682  0  4.006472  0
C  C221  1  0.15396342  0.14655408  0.63168813  1  -0.064486  0  -0.093415  -0.123953  0  4.008216  0
C  C222  1  0.99269488  0.14643962  0.13173950  1  -0.050082  0  -0.092146  -0.122722  0  4.006551  0
C  C223  1  0.84603247  0.85344268  0.36831171  1  -0.06439  0  -0.093425  -0.124016  0  4.008284  0
C  C224  1  0.30551130  0.42455786  0.97126571  1  0.473333  0  0.048455  0.100127  0  3.940445  0
C  C225  1  0.88130798  0.57521759  0.52871061  1  0.411948  0  0.048483  0.10022  0  3.940149  0
C  C226  1  0.69449239  0.57544281  0.02873462  1  0.473344  0  0.048443  0.100082  0  3.940671  0
C  C227  1  0.11868694  0.42478307  0.47128861  1  0.41184  0  0.048484  0.10022  0  3.940028  0
C  C228  1  0.30533870  0.52251792  0.97210960  1  -0.092612  0  -0.084751  -0.181509  0  3.918803  0
C  C229  1  0.78298632  0.47731544  0.52783970  1  0.019506  0  -0.084849  -0.182662  0  3.919878  0
C  C230  1  0.69466675  0.47748431  0.02789018  1  -0.092614  0  -0.084793  -0.181588  0  3.918898  0
C  C231  1  0.21701192  0.52268601  0.47215999  1  0.01955  0  -0.084859  -0.182664  0  3.919883  0
C  C232  1  0.25763531  0.53995632  0.92778852  1  -0.012202  0  0.016077  0.101665  0  3.954588  0
C  C233  1  0.71757667  0.45994240  0.57213336  1  -0.076332  0  0.015755  0.102477  0  3.955349  0
C  C234  1  0.74236683  0.46004514  0.07221153  1  -0.012114  0  0.016068  0.101724  0  3.954539  0
C  C235  1  0.28242196  0.54005984  0.42786716  1  -0.076344  0  0.015724  0.10235  0  3.955563  0
C  C236  1  0.20787119  0.45462575  0.88451130  1  -0.029694  0  -0.070023  -0.148239  0  3.881577  0
C  C237  1  0.75311703  0.54527884  0.61541071  1  -0.020253  0  -0.070344  -0.148574  0  3.883351  0
C  C238  1  0.79213290  0.54537571  0.11548912  1  -0.029867  0  -0.070066  -0.148349  0  3.881574  0
C  C239  1  0.24688160  0.45472339  0.38458908  1  -0.020153  0  -0.070294  -0.148476  0  3.883299  0
C  C240  1  0.21398829  0.35930563  0.88653635  1  0.477294  0  0.056458  0.107827  0  3.902689  0
C  C241  1  0.85474073  0.64053251  0.61341547  1  0.47642  0  0.057016  0.108436  0  3.903723  0
C  C242  1  0.78601249  0.64069505  0.11346434  1  0.477278  0  0.056517  0.107908  0  3.902576  0
C  C243  1  0.14525711  0.35946817  0.38658448  1  0.476416  0  0.057041  0.108503  0  3.903668  0
C  C244  1  0.26647773  0.64620338  0.92737538  1  -0.035718  0  0.020891  0.110346  0  3.950272  0
C  C245  1  0.61997362  0.35375963  0.57253591  1  -0.027238  0  0.021437  0.109661  0  3.950753  0
C  C246  1  0.73352870  0.35379885  0.07262477  1  -0.035291  0  0.020923  0.110367  0  3.950159  0
C  C247  1  0.38002637  0.64623948  0.42746385  1  -0.027129  0  0.021475  0.109723  0  3.950844  0
C  C248  1  0.28543121  0.72404391  0.97305482  1  0.034958  0  -0.072087  -0.154634  0  3.88085  0
C  C249  1  0.56124908  0.27587018  0.52686612  1  0.038432  0  -0.071886  -0.154091  0  3.879793  0
C  C250  1  0.71457716  0.27595833  0.02694533  1  0.034576  0  -0.072053  -0.154565  0  3.880878  0
C  C251  1  0.43875345  0.72412815  0.47313428  1  0.038265  0  -0.071863  -0.154082  0  3.879667  0
C  C252  1  0.30075596  0.82434842  0.97123490  1  0.435292  0  0.054398  0.105483  0  3.905187  0
C  C253  1  0.47627471  0.17557163  0.52870136  1  0.447647  0  0.055097  0.106114  0  3.904628  0
C  C254  1  0.69924988  0.17565459  0.02876424  1  0.43563  0  0.054452  0.105559  0  3.905136  0
C  C255  1  0.52372859  0.82442826  0.47129813  1  0.447845  0  0.055039  0.106038  0  3.904587  0
C  C256  1  0.27979403  0.77705469  0.88251325  1  0.464433  0  0.05362  0.098689  0  3.936273  0
C  C257  1  0.50220749  0.22297425  0.61741959  1  0.442558  0  0.054042  0.099825  0  3.933493  0
C  C258  1  0.72020498  0.22294441  0.11748578  1  0.464473  0  0.053639  0.098674  0  3.936293  0
C  C259  1  0.49779231  0.77702642  0.38258000  1  0.442562  0  0.054059  0.099799  0  3.933405  0
C  C260  1  0.26400911  0.67525203  0.88143629  1  0.007806  0  -0.075296  -0.166804  0  3.930092  0
C  C261  1  0.58819516  0.32477557  0.61847955  1  0.010614  0  -0.076871  -0.168622  0  3.930176  0
C  C262  1  0.73599459  0.32474864  0.11856367  1  0.007783  0  -0.075303  -0.166751  0  3.929937  0
C  C263  1  0.41180230  0.67522432  0.38152068  1  0.010526  0  -0.076858  -0.168503  0  3.930216  0
N  N264  1  0.26267953  0.34418682  0.92899358  1  -1.256289  0  -0.330545  -0.242251  0  3.570345  0
N  N265  1  0.91879620  0.65558837  0.57098930  1  -1.249807  0  -0.330515  -0.241866  0  3.57002  0
N  N266  1  0.73732319  0.65581386  0.07100638  1  -1.25627  0  -0.330511  -0.242172  0  3.57038  0
N  N267  1  0.08120262  0.34441230  0.42901028  1  -1.249825  0  -0.330579  -0.242009  0  3.569991  0
N  N268  1  0.29765682  0.85073497  0.92674070  1  -1.261781  0  -0.332023  -0.243337  0  3.59911  0
N  N269  1  0.44665767  0.14922301  0.57320152  1  -1.264962  0  -0.332148  -0.24359  0  3.597918  0
N  N270  1  0.70234492  0.14926569  0.07325815  1  -1.262234  0  -0.332087  -0.243433  0  3.599101  0
N  N271  1  0.55334407  0.85077766  0.42679844  1  -1.264957  0  -0.33207  -0.243437  0  3.597701  0
O  O272  1  0.21126902  0.06835143  0.90484840  1  -1.168116  0  -0.335263  -0.586508  0  2.481046  0
O  O273  1  0.14267551  0.93150675  0.59513923  1  -1.173005  0  -0.335356  -0.587049  0  2.481739  0
O  O274  1  0.78872823  0.93165001  0.09515018  1  -1.168246  0  -0.335307  -0.58651  0  2.480993  0
O  O275  1  0.85732039  0.06849392  0.40486073  1  -1.17308  0  -0.335345  -0.587008  0  2.48184  0
O  O276  1  0.33856133  0.06711766  0.00144257  1  -1.178006  0  -0.318489  -0.544871  0  2.339625  0
O  O277  1  0.27153620  0.93288636  0.49852392  1  -1.1889  0  -0.318407  -0.54525  0  2.340501  0
O  O278  1  0.66143067  0.93287911  0.99855690  1  -1.178071  0  -0.31853  -0.544889  0  2.339567  0
O  O279  1  0.72847569  0.06711510  0.50147613  1  -1.188848  0  -0.318386  -0.545136  0  2.340616  0
O  O280  1  0.35827154  0.23066375  0.99853423  1  -1.173938  0  -0.312595  -0.545249  0  2.356724  0
O  O281  1  0.12788342  0.76933012  0.50144110  1  -1.175942  0  -0.312598  -0.544992  0  2.358831  0
O  O282  1  0.64172806  0.76933458  0.00146617  1  -1.173959  0  -0.312592  -0.545226  0  2.356672  0
O  O283  1  0.87211794  0.23067369  0.49856036  1  -1.175929  0  -0.312644  -0.545072  0  2.358748  0
O  O284  1  0.34261118  0.35717965  0.26419378  1  -1.092803  0  -0.251206  -0.402331  0  2.15209  0
O  O285  1  0.98533097  0.64271456  0.23584215  1  -1.09763  0  -0.251368  -0.402133  0  2.151715  0
O  O286  1  0.65738589  0.64281946  0.73580598  1  -1.092739  0  -0.251221  -0.402359  0  2.151955  0
O  O287  1  0.01466981  0.35729004  0.76416013  1  -1.097742  0  -0.251329  -0.40208  0  2.151606  0
O  O288  1  0.54691701  0.08225397  0.41153108  1  -1.145303  0  -0.330691  -0.563972  0  2.25229  0
O  O289  1  0.46443355  0.91776079  0.08847531  1  -1.145599  0  -0.330476  -0.56371  0  2.252039  0
O  O290  1  0.45308513  0.91774749  0.58846935  1  -1.145327  0  -0.33071  -0.563984  0  2.252294  0
O  O291  1  0.53556351  0.08223832  0.91152483  1  -1.145565  0  -0.330462  -0.563689  0  2.252087  0
O  O292  1  0.58212075  0.97935483  0.34049380  1  -1.180397  0  -0.314017  -0.547728  0  2.182334  0
O  O293  1  0.60238149  0.02075933  0.15949292  1  -1.176638  0  -0.313831  -0.547666  0  2.181171  0
O  O294  1  0.41787007  0.02063960  0.65950612  1  -1.180392  0  -0.313985  -0.547679  0  2.182391  0
O  O295  1  0.39761499  0.97924057  0.84050768  1  -1.176244  0  -0.313862  -0.547683  0  2.181151  0
O  O296  1  0.10845056  0.10016843  0.84073802  1  -1.135009  0  -0.286961  -0.484395  0  2.098245  0
O  O297  1  0.00786311  0.90013563  0.65929497  1  -1.142648  0  -0.287468  -0.484885  0  2.09669  0
O  O298  1  0.89154279  0.89982909  0.15925934  1  -1.134984  0  -0.286963  -0.484308  0  2.098199  0
O  O299  1  0.99213513  0.09986192  0.34070497  1  -1.14264  0  -0.287455  -0.484905  0  2.096562  0
O  O300  1  0.90017519  0.55961935  0.72173893  1  -1.090617  0  -0.253456  -0.405951  0  2.161362  0
O  O301  1  0.34046043  0.44046225  0.77821778  1  -1.08262  0  -0.253305  -0.40548  0  2.161463  0
O  O302  1  0.09981680  0.44038132  0.27826066  1  -1.090608  0  -0.253386  -0.405798  0  2.161384  0
O  O303  1  0.65954911  0.55953841  0.22178033  1  -1.082715  0  -0.253281  -0.405508  0  2.161396  0
O  O304  1  0.56556925  0.32521500  0.92584025  1  -1.192679  0  -0.319547  -0.55884  0  2.239162  0
O  O305  1  0.24014136  0.67516229  0.57428805  1  -1.190962  0  -0.319935  -0.558968  0  2.240569  0
O  O306  1  0.43442644  0.67478722  0.07415879  1  -1.19274  0  -0.319476  -0.558713  0  2.239196  0
O  O307  1  0.75987755  0.32484542  0.42571241  1  -1.190896  0  -0.320003  -0.559021  0  2.240361  0
O  O308  1  0.41851476  0.24564504  0.85547973  1  -1.158337  0  -0.31488  -0.53792  0  2.255803  0
O  O309  1  0.17268602  0.75465229  0.64470488  1  -1.153724  0  -0.314668  -0.537864  0  2.255822  0
O  O310  1  0.58148717  0.75435014  0.14451807  1  -1.158465  0  -0.314923  -0.53798  0  2.255803  0
O  O311  1  0.82731357  0.24534601  0.35529257  1  -1.153718  0  -0.314645  -0.537912  0  2.255719  0
