# generated using pymatgen
data_NiH6C2(NO2)2
_symmetry_space_group_name_H-M   'P 1'
_cell_length_a   6.75297289
_cell_length_b   7.41270290
_cell_length_c   7.57816502
_cell_angle_alpha   71.32479196
_cell_angle_beta   63.50085623
_cell_angle_gamma   62.85931599
_symmetry_Int_Tables_number   1
_chemical_formula_structural   NiH6C2(NO2)2
_chemical_formula_sum   'Ni2 H12 C4 N4 O8'
_cell_volume   298.85149922
_cell_formula_units_Z   2
loop_
 _symmetry_equiv_pos_site_id
 _symmetry_equiv_pos_as_xyz
  1  'x, y, z'
loop_
 _atom_site_type_symbol
 _atom_site_label
 _atom_site_symmetry_multiplicity
 _atom_site_fract_x
 _atom_site_fract_y
 _atom_site_fract_z
 _atom_site_occupancy
 _atom_site_hle17_ddec_charge
 _atom_site_hle17_ddec_spin_density
 _atom_site_hle17_ddec_sum_bond_order
 _atom_site_hle17_magmom
 _atom_site_hse06_10hf_ddec_charge
 _atom_site_hse06_10hf_ddec_spin_density
 _atom_site_hse06_10hf_ddec_sum_bond_order
 _atom_site_hse06_10hf_magmom
 _atom_site_hse06_ddec_charge
 _atom_site_hse06_ddec_spin_density
 _atom_site_hse06_ddec_sum_bond_order
 _atom_site_hse06_magmom
 _atom_site_pbe_cm5_charge
 _atom_site_pbe_ddec_charge
 _atom_site_pbe_ddec_spin_density
 _atom_site_pbe_ddec_sum_bond_order
 _atom_site_pbe_magmom
Ni  Ni0  1  0.75484208  0.24993593  0.74997586  1  0.869817  1.771203  1.986106  1.496  0.880118  1.827298  2.384707  1.623  0.969029  1.893636  2.311634  1.709  0.609802  0.81134  1.752976  2.440711  1.537
Ni  Ni1  1  0.24514242  0.75005152  0.25003439  1  0.870115  -1.77122  1.98773  -1.496  0.880252  -1.827213  2.386694  -1.623  0.969403  -1.893531  2.313093  -1.709  0.609993  0.811582  -1.752901  2.442716  -1.537
H  H2  1  0.43409798  0.60514634  0.80559614  1  0.335708  -0.000475  0.902998  -0.001  0.325577  0.00031  0.964293  0.0  0.332802  0.000161  0.959864  0.0  0.286509  0.320144  0.000438  0.967724  0.0
H  H3  1  0.84496158  0.89486577  0.69416381  1  0.333937  -0.000481  0.905616  -0.001  0.323883  0.000312  0.966611  0.0  0.33108  0.000164  0.96231  0.0  0.286206  0.318453  0.000441  0.970012  0.0
H  H4  1  0.56584906  0.39492013  0.19426728  1  0.335644  0.000482  0.902897  0.001  0.325561  -0.000309  0.964102  0.0  0.332785  -0.00016  0.959688  0.0  0.28646  0.32014  -0.000437  0.967526  0.0
H  H5  1  0.15489090  0.10507309  0.30593417  1  0.333664  0.00048  0.905638  0.001  0.3238  -0.000312  0.966398  0.0  0.330971  -0.000163  0.962149  0.0  0.286068  0.318392  -0.000441  0.969773  0.0
H  H6  1  0.30690220  0.44382320  0.94945923  1  0.341894  -0.000239  0.893668  -0.001  0.334582  0.000393  0.950192  0.0  0.342682  0.000234  0.943826  0.0  0.288037  0.328472  0.000517  0.95515  0.0
H  H7  1  0.70010764  0.05652796  0.55056887  1  0.340842  -0.000251  0.894622  -0.001  0.332858  0.000394  0.952206  0.0  0.34098  0.000235  0.945829  0.0  0.287302  0.326735  0.000518  0.957144  0.0
H  H8  1  0.69302868  0.55633397  0.05044989  1  0.341517  0.000242  0.893611  0.001  0.334237  -0.000394  0.950157  0.0  0.342322  -0.000235  0.943816  0.0  0.287833  0.328139  -0.000519  0.955109  0.0
H  H9  1  0.29983748  0.94335110  0.44953471  1  0.340688  0.000248  0.894584  0.001  0.33276  -0.000395  0.952092  0.0  0.340886  -0.000235  0.945721  0.0  0.287198  0.326644  -0.000519  0.957034  0.0
H  H10  1  0.33390162  0.50674021  0.71209469  1  0.337779  -0.00035  0.915203  -0.001  0.329361  0.000241  0.972947  0.0  0.337262  0.000114  0.96753  -0.001  0.28267  0.323466  0.00034  0.977035  0.0
H  H11  1  0.55266141  0.99354333  0.78793361  1  0.338163  -0.000363  0.917356  -0.001  0.330112  0.000232  0.974568  0.0  0.337996  0.000107  0.969187  -0.001  0.282989  0.324216  0.00033  0.978652  0.0
H  H12  1  0.66617551  0.49322218  0.28781384  1  0.33743  0.000346  0.914979  0.001  0.329083  -0.000245  0.972702  0.0  0.336985  -0.000116  0.967293  0.001  0.282523  0.323196  -0.000344  0.976775  0.0
H  H13  1  0.44728305  0.00649052  0.21215578  1  0.338118  0.000355  0.916586  0.001  0.329915  -0.000237  0.974086  0.0  0.33784  -0.000109  0.968653  0.001  0.282834  0.324002  -0.000335  0.978189  0.0
C  C14  1  0.99925644  0.52827010  0.59015979  1  0.528108  0.000314  3.905241  0.0  0.488861  8.3e-05  4.206223  0.0  0.521137  -7.6e-05  4.200084  0.0  0.208766  0.465313  0.000362  4.21035  0.0
C  C15  1  0.11791777  0.97173025  0.90984983  1  0.52583  0.000333  3.907971  0.0  0.4865  8.2e-05  4.209095  0.0  0.518804  -7.3e-05  4.202897  0.0  0.207463  0.462916  0.000364  4.213304  0.0
C  C16  1  0.00081531  0.47166664  0.40983450  1  0.52799  -0.000303  3.905327  0.0  0.488721  -8.1e-05  4.206332  0.0  0.520996  7.6e-05  4.200195  0.0  0.20872  0.465173  -0.000356  4.210459  0.0
C  C17  1  0.88211418  0.02833537  0.09015853  1  0.526181  -0.000318  3.908156  0.0  0.48693  -7.9e-05  4.209173  0.0  0.519237  7.4e-05  4.202964  0.0  0.207651  0.463348  -0.000359  4.213391  0.0
N  N18  1  0.42050712  0.47207897  0.80768972  1  -0.846805  0.065496  2.919681  0.095  -0.855316  0.040989  3.152936  0.058  -0.888367  0.032407  3.13667  0.047  -0.781141  -0.831006  0.047051  3.165137  0.065
N  N19  1  0.70032133  0.02808780  0.69225498  1  -0.844107  0.0655  2.924223  0.095  -0.852337  0.040971  3.157732  0.058  -0.885416  0.032394  3.141614  0.047  -0.780189  -0.828018  0.04702  3.169867  0.065
N  N20  1  0.57942401  0.52800937  0.19225425  1  -0.846214  -0.065491  2.919285  -0.095  -0.854805  -0.040995  3.152553  -0.058  -0.887897  -0.032416  3.136267  -0.047  -0.780892  -0.830519  -0.047062  3.164734  -0.065
N  N21  1  0.29961953  0.97181859  0.30779348  1  -0.843731  -0.065479  2.923691  -0.095  -0.852009  -0.040987  3.157084  -0.058  -0.885163  -0.032412  3.140908  -0.047  -0.779802  -0.827682  -0.047042  3.169208  -0.065
O  O22  1  0.88062854  0.46368732  0.76267891  1  -0.557333  0.031635  2.077903  0.05  -0.526592  0.024548  2.324873  0.039  -0.558915  0.02037  2.315924  0.033  -0.293432  -0.502016  0.027893  2.330821  0.043
O  O23  1  0.10745349  0.03617025  0.73733276  1  -0.556695  0.031616  2.078349  0.05  -0.525766  0.024545  2.325088  0.039  -0.558095  0.020369  2.31616  0.033  -0.292818  -0.501179  0.027894  2.331028  0.043
O  O24  1  0.11945688  0.53631384  0.23732081  1  -0.557377  -0.031616  2.077881  -0.05  -0.526657  -0.024554  2.324945  -0.039  -0.559025  -0.020383  2.315963  -0.033  -0.29338  -0.502082  -0.027892  2.330899  -0.043
O  O25  1  0.89266848  0.96381410  0.26268132  1  -0.556921  -0.031627  2.077892  -0.05  -0.526035  -0.024564  2.324702  -0.039  -0.558415  -0.020391  2.315736  -0.033  -0.292985  -0.501442  -0.027907  2.330642  -0.043
O  O26  1  0.11839613  0.63777573  0.55155476  1  -0.574374  -0.039791  2.121279  -0.064  -0.536663  -0.028144  2.370555  -0.046  -0.57124  -0.022826  2.360897  -0.038  -0.296336  -0.510205  -0.032494  2.37694  -0.052
O  O27  1  0.30807590  0.86228880  0.94852884  1  -0.572778  -0.039854  2.121099  -0.064  -0.535126  -0.028161  2.370635  -0.046  -0.569752  -0.022838  2.360972  -0.038  -0.295887  -0.508646  -0.032526  2.377029  -0.052
O  O28  1  0.88172096  0.36216826  0.44835719  1  -0.574164  0.039776  2.121411  0.064  -0.536476  0.028131  2.370655  0.046  -0.570996  0.02281  2.361021  0.038  -0.296256  -0.510021  0.032484  2.377037  0.052
O  O29  1  0.69193122  0.13777272  0.05157928  1  -0.572926  0.039831  2.121962  0.064  -0.53533  0.02814  2.371467  0.046  -0.569911  0.022816  2.361842  0.038  -0.295905  -0.508857  0.032505  2.377859  0.052
