# generated using pymatgen
data_CoH14C14(NO4)2
_symmetry_space_group_name_H-M   'P 1'
_cell_length_a   5.11792852
_cell_length_b   7.34422242
_cell_length_c   9.51122136
_cell_angle_alpha   86.31642010
_cell_angle_beta   82.63503988
_cell_angle_gamma   77.92723024
_symmetry_Int_Tables_number   1
_chemical_formula_structural   CoH14C14(NO4)2
_chemical_formula_sum   'Co1 H14 C14 N2 O8'
_cell_volume   346.45068272
_cell_formula_units_Z   1
loop_
 _symmetry_equiv_pos_site_id
 _symmetry_equiv_pos_as_xyz
  1  'x, y, z'
loop_
 _atom_site_type_symbol
 _atom_site_label
 _atom_site_symmetry_multiplicity
 _atom_site_fract_x
 _atom_site_fract_y
 _atom_site_fract_z
 _atom_site_occupancy
 _atom_site_pbe_bader_spin_density
 _atom_site_pbe_cm5_charge
 _atom_site_pbe_ddec_charge
 _atom_site_pbe_ddec_spin_density
 _atom_site_pbe_ddec_sum_bond_order
 _atom_site_pbe_magmom
Co  Co0  1  0.50000378  0.00000095  0.49999967  1  0  0.630913  0.924075  0  2.830233  0
H  H1  1  0.85749824  0.82750140  0.34845750  1  0  0.292128  0.370219  0  0.98279  0
H  H2  1  0.14250157  0.17250907  0.65154296  1  0  0.292125  0.370281  0  0.982679  0
H  H3  1  0.99615551  0.82819162  0.49568441  1  0  0.299628  0.381799  0  0.958617  0
H  H4  1  0.00385321  0.17180363  0.50430879  1  0  0.299616  0.381788  0  0.958638  0
H  H5  1  0.78654922  0.00365877  0.92710165  1  0  0.109975  0.128669  0  1.022933  0
H  H6  1  0.21344121  0.99633191  0.07290666  1  0  0.109979  0.128665  0  1.022872  0
H  H7  1  0.29286100  0.46516440  0.42372044  1  0  0.130638  0.12837  0  0.998916  0
H  H8  1  0.70713458  0.53483480  0.57628082  1  0  0.130601  0.12837  0  0.998932  0
H  H9  1  0.17045661  0.61364148  0.19188624  1  0  0.110938  0.128217  0  1.028554  0
H  H10  1  0.82952766  0.38633798  0.80811038  1  0  0.110923  0.128256  0  1.028411  0
H  H11  1  0.94344055  0.30956755  0.99894718  1  0  0.108082  0.120564  0  1.041788  0
H  H12  1  0.05656561  0.69042347  0.00104428  1  0  0.108058  0.120551  0  1.041922  0
H  H13  1  0.02993107  0.17905611  0.24070801  1  0  0.126089  0.115735  0  1.049975  0
H  H14  1  0.97007175  0.82093901  0.75929085  1  0  0.126073  0.11568  0  1.04991  0
C  C15  1  0.43895450  0.05680801  0.80430139  1  0  0.21444  0.60184  0  4.162136  0
C  C16  1  0.56104501  0.94319127  0.19569540  1  0  0.214421  0.601813  0  4.162535  0
C  C17  1  0.56930690  0.01439097  0.93686372  1  0  -0.083016  -0.182827  0  3.894939  0
C  C18  1  0.43068190  0.98561093  0.06313683  1  0  -0.082958  -0.182618  0  3.894919  0
C  C19  1  0.42315418  0.43872060  0.32491397  1  0  0.038473  -0.01999  0  3.867685  0
C  C20  1  0.57688085  0.56127210  0.67510280  1  0  0.038454  -0.020163  0  3.868106  0
C  C21  1  0.36105863  0.51556807  0.19507568  1  0  -0.084328  -0.155035  0  3.959675  0
C  C22  1  0.63891961  0.48444205  0.80492941  1  0  -0.084422  -0.155142  0  3.96095  0
C  C23  1  0.53688165  0.46687009  0.06914761  1  0  -0.008348  0.068467  0  3.999423  0
C  C24  1  0.46313099  0.53312523  0.93084427  1  0  -0.008221  0.06878  0  3.999429  0
C  C25  1  0.78916196  0.34914028  0.08795760  1  0  -0.084779  -0.157731  0  3.97069  0
C  C26  1  0.21081383  0.65087113  0.91205811  1  0  -0.084689  -0.157563  0  3.970271  0
C  C27  1  0.84471263  0.27431452  0.21927165  1  0  0.028452  -0.046124  0  3.900853  0
C  C28  1  0.15530389  0.72568077  0.78073364  1  0  0.028386  -0.046189  0  3.901081  0
N  N29  1  0.65829693  0.31265697  0.33541533  1  0  -0.134575  0.291637  0  3.876383  0
N  N30  1  0.34170332  0.68735207  0.66459042  1  0  -0.134607  0.291581  0  3.876015  0
O  O31  1  0.82767182  0.81578071  0.45669770  1  0  -0.560626  -0.728404  0  2.284122  0
O  O32  1  0.17234837  0.18422171  0.54329440  1  0  -0.560568  -0.72842  0  2.284017  0
O  O33  1  0.59513157  0.99974512  0.69058860  1  0  -0.298164  -0.507598  0  2.357863  0
O  O34  1  0.40487292  0.00025704  0.30940878  1  0  -0.298148  -0.5076  0  2.35784  0
O  O35  1  0.19413214  0.13768831  0.80893291  1  0  -0.303146  -0.534984  0  2.21082  0
O  O36  1  0.80585818  0.86231503  0.19106537  1  0  -0.303119  -0.534964  0  2.211069  0
O  O37  1  0.69607828  0.21477688  0.45755208  1  0  -0.217368  -0.46503  0  2.22005  0
O  O38  1  0.30391720  0.78523501  0.54243494  1  0  -0.217312  -0.464975  0  2.219637  0
