# generated using pymatgen
data_Zn3H40C60(NO3)4
_symmetry_space_group_name_H-M   'P 1'
_cell_length_a   10.56992139
_cell_length_b   12.44489980
_cell_length_c   25.45994383
_cell_angle_alpha   93.74644799
_cell_angle_beta   89.99996657
_cell_angle_gamma   90.00003527
_symmetry_Int_Tables_number   1
_chemical_formula_structural   Zn3H40C60(NO3)4
_chemical_formula_sum   'Zn6 H80 C120 N8 O24'
_cell_volume   3341.88508360
_cell_formula_units_Z   2
loop_
 _symmetry_equiv_pos_site_id
 _symmetry_equiv_pos_as_xyz
  1  'x, y, z'
loop_
 _atom_site_type_symbol
 _atom_site_label
 _atom_site_symmetry_multiplicity
 _atom_site_fract_x
 _atom_site_fract_y
 _atom_site_fract_z
 _atom_site_occupancy
 _atom_site_pbe_bader_charge
 _atom_site_pbe_bader_spin_density
 _atom_site_pbe_cm5_charge
 _atom_site_pbe_ddec_charge
 _atom_site_pbe_ddec_spin_density
 _atom_site_pbe_ddec_sum_bond_order
 _atom_site_pbe_magmom
Zn  Zn0  1  0.49999879  0.50000186  0.50000017  1  1.411074  0  0.681678  1.02336  0  2.258225  0
Zn  Zn1  1  0.50000277  0.00000094  0.99999997  1  1.41111  0  0.681688  1.023364  0  2.258168  0
Zn  Zn2  1  0.76768856  0.57981147  0.56023281  1  1.301194  0  0.685847  0.809124  0  2.380532  0
Zn  Zn3  1  0.76768840  0.92019166  0.93976606  1  1.30129  0  0.685824  0.809051  0  2.38066  0
Zn  Zn4  1  0.23230713  0.42018896  0.43976548  1  1.301255  0  0.68581  0.809092  0  2.380476  0
Zn  Zn5  1  0.23231108  0.07981125  0.06023387  1  1.301262  0  0.685858  0.809131  0  2.380509  0
H  H6  1  0.62467279  0.98932004  0.16428907  1  0.078766  0  0.098939  0.109654  0  1.031173  0
H  H7  1  0.62467818  0.51068746  0.33571576  1  0.07867  0  0.098964  0.109672  0  1.031178  0
H  H8  1  0.37533330  0.01068853  0.83571177  1  0.078892  0  0.098915  0.109609  0  1.031141  0
H  H9  1  0.37533454  0.48930754  0.66428791  1  0.078922  0  0.098912  0.109615  0  1.031188  0
H  H10  1  0.35730274  0.96234450  0.20939655  1  0.107129  0  0.104331  0.107122  0  0.992767  0
H  H11  1  0.35731010  0.53765629  0.29060466  1  0.10701  0  0.10433  0.107092  0  0.992726  0
H  H12  1  0.64270241  0.03765592  0.79060135  1  0.107058  0  0.104351  0.107162  0  0.992721  0
H  H13  1  0.64270262  0.46234599  0.70939997  1  0.106798  0  0.104357  0.107172  0  0.9927  0
H  H14  1  0.34165920  0.86497709  0.28664248  1  0.042326  0  0.100155  0.09536  0  1.00383  0
H  H15  1  0.34166201  0.63502616  0.21336036  1  0.042374  0  0.100178  0.095374  0  1.003793  0
H  H16  1  0.65834406  0.13502895  0.71335516  1  0.042255  0  0.100145  0.095369  0  1.003755  0
H  H17  1  0.65834692  0.36496976  0.78664648  1  0.042217  0  0.10013  0.095339  0  1.003743  0
H  H18  1  0.43500418  0.77825620  0.36236229  1  0.079506  0  0.105912  0.110665  0  0.993259  0
H  H19  1  0.43500243  0.72174225  0.13763963  1  0.079539  0  0.105901  0.110657  0  0.993238  0
H  H20  1  0.56499908  0.22174344  0.63763599  1  0.07943  0  0.10591  0.110669  0  0.993266  0
H  H21  1  0.56499515  0.27825201  0.86236559  1  0.079362  0  0.105955  0.11071  0  0.993258  0
H  H22  1  0.80675157  0.86965512  0.31165135  1  0.059441  0  0.099468  0.096321  0  1.008039  0
H  H23  1  0.80675253  0.63034172  0.18834534  1  0.059415  0  0.099471  0.096318  0  1.007966  0
H  H24  1  0.19325358  0.13033637  0.68834438  1  0.059502  0  0.099511  0.09637  0  1.00792  0
H  H25  1  0.19325357  0.36966285  0.81165580  1  0.059491  0  0.099496  0.096334  0  1.007988  0
H  H26  1  0.71336402  0.95678555  0.23649727  1  0.058155  0  0.103177  0.104229  0  0.999715  0
H  H27  1  0.71336953  0.54321375  0.26350186  1  0.058079  0  0.103148  0.104204  0  0.999735  0
H  H28  1  0.28664113  0.04320997  0.76349856  1  0.058023  0  0.103139  0.104241  0  0.999796  0
H  H29  1  0.28664602  0.45679496  0.73650252  1  0.058104  0  0.103132  0.104139  0  0.999895  0
H  H30  1  0.53510513  0.69364655  0.42471113  1  0.088292  0  0.103071  0.131826  0  1.03266  0
H  H31  1  0.53510543  0.80635509  0.07528888  1  0.088309  0  0.103072  0.131855  0  1.032601  0
H  H32  1  0.46489245  0.30635787  0.57528608  1  0.088309  0  0.103031  0.131769  0  1.032774  0
H  H33  1  0.46489404  0.19364467  0.92471294  1  0.088256  0  0.103063  0.131807  0  1.032719  0
H  H34  1  0.79434553  0.76907271  0.38511108  1  0.078403  0  0.101663  0.097765  0  1.011273  0
H  H35  1  0.79434382  0.73092417  0.11488680  1  0.078354  0  0.101674  0.097801  0  1.011244  0
H  H36  1  0.20565773  0.23092443  0.61488518  1  0.078442  0  0.101677  0.097808  0  1.011297  0
H  H37  1  0.20565754  0.26907154  0.88511414  1  0.07843  0  0.101688  0.097781  0  1.011291  0
H  H38  1  0.69607866  0.18343074  0.50762445  1  0.029785  0  0.09512  0.10989  0  1.016426  0
H  H39  1  0.69608686  0.31657283  0.99237729  1  0.029859  0  0.095116  0.109858  0  1.016389  0
H  H40  1  0.30391419  0.81657144  0.49237742  1  0.029798  0  0.095129  0.109886  0  1.016373  0
H  H41  1  0.30391356  0.68343169  0.00762268  1  0.029834  0  0.095131  0.109902  0  1.016415  0
H  H42  1  0.96433422  0.27442211  0.52899268  1  0.141376  0  0.107382  0.124235  0  1.024436  0
H  H43  1  0.96433860  0.22557828  0.97100657  1  0.141352  0  0.107369  0.124265  0  1.024381  0
H  H44  1  0.03565863  0.72558078  0.47100685  1  0.141378  0  0.10737  0.124281  0  1.024388  0
H  H45  1  0.03566087  0.77442154  0.02899682  1  0.141333  0  0.107376  0.124248  0  1.024401  0
H  H46  1  0.13250869  0.15582409  0.53144637  1  0.121314  0  0.097907  0.107034  0  1.059043  0
H  H47  1  0.13251600  0.34417999  0.96855551  1  0.121279  0  0.097879  0.106994  0  1.05901  0
H  H48  1  0.86748605  0.84417800  0.46855315  1  0.121422  0  0.097877  0.106984  0  1.059055  0
H  H49  1  0.86748631  0.65582218  0.03144597  1  0.121316  0  0.097892  0.107018  0  1.059082  0
H  H50  1  0.77007444  0.02487943  0.48363578  1  0.067201  0  0.096718  0.094515  0  1.010034  0
H  H51  1  0.77007589  0.47512181  0.01636190  1  0.067239  0  0.096733  0.094537  0  1.009997  0
H  H52  1  0.22992030  0.97512346  0.51636376  1  0.067329  0  0.096734  0.094566  0  1.009943  0
H  H53  1  0.22992453  0.52488193  0.98363883  1  0.067234  0  0.096707  0.094531  0  1.009966  0
H  H54  1  0.55918944  0.77682090  0.56644395  1  0.126123  0  0.124388  0.100443  0  0.974769  0
H  H55  1  0.55918536  0.72318210  0.93355457  1  0.126058  0  0.124386  0.100462  0  0.974833  0
H  H56  1  0.44080436  0.22318043  0.43355672  1  0.126162  0  0.124379  0.10045  0  0.974865  0
H  H57  1  0.44081032  0.27681990  0.06644258  1  0.12617  0  0.124391  0.10042  0  0.974877  0
H  H58  1  0.56175620  0.97463395  0.59742126  1  0.090653  0  0.107831  0.113035  0  1.000296  0
H  H59  1  0.56174920  0.52536831  0.90257881  1  0.090664  0  0.107805  0.113009  0  1.000345  0
H  H60  1  0.43824233  0.02536662  0.40258057  1  0.090693  0  0.107812  0.113005  0  1.000261  0
H  H61  1  0.43824649  0.47463378  0.09742070  1  0.090683  0  0.107828  0.112999  0  1.000288  0
H  H62  1  0.76453315  0.05653448  0.63086439  1  0.062053  0  0.110498  0.107903  0  0.991248  0
H  H63  1  0.76452743  0.44346346  0.86913681  1  0.062044  0  0.110486  0.107939  0  0.991182  0
H  H64  1  0.23546538  0.94346446  0.36913701  1  0.062057  0  0.110509  0.10792  0  0.991171  0
H  H65  1  0.23547015  0.55653388  0.13086495  1  0.061834  0  0.110526  0.107958  0  0.991196  0
H  H66  1  0.28259224  0.72681843  0.62866884  1  0.070873  0  0.113182  0.115081  0  0.973096  0
H  H67  1  0.28258734  0.77317802  0.87133038  1  0.070908  0  0.113194  0.115075  0  0.973072  0
H  H68  1  0.71740156  0.27317799  0.37132975  1  0.070994  0  0.113133  0.115025  0  0.973016  0
H  H69  1  0.71740929  0.22681850  0.12867058  1  0.070809  0  0.113179  0.115065  0  0.973103  0
H  H70  1  0.25390798  0.54003805  0.59068011  1  0.154973  0  0.109747  0.12388  0  1.032498  0
H  H71  1  0.25390694  0.95995763  0.90932068  1  0.155022  0  0.109767  0.123927  0  1.032486  0
H  H72  1  0.74608771  0.45995761  0.40931965  1  0.154955  0  0.10974  0.123912  0  1.032549  0
H  H73  1  0.74609253  0.04004049  0.09068032  1  0.154977  0  0.109741  0.123872  0  1.032536  0
H  H74  1  0.03606908  0.47663058  0.56268638  1  0.179345  0  0.124674  0.108574  0  1.012996  0
H  H75  1  0.03606959  0.02336775  0.93731381  1  0.179386  0  0.124663  0.108591  0  1.012878  0
H  H76  1  0.96392472  0.52336899  0.43731032  1  0.18297  0  0.124675  0.108606  0  1.012873  0
H  H77  1  0.96393082  0.97662961  0.06268834  1  0.179361  0  0.124673  0.108609  0  1.012947  0
H  H78  1  0.99726806  0.03079363  0.65234637  1  0.036546  0  0.104248  0.10397  0  0.999879  0
H  H79  1  0.99725861  0.46921056  0.84764629  1  0.036201  0  0.104291  0.104059  0  0.999899  0
H  H80  1  0.00273236  0.96920364  0.34765343  1  0.036494  0  0.104236  0.10398  0  0.999969  0
H  H81  1  0.00273613  0.53079146  0.15235126  1  0.036202  0  0.104227  0.103977  0  0.999889  0
H  H82  1  0.18415446  0.91081342  0.65248485  1  0.057845  0  0.103666  0.104006  0  1.008123  0
H  H83  1  0.18414475  0.58918993  0.84750670  1  0.057264  0  0.103701  0.104073  0  1.008055  0
H  H84  1  0.81584501  0.08918211  0.34751137  1  0.057551  0  0.103678  0.104058  0  1.008008  0
H  H85  1  0.81584905  0.41081052  0.15249199  1  0.057613  0  0.103672  0.104031  0  1.00807  0
C  C86  1  0.45561069  0.02882994  0.12039922  1  1.565132  0  0.200473  0.621524  0  4.20988  0
C  C87  1  0.45561254  0.47117371  0.37960291  1  1.565122  0  0.200403  0.621561  0  4.209843  0
C  C88  1  0.54439541  0.97117534  0.87959958  1  1.564638  0  0.200574  0.621781  0  4.209846  0
C  C89  1  0.54439639  0.52882453  0.62040123  1  1.564639  0  0.200641  0.621869  0  4.20965  0
C  C90  1  0.52185935  0.99278795  0.16749856  1  -0.062904  0  -0.101585  -0.235054  0  3.92293  0
C  C91  1  0.52186379  0.50721702  0.33250428  1  -0.063011  0  -0.101654  -0.23514  0  3.923108  0
C  C92  1  0.47814864  0.00721652  0.83249983  1  -0.062935  0  -0.10154  -0.234957  0  3.922854  0
C  C93  1  0.47814987  0.49278206  0.66750066  1  -0.062923  0  -0.101533  -0.234976  0  3.92299  0
C  C94  1  0.46079073  0.95972106  0.21004225  1  -0.07135  0  -0.078284  -0.077806  0  3.984834  0
C  C95  1  0.46079905  0.54027983  0.28996012  1  -0.071049  0  -0.078232  -0.077732  0  3.984836  0
C  C96  1  0.53921252  0.04027857  0.78995603  1  -0.071784  0  -0.078324  -0.077908  0  3.985137  0
C  C97  1  0.53921367  0.45972086  0.71004486  1  -0.071559  0  -0.07831  -0.07784  0  3.985187  0
C  C98  1  0.51990749  0.91630373  0.25569455  1  -0.008762  0  -0.009598  0.105293  0  4.033407  0
C  C99  1  0.51991117  0.58369552  0.24430619  1  -0.008729  0  -0.009595  0.105299  0  4.033482  0
C  C100  1  0.48009955  0.08369503  0.74430214  1  -0.008362  0  -0.009454  0.105423  0  4.033518  0
C  C101  1  0.48009965  0.41630356  0.75569875  1  -0.00842  0  -0.009552  0.105199  0  4.033563  0
C  C102  1  0.44393810  0.86669170  0.29270194  1  -0.052284  0  -0.086635  -0.130422  0  3.995369  0
C  C103  1  0.44394187  0.63330755  0.20729961  1  -0.052557  0  -0.086649  -0.130399  0  3.995193  0
C  C104  1  0.55606610  0.13330871  0.70729557  1  -0.052563  0  -0.086637  -0.130405  0  3.995021  0
C  C105  1  0.55606801  0.36668831  0.79270526  1  -0.052759  0  -0.086588  -0.130292  0  3.99487  0
C  C106  1  0.49633863  0.81795119  0.33511762  1  0.010533  0  -0.086028  -0.120177  0  3.963461  0
C  C107  1  0.49633777  0.68204483  0.16488305  1  0.010479  0  -0.085991  -0.120184  0  3.963283  0
C  C108  1  0.50366368  0.18204757  0.66487907  1  0.010984  0  -0.08603  -0.120133  0  3.963233  0
C  C109  1  0.50366171  0.31795021  0.83512140  1  -0.058978  0  -0.086082  -0.120265  0  3.963285  0
C  C110  1  0.62852977  0.81696218  0.34243769  1  -0.025983  0  -0.011938  0.101177  0  4.04475  0
C  C111  1  0.62852986  0.68303382  0.15756060  1  -0.025884  0  -0.011959  0.101132  0  4.044786  0
C  C112  1  0.37147348  0.18303334  0.65755814  1  -0.02568  0  -0.011966  0.101044  0  4.044854  0
C  C113  1  0.37147245  0.31696354  0.84244155  1  0.044017  0  -0.011984  0.101075  0  4.044806  0
C  C114  1  0.70423993  0.86934725  0.30623605  1  -0.094805  0  -0.08945  -0.131976  0  3.995897  0
C  C115  1  0.70424088  0.63064879  0.19376222  1  -0.094706  0  -0.089448  -0.13188  0  3.995885  0
C  C116  1  0.29576427  0.13064663  0.69375896  1  -0.09469  0  -0.089534  -0.131863  0  3.995648  0
C  C117  1  0.29576237  0.36935182  0.80624079  1  -0.094823  0  -0.089479  -0.131835  0  3.995568  0
C  C118  1  0.65177791  0.91792309  0.26391399  1  -0.050251  0  -0.086798  -0.119448  0  3.970982  0
C  C119  1  0.65178349  0.58207537  0.23608514  1  -0.050207  0  -0.086762  -0.119453  0  3.971163  0
C  C120  1  0.34822819  0.08207166  0.73608300  1  -0.050146  0  -0.086817  -0.119666  0  3.971046  0
C  C121  1  0.34823017  0.41792765  0.76391754  1  -0.050183  0  -0.086793  -0.119458  0  3.971145  0
C  C122  1  0.71633444  0.65734768  0.46155585  1  1.494235  0  0.201068  0.611209  0  4.191146  0
C  C123  1  0.71633577  0.84265161  0.03844288  1  1.494373  0  0.20099  0.611062  0  4.191278  0
C  C124  1  0.28366219  0.34265436  0.53844209  1  1.494339  0  0.200905  0.610918  0  4.191555  0
C  C125  1  0.28366465  0.15734327  0.96155725  1  1.494161  0  0.200948  0.610984  0  4.19173  0
C  C126  1  0.63692898  0.70535021  0.42125781  1  -0.13718  0  -0.101246  -0.238275  0  3.904404  0
C  C127  1  0.63693021  0.79464906  0.07874173  1  -0.137115  0  -0.101251  -0.238273  0  3.904384  0
C  C128  1  0.36306954  0.29465179  0.57873935  1  -0.137203  0  -0.101191  -0.23808  0  3.90442  0
C  C129  1  0.36307399  0.20534588  0.92126037  1  -0.137206  0  -0.101216  -0.238219  0  3.904286  0
C  C130  1  0.69098430  0.76306033  0.38417943  1  0.042523  0  -0.080727  -0.082594  0  3.997678  0
C  C131  1  0.69098165  0.73693732  0.11581888  1  0.04252  0  -0.080737  -0.082653  0  3.997765  0
C  C132  1  0.30901801  0.23693683  0.61581722  1  0.042153  0  -0.080716  -0.082701  0  3.997798  0
C  C133  1  0.30901593  0.26305996  0.88418091  1  0.042497  0  -0.080684  -0.082512  0  3.997605  0
C  C134  1  0.73172892  0.35481557  0.52461462  1  1.534205  0  0.201303  0.626646  0  4.205061  0
C  C135  1  0.73173041  0.14518879  0.97538634  1  1.534276  0  0.201297  0.62656  0  4.205167  0
C  C136  1  0.26826582  0.64518649  0.47538411  1  1.534314  0  0.201237  0.626537  0  4.204961  0
C  C137  1  0.26826717  0.85481586  0.02461716  1  1.534318  0  0.20128  0.626626  0  4.204865  0
C  C138  1  0.77208491  0.24093975  0.51695919  1  0.042152  0  -0.112761  -0.258103  0  3.953028  0
C  C139  1  0.77209309  0.25906303  0.98304212  1  0.04216  0  -0.112704  -0.25788  0  3.952944  0
C  C140  1  0.22790604  0.75906317  0.48304112  1  0.042254  0  -0.112733  -0.257967  0  3.952979  0
C  C141  1  0.22790922  0.74093998  0.01696056  1  0.04225  0  -0.112726  -0.258071  0  3.952944  0
C  C142  1  0.89459764  0.21136260  0.51933642  1  -0.129621  0  -0.080994  -0.079901  0  3.975979  0
C  C143  1  0.89460300  0.28864022  0.98066408  1  -0.130153  0  -0.081034  -0.080101  0  3.976036  0
C  C144  1  0.10539710  0.78864034  0.48066429  1  -0.130196  0  -0.08105  -0.080119  0  3.976133  0
C  C145  1  0.10539647  0.71136275  0.01933742  1  -0.129948  0  -0.081032  -0.079977  0  3.975915  0
C  C146  1  0.94488181  0.10325964  0.50934381  1  0.018443  0  -0.01462  0.100097  0  4.029343  0
C  C147  1  0.94488628  0.39674396  0.99065551  1  0.018826  0  -0.014609  0.100192  0  4.029349  0
C  C148  1  0.05511294  0.89674406  0.49065574  1  0.018819  0  -0.014596  0.100229  0  4.02938  0
C  C149  1  0.05511414  0.60325975  0.00934443  1  0.018612  0  -0.014584  0.100206  0  4.029287  0
C  C150  1  0.07526132  0.08654222  0.51788610  1  -0.114339  0  -0.09272  -0.133571  0  3.965657  0
C  C151  1  0.07526582  0.41346259  0.98211463  1  -0.114163  0  -0.092717  -0.133579  0  3.965721  0
C  C152  1  0.92473436  0.91346227  0.48211308  1  -0.1143  0  -0.092679  -0.13352  0  3.96584  0
C  C153  1  0.92473460  0.58654113  0.01788531  1  -0.114224  0  -0.09271  -0.133612  0  3.965821  0
C  C154  1  0.87083488  0.01443111  0.49106767  1  -0.082658  0  -0.093569  -0.126714  0  3.995916  0
C  C155  1  0.87083729  0.48557099  0.00893000  1  -0.082689  0  -0.093579  -0.126698  0  3.995817  0
C  C156  1  0.12915892  0.98557257  0.50893148  1  -0.082663  0  -0.093602  -0.126775  0  3.995776  0
C  C157  1  0.12916218  0.51443271  0.99106955  1  -0.082671  0  -0.093586  -0.126751  0  3.995786  0
C  C158  1  0.64492518  0.81614689  0.58217001  1  0.508718  0  0.063595  0.115234  0  3.918277  0
C  C159  1  0.64492015  0.68385614  0.91782811  1  0.508754  0  0.063581  0.115147  0  3.918459  0
C  C160  1  0.35507146  0.18385524  0.41783069  1  0.508626  0  0.063529  0.114987  0  3.918384  0
C  C161  1  0.35507837  0.31614428  0.08216980  1  0.509  0  0.063582  0.115194  0  3.918212  0
C  C162  1  0.64732730  0.92613876  0.59921331  1  0.028484  0  -0.083355  -0.13426  0  3.993337  0
C  C163  1  0.64732128  0.57386188  0.90078514  1  0.028363  0  -0.083307  -0.134188  0  3.993407  0
C  C164  1  0.35266933  0.07385939  0.40078847  1  0.028124  0  -0.083263  -0.134072  0  3.993217  0
C  C165  1  0.35267252  0.42613859  0.09921394  1  0.028094  0  -0.083292  -0.134097  0  3.99328  0
C  C166  1  0.75937165  0.97118860  0.61819899  1  -0.081529  0  -0.061212  -0.073427  0  3.941192  0
C  C167  1  0.75936563  0.52881132  0.88180020  1  -0.081626  0  -0.061197  -0.073471  0  3.941182  0
C  C168  1  0.24062782  0.02881118  0.38180322  1  -0.081521  0  -0.061261  -0.073511  0  3.9411  0
C  C169  1  0.24063384  0.47118514  0.11819958  1  -0.081372  0  -0.061252  -0.073549  0  3.941412  0
C  C170  1  0.86890698  0.90668204  0.62045235  1  0.047962  0  0.001152  0.049334  0  4.01091  0
C  C171  1  0.86889911  0.59331784  0.87954407  1  0.048053  0  0.001  0.049163  0  4.010896  0
C  C172  1  0.13108966  0.09331604  0.37954746  1  0.047947  0  0.001142  0.049384  0  4.01083  0
C  C173  1  0.13109563  0.40668102  0.12045498  1  0.048063  0  0.001035  0.049209  0  4.011059  0
C  C174  1  0.85701850  0.79680181  0.60229833  1  0.523212  0  0.124686  0.13081  0  3.962969  0
C  C175  1  0.85701163  0.70319968  0.89769853  1  0.523238  0  0.124821  0.130964  0  3.962854  0
C  C176  1  0.14298003  0.20319864  0.39770036  1  0.524418  0  0.124761  0.130867  0  3.962986  0
C  C177  1  0.14298595  0.29679837  0.10230050  1  0.523236  0  0.124779  0.130852  0  3.963097  0
C  C178  1  0.96601550  0.72715511  0.60184687  1  0.497789  0  0.122852  0.129783  0  3.956103  0
C  C179  1  0.96601057  0.77284402  0.89814990  1  0.498197  0  0.122905  0.129809  0  3.956112  0
C  C180  1  0.03397924  0.27284285  0.39814980  1  0.497563  0  0.122848  0.129763  0  3.955888  0
C  C181  1  0.03398512  0.22715483  0.10184914  1  0.49796  0  0.122889  0.12984  0  3.956066  0
C  C182  1  0.08416032  0.76896177  0.61987267  1  0.066025  0  -0.001425  0.041492  0  4.019958  0
C  C183  1  0.08415444  0.73104012  0.88012436  1  0.065487  0  -0.00149  0.041379  0  4.019949  0
C  C184  1  0.91583537  0.23103703  0.38012480  1  0.065819  0  -0.001421  0.04144  0  4.019963  0
C  C185  1  0.91584125  0.26895955  0.11987509  1  0.06562  0  -0.00144  0.041433  0  4.019992  0
C  C186  1  0.18893591  0.69815717  0.61628986  1  -0.087785  0  -0.059266  -0.071254  0  3.918215  0
C  C187  1  0.18893196  0.80184001  0.88370861  1  -0.087777  0  -0.059209  -0.071188  0  3.917982  0
C  C188  1  0.81105883  0.30183923  0.38370795  1  -0.087988  0  -0.059081  -0.070989  0  3.91803  0
C  C189  1  0.81106467  0.19815810  0.11629199  1  -0.087631  0  -0.059208  -0.071167  0  3.918075  0
C  C190  1  0.17274845  0.59357610  0.59575825  1  -0.050437  0  -0.07745  -0.114232  0  3.940546  0
C  C191  1  0.17274643  0.90642275  0.90424223  1  -0.050497  0  -0.07749  -0.114272  0  3.940554  0
C  C192  1  0.82724535  0.40642114  0.40424076  1  -0.050542  0  -0.077497  -0.114417  0  3.940944  0
C  C193  1  0.82725209  0.09357457  0.09575874  1  -0.050529  0  -0.077457  -0.114256  0  3.940475  0
C  C194  1  0.05162645  0.55847007  0.57937819  1  0.559703  0  0.073119  0.13409  0  3.862114  0
C  C195  1  0.05162538  0.94152626  0.92062108  1  0.559713  0  0.073098  0.134037  0  3.862207  0
C  C196  1  0.94836735  0.44152712  0.42061924  1  0.556182  0  0.073074  0.134139  0  3.862268  0
C  C197  1  0.94837315  0.05847106  0.07937990  1  0.55968  0  0.073027  0.13397  0  3.862252  0
C  C198  1  0.98925130  0.94598347  0.63894263  1  -0.06203  0  -0.084464  -0.122142  0  4.001534  0
C  C199  1  0.98924438  0.55401883  0.86105224  1  -0.061276  0  -0.084422  -0.122207  0  4.001601  0
C  C200  1  0.01074723  0.05401458  0.36105639  1  -0.062062  0  -0.084464  -0.122222  0  4.001732  0
C  C201  1  0.01075131  0.44598083  0.13894682  1  -0.061233  0  -0.084401  -0.122094  0  4.001548  0
C  C202  1  0.09247923  0.87969491  0.63885644  1  -0.060385  0  -0.0827  -0.117447  0  3.990654  0
C  C203  1  0.09247330  0.62030690  0.86113824  1  -0.060025  0  -0.082778  -0.117438  0  3.990552  0
C  C204  1  0.90751740  0.12030229  0.36114139  1  -0.05998  0  -0.082686  -0.117449  0  3.990543  0
C  C205  1  0.90752239  0.37969274  0.13886043  1  -0.060459  0  -0.082739  -0.117475  0  3.990603  0
N  N206  1  0.74688712  0.75398221  0.58386347  1  -1.212962  0  -0.306347  -0.250305  0  3.499275  0
N  N207  1  0.74688120  0.74602085  0.91613384  1  -1.213019  0  -0.306391  -0.250278  0  3.499298  0
N  N208  1  0.25310667  0.24601985  0.41613526  1  -1.213555  0  -0.306372  -0.250196  0  3.499406  0
N  N209  1  0.25311260  0.25398038  0.08386408  1  -1.213016  0  -0.306389  -0.250269  0  3.499362  0
N  N210  1  0.95132285  0.62345589  0.58272981  1  -1.2584  0  -0.312383  -0.249243  0  3.5256  0
N  N211  1  0.95131985  0.87654491  0.91726857  1  -1.258361  0  -0.312412  -0.249278  0  3.525641  0
N  N212  1  0.04867189  0.37654372  0.41726768  1  -1.258131  0  -0.31246  -0.249386  0  3.525545  0
N  N213  1  0.04867679  0.12345399  0.08273165  1  -1.258276  0  -0.312362  -0.249225  0  3.525581  0
O  O214  1  0.61336571  0.37152479  0.51904644  1  -1.174754  0  -0.322258  -0.578756  0  2.328073  0
O  O215  1  0.61336812  0.12848270  0.98095384  1  -1.174751  0  -0.322193  -0.578657  0  2.328069  0
O  O216  1  0.38663187  0.62847976  0.48095431  1  -1.174709  0  -0.322182  -0.578672  0  2.327985  0
O  O217  1  0.38663230  0.87152427  0.01904697  1  -1.174761  0  -0.322229  -0.5787  0  2.327922  0
O  O218  1  0.81617422  0.42630550  0.53546032  1  -1.181415  0  -0.32138  -0.546164  0  2.319927  0
O  O219  1  0.81617473  0.07369489  0.96454092  1  -1.181386  0  -0.321411  -0.546211  0  2.319958  0
O  O220  1  0.18382525  0.57369729  0.46453646  1  -1.181446  0  -0.321362  -0.546146  0  2.319855  0
O  O221  1  0.18382569  0.92630499  0.03546404  1  -1.181518  0  -0.321376  -0.546198  0  2.319826  0
O  O222  1  0.65567548  0.60673828  0.49748268  1  -1.176656  0  -0.326529  -0.589136  0  2.513979  0
O  O223  1  0.65567595  0.89326422  0.00251693  1  -1.176902  0  -0.32655  -0.589125  0  2.513986  0
O  O224  1  0.34432115  0.39326782  0.50251654  1  -1.176782  0  -0.326472  -0.589087  0  2.514149  0
O  O225  1  0.34432542  0.10673308  0.99748365  1  -1.176736  0  -0.326536  -0.589175  0  2.514264  0
O  O226  1  0.83393513  0.66795793  0.46250063  1  -1.138431  0  -0.309144  -0.542997  0  2.168939  0
O  O227  1  0.83393456  0.83204060  0.03749767  1  -1.138459  0  -0.309039  -0.542841  0  2.168996  0
O  O228  1  0.16606339  0.33204328  0.53749690  1  -1.138508  0  -0.309032  -0.542802  0  2.169064  0
O  O229  1  0.16606870  0.16795270  0.96250321  1  -1.138393  0  -0.309062  -0.542848  0  2.169165  0
O  O230  1  0.52544757  0.04854616  0.08129946  1  -1.182339  0  -0.321772  -0.578845  0  2.289786  0
O  O231  1  0.52544746  0.45145352  0.41870295  1  -1.182506  0  -0.321731  -0.578845  0  2.289856  0
O  O232  1  0.47456325  0.95145752  0.91869969  1  -1.182133  0  -0.321812  -0.579012  0  2.289949  0
O  O233  1  0.47456242  0.54854070  0.58130110  1  -1.18206  0  -0.321869  -0.579074  0  2.289778  0
O  O234  1  0.33494754  0.03651785  0.12221814  1  -1.178767  0  -0.330371  -0.550746  0  2.299126  0
O  O235  1  0.33494939  0.46348491  0.37778321  1  -1.178679  0  -0.330336  -0.550782  0  2.299018  0
O  O236  1  0.66506139  0.96348903  0.87778031  1  -1.178434  0  -0.330462  -0.550878  0  2.299034  0
O  O237  1  0.66506143  0.53651330  0.62222014  1  -1.178449  0  -0.330485  -0.550931  0  2.299048  0
