# generated using pymatgen
data_CdH8C10N3O5
_symmetry_space_group_name_H-M   'P 1'
_cell_length_a   7.71266438
_cell_length_b   11.69221433
_cell_length_c   12.69900000
_cell_angle_alpha   90.00000000
_cell_angle_beta   90.00000000
_cell_angle_gamma   93.63745510
_symmetry_Int_Tables_number   1
_chemical_formula_structural   CdH8C10N3O5
_chemical_formula_sum   'Cd4 H32 C40 N12 O20'
_cell_volume   1142.86502397
_cell_formula_units_Z   4
loop_
 _symmetry_equiv_pos_site_id
 _symmetry_equiv_pos_as_xyz
  1  'x, y, z'
loop_
 _atom_site_type_symbol
 _atom_site_label
 _atom_site_symmetry_multiplicity
 _atom_site_fract_x
 _atom_site_fract_y
 _atom_site_fract_z
 _atom_site_occupancy
 _atom_site_hle17_bader_spin_density
 _atom_site_hle17_ddec_charge
 _atom_site_hle17_ddec_spin_density
 _atom_site_hle17_ddec_sum_bond_order
 _atom_site_hle17_magmom
 _atom_site_hse06_10hf_bader_spin_density
 _atom_site_hse06_10hf_ddec_charge
 _atom_site_hse06_10hf_ddec_spin_density
 _atom_site_hse06_10hf_ddec_sum_bond_order
 _atom_site_hse06_10hf_magmom
 _atom_site_hse06_bader_spin_density
 _atom_site_hse06_ddec_charge
 _atom_site_hse06_ddec_spin_density
 _atom_site_hse06_ddec_sum_bond_order
 _atom_site_hse06_magmom
 _atom_site_pbe_bader_charge
 _atom_site_pbe_bader_spin_density
 _atom_site_pbe_cm5_charge
 _atom_site_pbe_ddec_charge
 _atom_site_pbe_ddec_spin_density
 _atom_site_pbe_ddec_sum_bond_order
 _atom_site_pbe_magmom
Cd  Cd0  1  0.39510986  0.15916909  0.72803213  1  0  1.091076  0  1.716026  0  0  0.890169  0  2.159229  0  0  0.943401  0  2.113304  0  1.262895  0  0.78487  0.852568  0  2.19051  0
Cd  Cd1  1  0.10489039  0.34083091  0.22803292  1  0  1.091065  0  1.716032  0  0  0.890152  0  2.159253  0  0  0.943384  0  2.113328  0  1.262886  0  0.784874  0.852551  0  2.190533  0
Cd  Cd2  1  0.60489065  0.84083091  0.27196708  1  0  1.09104  0  1.716051  0  0  0.890115  0  2.159293  0  0  0.943348  0  2.113367  0  1.262872  0  0.784866  0.852514  0  2.190572  0
Cd  Cd3  1  0.89511012  0.65916909  0.77196787  1  0  1.091048  0  1.71605  0  0  0.890151  0  2.159262  0  0  0.943383  0  2.113336  0  1.262884  0  0.784865  0.85255  0  2.190541  0
H  H4  1  0.34396101  0.57765245  0.56594535  1  0  0.383609  0  0.921797  0  0  0.350766  0  1.002923  0  0  0.363062  0  0.991035  0  0.65281  0  0.295187  0.342205  0  1.011062  0
H  H5  1  0.15603911  0.92234841  0.06594456  1  0  0.383622  0  0.921771  0  0  0.350775  0  1.002903  0  0  0.363072  0  0.991013  0  0.652794  0  0.295189  0.342214  0  1.011042  0
H  H6  1  0.65603829  0.42234841  0.43405544  1  0  0.383615  0  0.921783  0  0  0.350771  0  1.002914  0  0  0.363066  0  0.991025  0  0.652807  0  0.295192  0.34221  0  1.011053  0
H  H7  1  0.84396140  0.07765159  0.93405544  1  0  0.383614  0  0.92178  0  0  0.350767  0  1.002914  0  0  0.363064  0  0.991024  0  0.652788  0  0.295186  0.342207  0  1.011053  0
H  H8  1  0.39457326  0.08875998  0.95283014  1  0  0.421134  0  0.881299  0  0  0.384742  0  0.953309  0  0  0.396503  0  0.936161  0  0.643844  0  0.285461  0.376401  0  0.965453  0
H  H9  1  0.10542708  0.41124088  0.45283014  1  0  0.42113  0  0.881303  0  0  0.384735  0  0.953318  0  0  0.396496  0  0.93617  0  0.643842  0  0.285462  0.376393  0  0.965464  0
H  H10  1  0.60542726  0.91124002  0.04716986  1  0  0.421076  0  0.881382  0  0  0.384659  0  0.953405  0  0  0.39642  0  0.936259  0  0.643845  0  0.285433  0.376323  0  0.965541  0
H  H11  1  0.89457222  0.58875998  0.54716986  1  0  0.421137  0  0.881291  0  0  0.384747  0  0.953298  0  0  0.396508  0  0.93615  0  0.643846  0  0.28547  0.376406  0  0.965442  0
H  H12  1  0.57411959  0.05460010  0.90818490  1  0  0.412027  0  0.890786  0  0  0.381979  0  0.95231  0  0  0.392318  0  0.937219  0  0.623142  0  0.289928  0.374662  0  0.962968  0
H  H13  1  0.92588010  0.44539990  0.40818490  1  0  0.412043  0  0.890764  0  0  0.382004  0  0.952271  0  0  0.39234  0  0.937185  0  0.623138  0  0.289935  0.374687  0  0.962929  0
H  H14  1  0.42588092  0.94539990  0.09181510  1  0  0.412042  0  0.890764  0  0  0.381996  0  0.952285  0  0  0.392333  0  0.937197  0  0.623141  0  0.289935  0.374679  0  0.962943  0
H  H15  1  0.07411912  0.55460010  0.59181510  1  0  0.412022  0  0.890795  0  0  0.381974  0  0.952318  0  0  0.392312  0  0.937228  0  0.623141  0  0.289924  0.374657  0  0.962976  0
H  H16  1  0.75283206  0.35251434  0.84252855  1  0  0.08346  0  0.938559  0  0  0.092708  0  1.004206  0  0  0.094923  0  1.001547  0  0.095616  0  0.127555  0.091093  0  1.006093  0
H  H17  1  0.74716892  0.14748566  0.34252776  1  0  0.083446  0  0.938537  0  0  0.092695  0  1.004185  0  0  0.094909  0  1.001526  0  0.095648  0  0.127543  0.091078  0  1.006073  0
H  H18  1  0.24716845  0.64748566  0.15747224  1  0  0.083452  0  0.938521  0  0  0.0927  0  1.004172  0  0  0.094914  0  1.001511  0  0.09565  0  0.127542  0.091084  0  1.00606  0
H  H19  1  0.25283159  0.85251434  0.65747224  1  0  0.083447  0  0.938524  0  0  0.092695  0  1.004175  0  0  0.094909  0  1.001514  0  0.095651  0  0.127542  0.091079  0  1.006063  0
H  H20  1  0.54422985  0.91918695  0.64264115  1  0  0.080647  0  0.946369  0  0  0.087617  0  1.012891  0  0  0.090553  0  1.009771  0  0.116198  0  0.114148  0.085451  0  1.015182  0
H  H21  1  0.95576963  0.58081305  0.14264115  1  0  0.080647  0  0.946372  0  0  0.087614  0  1.012897  0  0  0.090551  0  1.009776  0  0.116196  0  0.114147  0.085448  0  1.015187  0
H  H22  1  0.45577067  0.08081305  0.35735885  1  0  0.080658  0  0.946343  0  0  0.087627  0  1.012872  0  0  0.090564  0  1.00975  0  0.116198  0  0.114146  0.08546  0  1.015165  0
H  H23  1  0.04423089  0.41918695  0.85735885  1  0  0.080653  0  0.946369  0  0  0.087619  0  1.012895  0  0  0.090556  0  1.009776  0  0.116201  0  0.114148  0.085453  0  1.015186  0
H  H24  1  0.79008958  0.84930660  0.54766360  1  0  0.126763  0  0.969402  0  0  0.133368  0  1.033506  0  0  0.137193  0  1.031337  0  0.13796  0  0.111759  0.130596  0  1.035213  0
H  H25  1  0.70991119  0.65069340  0.04766360  1  0  0.126771  0  0.969397  0  0  0.133367  0  1.033507  0  0  0.137192  0  1.031341  0  0.137963  0  0.111753  0.130596  0  1.035213  0
H  H26  1  0.20991094  0.15069340  0.45233640  1  0  0.126779  0  0.969376  0  0  0.133373  0  1.033491  0  0  0.137197  0  1.031326  0  0.137971  0  0.111759  0.1306  0  1.035199  0
H  H27  1  0.29008932  0.34930660  0.95233640  1  0  0.126773  0  0.969384  0  0  0.133374  0  1.033495  0  0  0.137199  0  1.031328  0  0.13797  0  0.111757  0.130603  0  1.0352  0
H  H28  1  0.00180760  0.20216203  0.52817781  1  0  0.123886  0  0.973149  0  0  0.13065  0  1.037039  0  0  0.134904  0  1.034165  0  0.145424  0  0.109652  0.127545  0  1.039339  0
H  H29  1  0.49819265  0.29783797  0.02817781  1  0  0.123905  0  0.973139  0  0  0.130673  0  1.037023  0  0  0.134928  0  1.034146  0  0.145429  0  0.109656  0.127568  0  1.039323  0
H  H30  1  0.99819161  0.79783797  0.47182219  1  0  0.12388  0  0.973145  0  0  0.13065  0  1.037035  0  0  0.134905  0  1.034159  0  0.145425  0  0.109653  0.127544  0  1.039336  0
H  H31  1  0.50180924  0.70216289  0.97182219  1  0  0.123878  0  0.973151  0  0  0.130644  0  1.037041  0  0  0.134898  0  1.034165  0  0.145412  0  0.109647  0.127538  0  1.039341  0
H  H32  1  0.73871249  0.25758228  0.61864320  1  0  0.081076  0  0.952272  0  0  0.090722  0  1.010941  0  0  0.093173  0  1.009275  0  0.09251  0  0.115343  0.088893  0  1.012268  0
H  H33  1  0.76128720  0.24241772  0.11864320  1  0  0.081066  0  0.952264  0  0  0.090705  0  1.010945  0  0  0.093156  0  1.009279  0  0.092504  0  0.115337  0.088876  0  1.012272  0
H  H34  1  0.26128802  0.74241772  0.38135680  1  0  0.081078  0  0.952258  0  0  0.090723  0  1.010924  0  0  0.093175  0  1.009258  0  0.092505  0  0.115348  0.088895  0  1.012252  0
H  H35  1  0.23871202  0.75758228  0.88135680  1  0  0.081076  0  0.95226  0  0  0.090724  0  1.010932  0  0  0.093176  0  1.009265  0  0.092504  0  0.115341  0.088895  0  1.012259  0
C  C36  1  0.46118975  0.42033790  0.67733601  1  0  -0.013023  0  3.78297  0  0  -0.020871  0  4.041937  0  0  -0.022474  0  4.063575  0  0.39491  0  0.067667  -0.019846  0  4.027348  0
C  C37  1  0.03881059  0.07966296  0.17733601  1  0  -0.01303  0  3.782931  0  0  -0.020897  0  4.041944  0  0  -0.022498  0  4.06357  0  0.394954  0  0.067665  -0.019872  0  4.027356  0
C  C38  1  0.53881085  0.57966296  0.32266399  1  0  -0.013021  0  3.782911  0  0  -0.02087  0  4.041925  0  0  -0.02247  0  4.063553  0  0.394924  0  0.067674  -0.019845  0  4.027336  0
C  C39  1  0.96118871  0.92033790  0.82266399  1  0  -0.013076  0  3.782954  0  0  -0.020896  0  4.04191  0  0  -0.022506  0  4.063546  0  0.394945  0  0.067667  -0.01987  0  4.027322  0
C  C40  1  0.55821076  0.52480233  0.69168990  1  0  -0.031499  0  3.804894  0  0  -0.038209  0  4.061968  0  0  -0.041751  0  4.085115  0  0.433743  0  0.0619  -0.035954  0  4.046437  0
C  C41  1  0.94178750  0.97519852  0.19168911  1  0  -0.031429  0  3.804776  0  0  -0.038154  0  4.061895  0  0  -0.041683  0  4.085021  0  0.433724  0  0.061901  -0.035902  0  4.046368  0
C  C42  1  0.44178846  0.47519767  0.30831010  1  0  -0.031449  0  3.804861  0  0  -0.038219  0  4.062037  0  0  -0.041749  0  4.085167  0  0.433757  0  0.061872  -0.035963  0  4.046504  0
C  C43  1  0.05821301  0.02480148  0.80831089  1  0  -0.031445  0  3.804821  0  0  -0.038184  0  4.061932  0  0  -0.041712  0  4.085062  0  0.433716  0  0.06189  -0.035933  0  4.046407  0
C  C44  1  0.66980119  0.39488596  0.78772029  1  0  0.239074  0  3.714544  0  0  0.180962  0  3.997059  0  0  0.19417  0  4.011145  0  1.000429  0  0.135354  0.172314  0  3.987048  0
C  C45  1  0.83020101  0.10511318  0.28772187  1  0  0.239056  0  3.714503  0  0  0.180942  0  3.997021  0  0  0.194149  0  4.01111  0  1.000413  0  0.135337  0.172296  0  3.987005  0
C  C46  1  0.33020183  0.60511318  0.21227813  1  0  0.239051  0  3.714523  0  0  0.180937  0  3.997039  0  0  0.194147  0  4.011128  0  1.000418  0  0.135345  0.172291  0  3.987024  0
C  C47  1  0.16979821  0.89488682  0.71227813  1  0  0.239087  0  3.714501  0  0  0.180969  0  3.99703  0  0  0.194178  0  4.011117  0  1.000411  0  0.135361  0.172323  0  3.987016  0
C  C48  1  0.31518153  0.38548642  0.60655878  1  0  0.643626  0  3.911514  0  0  0.585806  0  4.215732  0  0  0.620459  0  4.206759  0  1.559442  0  0.211278  0.562324  0  4.221038  0
C  C49  1  0.18481873  0.11451358  0.10655800  1  0  0.643681  0  3.911536  0  0  0.585858  0  4.215771  0  0  0.620509  0  4.206794  0  1.559882  0  0.211299  0.562375  0  4.221078  0
C  C50  1  0.68481899  0.61451358  0.39344200  1  0  0.643673  0  3.911544  0  0  0.585848  0  4.215778  0  0  0.620498  0  4.206803  0  1.559856  0  0.211308  0.562365  0  4.221086  0
C  C51  1  0.81518178  0.88548642  0.89344200  1  0  0.643712  0  3.911507  0  0  0.585877  0  4.215742  0  0  0.620532  0  4.206764  0  1.559878  0  0.211292  0.562394  0  4.22105  0
C  C52  1  0.54182077  0.63988839  0.64781479  1  0  0.635622  0  3.864398  0  0  0.58285  0  4.167753  0  0  0.617256  0  4.158281  0  1.521193  0  0.222177  0.559496  0  4.173596  0
C  C53  1  0.95818000  0.86011162  0.14781400  1  0  0.63549  0  3.864406  0  0  0.582705  0  4.167789  0  0  0.617107  0  4.158316  0  1.521199  0  0.222148  0.559353  0  4.173629  0
C  C54  1  0.45817983  0.36011247  0.35218600  1  0  0.63549  0  3.864363  0  0  0.582711  0  4.167762  0  0  0.617111  0  4.158293  0  1.521185  0  0.222151  0.559355  0  4.173603  0
C  C55  1  0.04182043  0.13988753  0.85218600  1  0  0.635512  0  3.864336  0  0  0.582721  0  4.167727  0  0  0.617124  0  4.158256  0  1.521191  0  0.222158  0.559369  0  4.173568  0
C  C56  1  0.64641280  0.98027280  0.61470352  1  0  0.128783  0  3.717934  0  0  0.096929  0  3.974372  0  0  0.103494  0  3.993507  0  0.424221  0  0.041358  0.092706  0  3.961277  0
C  C57  1  0.85358798  0.51972720  0.11470352  1  0  0.128794  0  3.717945  0  0  0.096933  0  3.974382  0  0  0.103499  0  3.993517  0  0.424215  0  0.04136  0.09271  0  3.961286  0
C  C58  1  0.35358764  0.01972634  0.38529648  1  0  0.128767  0  3.717974  0  0  0.0969  0  3.974417  0  0  0.103465  0  3.993554  0  0.424203  0  0.041345  0.092677  0  3.96132  0
C  C59  1  0.14641254  0.48027280  0.88529648  1  0  0.128762  0  3.717937  0  0  0.096907  0  3.974381  0  0  0.103472  0  3.993517  0  0.424203  0  0.041348  0.092684  0  3.961285  0
C  C60  1  0.78844579  0.94093923  0.56153162  1  0  -0.137689  0  3.659852  0  0  -0.158893  0  3.913088  0  0  -0.165914  0  3.933861  0  -0.00068  0  -0.077236  -0.154322  0  3.899215  0
C  C61  1  0.71155498  0.55906077  0.06153162  1  0  -0.137698  0  3.659892  0  0  -0.158892  0  3.913107  0  0  -0.165914  0  3.93388  0  -0.000695  0  -0.077235  -0.154321  0  3.899233  0
C  C62  1  0.21155594  0.05905991  0.43846760  1  0  -0.137678  0  3.65987  0  0  -0.158873  0  3.913069  0  0  -0.165893  0  3.933843  0  0.005046  0  -0.077223  -0.154301  0  3.899196  0
C  C63  1  0.28844562  0.44094009  0.93846760  1  0  -0.137689  0  3.659835  0  0  -0.158892  0  3.913065  0  0  -0.165914  0  3.933838  0  0.005044  0  -0.077229  -0.154322  0  3.899191  0
C  C64  1  0.92280415  0.01910074  0.52812820  1  0  0.095192  0  3.732144  0  0  0.105248  0  3.965779  0  0  0.108633  0  3.988071  0  0.007756  0  0.014996  0.103145  0  3.950548  0
C  C65  1  0.57719692  0.48090012  0.02812820  1  0  0.095131  0  3.73222  0  0  0.105212  0  3.965839  0  0  0.108597  0  3.98813  0  0.051275  0  0.015003  0.103109  0  3.950607  0
C  C66  1  0.07719636  0.98089926  0.47187101  1  0  0.095103  0  3.732216  0  0  0.105211  0  3.9658  0  0  0.108595  0  3.988092  0  0.045557  0  0.014991  0.103108  0  3.950568  0
C  C67  1  0.42280368  0.51910074  0.97187180  1  0  0.095216  0  3.732123  0  0  0.10528  0  3.965763  0  0  0.108665  0  3.988054  0  0.002028  0  0.015  0.103176  0  3.950532  0
C  C68  1  0.90390055  0.13540458  0.55020474  1  0  -0.143188  0  3.671563  0  0  -0.162115  0  3.921529  0  0  -0.169273  0  3.941292  0  -0.054136  0  -0.077216  -0.157472  0  3.908324  0
C  C69  1  0.59610044  0.36459542  0.05020474  1  0  -0.143238  0  3.671644  0  0  -0.162168  0  3.921603  0  0  -0.169326  0  3.941363  0  -0.054465  0  -0.07723  -0.157525  0  3.908397  0
C  C70  1  0.09609997  0.86459542  0.44979447  1  0  -0.143165  0  3.671636  0  0  -0.162113  0  3.921587  0  0  -0.16927  0  3.941349  0  -0.054141  0  -0.07721  -0.15747  0  3.908381  0
C  C71  1  0.40390007  0.63540458  0.94979605  1  0  -0.143214  0  3.671538  0  0  -0.162135  0  3.921499  0  0  -0.169292  0  3.941259  0  -0.054472  0  -0.077231  -0.157492  0  3.908294  0
C  C72  1  0.75658777  0.16773991  0.60218049  1  0  0.133611  0  3.712063  0  0  0.102235  0  3.964062  0  0  0.10913  0  3.982517  0  0.483153  0  0.041359  0.097713  0  3.951495  0
C  C73  1  0.74341322  0.33226009  0.10218049  1  0  0.133664  0  3.712075  0  0  0.102289  0  3.964084  0  0  0.109184  0  3.982536  0  0.483498  0  0.041384  0.097766  0  3.951517  0
C  C74  1  0.24341145  0.83226009  0.39781951  1  0  0.133608  0  3.712055  0  0  0.102243  0  3.964051  0  0  0.109138  0  3.982505  0  0.48314  0  0.041346  0.097721  0  3.951484  0
C  C75  1  0.25658729  0.66773991  0.89781951  1  0  0.133619  0  3.712041  0  0  0.102235  0  3.964048  0  0  0.109129  0  3.9825  0  0.483506  0  0.041375  0.097712  0  3.951481  0
N  N76  1  0.53330696  0.33998591  0.73925191  1  0  -0.4085  0  3.220199  0  0  -0.335538  0  3.495613  0  0  -0.356721  0  3.513925  0  -1.206277  0  -0.356305  -0.320935  0  3.482693  0
N  N77  1  0.96669411  0.16001495  0.23925191  1  0  -0.408498  0  3.220142  0  0  -0.335514  0  3.495544  0  0  -0.356698  0  3.513855  0  -1.206283  0  -0.356298  -0.320909  0  3.482622  0
N  N78  1  0.46669364  0.66001495  0.26074809  1  0  -0.408493  0  3.220151  0  0  -0.335507  0  3.495545  0  0  -0.356692  0  3.513856  0  -1.206287  0  -0.356298  -0.320903  0  3.482624  0
N  N79  1  0.03330511  0.83998505  0.76074809  1  0  -0.408479  0  3.220111  0  0  -0.335512  0  3.495502  0  0  -0.356693  0  3.513813  0  -1.206271  0  -0.356288  -0.320908  0  3.48258  0
N  N80  1  0.69035163  0.50660059  0.76145445  1  0  -0.427078  0  3.223631  0  0  -0.352879  0  3.502704  0  0  -0.374381  0  3.521451  0  -1.198701  0  -0.357738  -0.33805  0  3.489512  0
N  N81  1  0.80964785  0.99339941  0.26145445  1  0  -0.427094  0  3.223597  0  0  -0.352883  0  3.502673  0  0  -0.374388  0  3.521414  0  -1.198723  0  -0.357745  -0.338052  0  3.48948  0
N  N82  1  0.30964889  0.49339941  0.23854555  1  0  -0.427074  0  3.223699  0  0  -0.352851  0  3.502785  0  0  -0.374356  0  3.52153  0  -1.198716  0  -0.357726  -0.338021  0  3.489591  0
N  N83  1  0.19035129  0.00659973  0.73854555  1  0  -0.427106  0  3.223615  0  0  -0.352902  0  3.5027  0  0  -0.374407  0  3.521443  0  -1.198718  0  -0.357766  -0.33807  0  3.489506  0
N  N84  1  0.62882438  0.09198228  0.63501772  1  0  -0.356995  0  3.275787  0  0  -0.276363  0  3.544715  0  0  -0.296873  0  3.564255  0  -1.251255  0  -0.334898  -0.262314  0  3.531041  0
N  N85  1  0.87117661  0.40801772  0.13501772  1  0  -0.357012  0  3.275808  0  0  -0.276371  0  3.544733  0  0  -0.29688  0  3.56427  0  -1.251266  0  -0.334907  -0.262322  0  3.531058  0
N  N86  1  0.37117614  0.90801772  0.36498228  1  0  -0.356998  0  3.275775  0  0  -0.276361  0  3.544695  0  0  -0.296872  0  3.564235  0  -1.251265  0  -0.334898  -0.262312  0  3.531019  0
N  N87  1  0.12882391  0.59198228  0.86498228  1  0  -0.356988  0  3.275801  0  0  -0.276351  0  3.544732  0  0  -0.296862  0  3.564271  0  -1.251263  0  -0.334901  -0.262302  0  3.531056  0
O  O88  1  0.26385501  0.28152933  0.60022600  1  0  -0.583094  0  1.990267  0  0  -0.522407  0  2.235779  0  0  -0.54766  0  2.224628  0  -1.139317  0  -0.300976  -0.504777  0  2.242842  0
O  O89  1  0.23614403  0.21847153  0.10022600  1  0  -0.5831  0  1.990191  0  0  -0.522442  0  2.235753  0  0  -0.547704  0  2.224619  0  -1.139307  0  -0.300995  -0.504812  0  2.242816  0
O  O90  1  0.73614429  0.71847153  0.39977400  1  0  -0.583092  0  1.99019  0  0  -0.522429  0  2.235751  0  0  -0.547693  0  2.224624  0  -1.139308  0  -0.300993  -0.504799  0  2.242815  0
O  O91  1  0.76385519  0.78152847  0.89977400  1  0  -0.583111  0  1.990185  0  0  -0.522447  0  2.235741  0  0  -0.547707  0  2.224602  0  -1.13931  0  -0.300992  -0.504817  0  2.242805  0
O  O92  1  0.24814986  0.46538420  0.55108512  1  0  -0.660768  0  2.062176  0  0  -0.583943  0  2.272157  0  0  -0.611582  0  2.261509  0  -1.194994  0  -0.313628  -0.56473  0  2.279019  0
O  O93  1  0.25185048  0.03461666  0.05108512  1  0  -0.660801  0  2.06222  0  0  -0.583965  0  2.272202  0  0  -0.611604  0  2.261554  0  -1.195441  0  -0.31363  -0.564753  0  2.279063  0
O  O94  1  0.75184936  0.53461580  0.44891488  1  0  -0.660793  0  2.062238  0  0  -0.583963  0  2.272218  0  0  -0.611599  0  2.26157  0  -1.195433  0  -0.313643  -0.56475  0  2.279079  0
O  O95  1  0.74815003  0.96538334  0.94891488  1  0  -0.660789  0  2.062214  0  0  -0.583953  0  2.272187  0  0  -0.611592  0  2.261538  0  -1.195436  0  -0.313624  -0.564743  0  2.279046  0
O  O96  1  0.64478832  0.72158843  0.67305300  1  0  -0.557015  0  2.000537  0  0  -0.494604  0  2.234972  0  0  -0.518743  0  2.225593  0  -1.147501  0  -0.286694  -0.477814  0  2.240801  0
O  O97  1  0.85521254  0.77841243  0.17305221  1  0  -0.556965  0  2.000583  0  0  -0.494524  0  2.234994  0  0  -0.518664  0  2.225617  0  -1.147466  0  -0.286672  -0.47774  0  2.240837  0
O  O98  1  0.35521090  0.27841157  0.32694779  1  0  -0.556989  0  2.000537  0  0  -0.494539  0  2.234943  0  0  -0.518677  0  2.225568  0  -1.147481  0  -0.28669  -0.477753  0  2.240789  0
O  O99  1  0.14478806  0.22158843  0.82694779  1  0  -0.55699  0  2.000548  0  0  -0.494538  0  2.234953  0  0  -0.518678  0  2.225576  0  -1.147477  0  -0.286683  -0.477752  0  2.240794  0
O  O100  1  0.41391780  0.65563055  0.58096307  1  0  -0.535381  0  2.079831  0  0  -0.48785  0  2.303621  0  0  -0.509902  0  2.290317  0  -1.168027  0  -0.331085  -0.472568  0  2.312294  0
O  O101  1  0.08608224  0.84436945  0.08096228  1  0  -0.535319  0  2.079782  0  0  -0.487781  0  2.303572  0  0  -0.509834  0  2.29027  0  -1.168042  0  -0.331052  -0.472498  0  2.312244  0
O  O102  1  0.58608271  0.34436945  0.41903772  1  0  -0.535318  0  2.079781  0  0  -0.487776  0  2.303557  0  0  -0.509828  0  2.290258  0  -1.168039  0  -0.331049  -0.472492  0  2.312231  0
O  O103  1  0.91391698  0.15563055  0.91903772  1  0  -0.53532  0  2.079774  0  0  -0.487778  0  2.303555  0  0  -0.509831  0  2.290254  0  -1.168038  0  -0.331048  -0.472495  0  2.312227  0
O  O104  1  0.48714384  0.11218426  0.90101347  1  0  -0.825326  0  1.85606  0  0  -0.763074  0  2.0491  0  0  -0.78389  0  2.014683  0  -1.256102  0  -0.594212  -0.748324  0  2.07308  0
O  O105  1  0.01285650  0.38781660  0.40101347  1  0  -0.825338  0  1.856048  0  0  -0.76308  0  2.049075  0  0  -0.783894  0  2.014662  0  -1.256098  0  -0.59422  -0.748329  0  2.073058  0
O  O106  1  0.51285537  0.88781574  0.09898653  1  0  -0.825281  0  1.856123  0  0  -0.762985  0  2.049236  0  0  -0.783801  0  2.01482  0  -1.256098  0  -0.594184  -0.748235  0  2.073213  0
O  O107  1  0.98714410  0.61218426  0.59898653  1  0  -0.825322  0  1.856058  0  0  -0.763067  0  2.049093  0  0  -0.783882  0  2.014678  0  -1.256098  0  -0.594213  -0.748317  0  2.073073  0
