# generated using pymatgen
data_AgH9C8N5O2
_symmetry_space_group_name_H-M   'P 1'
_cell_length_a   8.29966246
_cell_length_b   10.61338501
_cell_length_c   12.46053951
_cell_angle_alpha   116.31488838
_cell_angle_beta   90.00001403
_cell_angle_gamma   90.00031585
_symmetry_Int_Tables_number   1
_chemical_formula_structural   AgH9C8N5O2
_chemical_formula_sum   'Ag4 H36 C32 N20 O8'
_cell_volume   983.87318208
_cell_formula_units_Z   4
loop_
 _symmetry_equiv_pos_site_id
 _symmetry_equiv_pos_as_xyz
  1  'x, y, z'
loop_
 _atom_site_type_symbol
 _atom_site_label
 _atom_site_symmetry_multiplicity
 _atom_site_fract_x
 _atom_site_fract_y
 _atom_site_fract_z
 _atom_site_occupancy
 _atom_site_hle17_bader_spin_density
 _atom_site_hle17_ddec_charge
 _atom_site_hle17_ddec_spin_density
 _atom_site_hle17_ddec_sum_bond_order
 _atom_site_hle17_magmom
 _atom_site_hse06_10hf_bader_spin_density
 _atom_site_hse06_10hf_ddec_charge
 _atom_site_hse06_10hf_ddec_spin_density
 _atom_site_hse06_10hf_ddec_sum_bond_order
 _atom_site_hse06_10hf_magmom
 _atom_site_hse06_bader_spin_density
 _atom_site_hse06_ddec_charge
 _atom_site_hse06_ddec_spin_density
 _atom_site_hse06_ddec_sum_bond_order
 _atom_site_hse06_magmom
 _atom_site_pbe_bader_spin_density
 _atom_site_pbe_cm5_charge
 _atom_site_pbe_ddec_charge
 _atom_site_pbe_ddec_spin_density
 _atom_site_pbe_ddec_sum_bond_order
 _atom_site_pbe_magmom
Ag  Ag0  1  0.30009863  0.92577485  0.37323316  1  0  0.579886  0  1.353417  0  0  0.447003  0  1.776356  0  0  0.478318  0  1.730733  0  0  0.473075  0.425639  0  1.807126  0
Ag  Ag1  1  0.80009668  0.07422254  0.12676541  1  0  0.579909  0  1.35336  0  0  0.447029  0  1.776276  0  0  0.478348  0  1.730652  0  0  0.473075  0.425668  0  1.807048  0
Ag  Ag2  1  0.69990114  0.07422181  0.62676360  1  0  0.579904  0  1.353403  0  0  0.447024  0  1.77634  0  0  0.478342  0  1.730717  0  0  0.473088  0.425666  0  1.807112  0
Ag  Ag3  1  0.19990791  0.92577940  0.87323654  1  0  0.579887  0  1.353384  0  0  0.447026  0  1.776296  0  0  0.478344  0  1.730675  0  0  0.47308  0.425664  0  1.807067  0
H  H4  1  0.57145814  0.63554336  0.79506932  1  0  0.140331  0  0.931748  0  0  0.163636  0  0.981544  0  0  0.165805  0  0.981173  0  0  0.103375  0.162159  0  0.981675  0
H  H5  1  0.07146094  0.36445400  0.70493098  1  0  0.140331  0  0.931761  0  0  0.163649  0  0.981539  0  0  0.165819  0  0.981166  0  0  0.103364  0.16217  0  0.981672  0
H  H6  1  0.42854042  0.36445227  0.20492948  1  0  0.140327  0  0.931766  0  0  0.16365  0  0.981538  0  0  0.165819  0  0.981166  0  0  0.103373  0.162172  0  0.98167  0
H  H7  1  0.92853039  0.63555114  0.29507698  1  0  0.14034  0  0.931777  0  0  0.16361  0  0.981595  0  0  0.16578  0  0.981222  0  0  0.103373  0.162134  0  0.981723  0
H  H8  1  0.44600287  0.76315202  0.77945069  1  0  0.122145  0  0.963955  0  0  0.138238  0  1.033824  0  0  0.140998  0  1.031687  0  0  0.091081  0.136191  0  1.035415  0
H  H9  1  0.94600330  0.23684321  0.72054968  1  0  0.122172  0  0.963817  0  0  0.138259  0  1.033695  0  0  0.141019  0  1.031557  0  0  0.091094  0.136211  0  1.035287  0
H  H10  1  0.55399689  0.23684465  0.22054769  1  0  0.122133  0  0.963923  0  0  0.138228  0  1.033792  0  0  0.140986  0  1.031654  0  0  0.091066  0.13618  0  1.035382  0
H  H11  1  0.05398803  0.76315978  0.27945266  1  0  0.122141  0  0.963858  0  0  0.138211  0  1.033754  0  0  0.140971  0  1.031616  0  0  0.091058  0.136163  0  1.035346  0
H  H12  1  0.36577132  0.59791066  0.75667047  1  0  0.134446  0  0.933373  0  0  0.156143  0  0.991263  0  0  0.157964  0  0.991492  0  0  0.10109  0.154924  0  0.990944  0
H  H13  1  0.86577290  0.40208727  0.74333009  1  0  0.134478  0  0.933325  0  0  0.156155  0  0.991236  0  0  0.157976  0  0.991466  0  0  0.101077  0.154936  0  0.990917  0
H  H14  1  0.63422603  0.40208600  0.24332710  1  0  0.134458  0  0.933363  0  0  0.156137  0  0.991282  0  0  0.157957  0  0.991512  0  0  0.101067  0.154921  0  0.99096  0
H  H15  1  0.13421722  0.59791466  0.25667105  1  0  0.134411  0  0.933421  0  0  0.156091  0  0.991326  0  0  0.157911  0  0.991558  0  0  0.101036  0.154881  0  0.990996  0
H  H16  1  0.65100869  0.39378900  0.61093462  1  0  0.079226  0  0.991253  0  0  0.089996  0  1.058065  0  0  0.092608  0  1.056847  0  0  0.097654  0.088156  0  1.058888  0
H  H17  1  0.15100481  0.60621299  0.88906580  1  0  0.079204  0  0.991327  0  0  0.089989  0  1.058127  0  0  0.092599  0  1.056917  0  0  0.097651  0.088151  0  1.058944  0
H  H18  1  0.34899228  0.60621293  0.38906571  1  0  0.079194  0  0.991265  0  0  0.089972  0  1.058069  0  0  0.092585  0  1.05685  0  0  0.097639  0.08813  0  1.0589  0
H  H19  1  0.84899134  0.39378683  0.11093375  1  0  0.079199  0  0.991303  0  0  0.089994  0  1.058091  0  0  0.092607  0  1.056873  0  0  0.097654  0.088154  0  1.058917  0
H  H20  1  0.24514273  0.38950935  0.39727838  1  0  0.094935  0  0.980881  0  0  0.102597  0  1.047152  0  0  0.106075  0  1.045339  0  0  0.100956  0.100117  0  1.048491  0
H  H21  1  0.74514208  0.61048668  0.10271887  1  0  0.094965  0  0.980854  0  0  0.102627  0  1.047102  0  0  0.106095  0  1.045314  0  0  0.100985  0.100148  0  1.04844  0
H  H22  1  0.75485583  0.61048942  0.60271997  1  0  0.094948  0  0.980892  0  0  0.102619  0  1.04714  0  0  0.10609  0  1.045343  0  0  0.100972  0.10014  0  1.048476  0
H  H23  1  0.25485166  0.38951207  0.89727788  1  0  0.094925  0  0.98086  0  0  0.102617  0  1.047081  0  0  0.106084  0  1.045297  0  0  0.100951  0.100137  0  1.048421  0
H  H24  1  0.49644496  0.53503457  0.11489475  1  0  0.325622  0  0.932296  0  0  0.299104  0  1.01006  0  0  0.307829  0  1.003075  0  0  0.293896  0.292976  0  1.014905  0
H  H25  1  0.99644462  0.46496390  0.38510345  1  0  0.325641  0  0.932272  0  0  0.299122  0  1.010033  0  0  0.307845  0  1.003052  0  0  0.293902  0.292995  0  1.014877  0
H  H26  1  0.50355480  0.46496525  0.88510480  1  0  0.325642  0  0.932275  0  0  0.299115  0  1.010051  0  0  0.307841  0  1.003066  0  0  0.293899  0.292987  0  1.014897  0
H  H27  1  0.00355273  0.53503488  0.61489651  1  0  0.325699  0  0.932219  0  0  0.299184  0  1.009968  0  0  0.307909  0  1.002984  0  0  0.293931  0.293055  0  1.014815  0
H  H28  1  0.47990025  0.68144520  0.26091708  1  0  0.337927  0  0.931259  0  0  0.314541  0  1.004636  0  0  0.323779  0  0.995946  0  0  0.290765  0.307971  0  1.010784  0
H  H29  1  0.97989763  0.31855321  0.23908431  1  0  0.337928  0  0.931264  0  0  0.314531  0  1.004657  0  0  0.323768  0  0.99597  0  0  0.290758  0.307962  0  1.010804  0
H  H30  1  0.52010072  0.31855357  0.73908127  1  0  0.337934  0  0.931223  0  0  0.31454  0  1.004616  0  0  0.323777  0  0.995926  0  0  0.290762  0.307971  0  1.010762  0
H  H31  1  0.02010454  0.68144980  0.76091964  1  0  0.337909  0  0.931222  0  0  0.314506  0  1.004636  0  0  0.323744  0  0.995945  0  0  0.290746  0.307937  0  1.01078  0
H  H32  1  0.25691807  0.09756578  0.26636307  1  0  0.348457  0  0.924927  0  0  0.327429  0  0.990783  0  0  0.336224  0  0.983265  0  0  0.296771  0.321209  0  0.996052  0
H  H33  1  0.75691468  0.90243241  0.23363419  1  0  0.348415  0  0.924948  0  0  0.327389  0  0.9908  0  0  0.336184  0  0.983283  0  0  0.296753  0.321169  0  0.996067  0
H  H34  1  0.74308169  0.90243403  0.73363407  1  0  0.348448  0  0.924914  0  0  0.327417  0  0.990781  0  0  0.336213  0  0.983263  0  0  0.296763  0.321196  0  0.996054  0
H  H35  1  0.24309231  0.09756636  0.76636497  1  0  0.348469  0  0.924918  0  0  0.327433  0  0.990805  0  0  0.336229  0  0.983285  0  0  0.296757  0.32121  0  0.996082  0
H  H36  1  0.20751121  0.09770552  0.12783371  1  0  0.342057  0  0.915863  0  0  0.318737  0  0.988259  0  0  0.328307  0  0.979059  0  0  0.293635  0.311898  0  0.994849  0
H  H37  1  0.70750909  0.90229030  0.37216346  1  0  0.342061  0  0.915865  0  0  0.318775  0  0.988226  0  0  0.328348  0  0.979018  0  0  0.29364  0.311932  0  0.994824  0
H  H38  1  0.79248975  0.90229220  0.87216506  1  0  0.342062  0  0.915869  0  0  0.318744  0  0.988262  0  0  0.328315  0  0.979058  0  0  0.293639  0.311904  0  0.994853  0
H  H39  1  0.29249911  0.09770640  0.62783734  1  0  0.342065  0  0.915894  0  0  0.318765  0  0.988267  0  0  0.328336  0  0.979061  0  0  0.293632  0.311924  0  0.994862  0
C  C40  1  0.42803679  0.71794576  0.11513158  1  0  0.690325  0  3.819088  0  0  0.635839  0  4.098644  0  0  0.666487  0  4.102972  0  0  0.3524  0.615234  0  4.095237  0
C  C41  1  0.92803639  0.28205236  0.38486888  1  0  0.690321  0  3.819172  0  0  0.635854  0  4.098676  0  0  0.666501  0  4.103005  0  0  0.352416  0.615249  0  4.095268  0
C  C42  1  0.57196538  0.28205511  0.88486675  1  0  0.690347  0  3.819247  0  0  0.635916  0  4.098754  0  0  0.666564  0  4.103082  0  0  0.352414  0.615309  0  4.095349  0
C  C43  1  0.07197181  0.71794750  0.61513469  1  0  0.690456  0  3.818916  0  0  0.635917  0  4.098554  0  0  0.666566  0  4.102883  0  0  0.352451  0.61531  0  4.095146  0
C  C44  1  0.41240387  0.73927420  0.94106015  1  0  0.536482  0  3.768064  0  0  0.51289  0  4.033152  0  0  0.537706  0  4.040789  0  0  0.252538  0.496159  0  4.027497  0
C  C45  1  0.91240559  0.26072188  0.55893812  1  0  0.536554  0  3.767997  0  0  0.512927  0  4.033121  0  0  0.53774  0  4.04076  0  0  0.252484  0.496196  0  4.027465  0
C  C46  1  0.58759469  0.26072354  0.05894023  1  0  0.536523  0  3.768076  0  0  0.512999  0  4.033094  0  0  0.537812  0  4.040734  0  0  0.252539  0.496268  0  4.02744  0
C  C47  1  0.08759176  0.73927902  0.44106424  1  0  0.536462  0  3.768095  0  0  0.512919  0  4.033087  0  0  0.537732  0  4.040726  0  0  0.252458  0.496188  0  4.02743  0
C  C48  1  0.45063291  0.68172917  0.81087984  1  0  -0.412936  0  3.682431  0  0  -0.493766  0  3.919807  0  0  -0.499282  0  3.923558  0  0  -0.239625  -0.489641  0  3.916729  0
C  C49  1  0.95063388  0.31826713  0.68911932  1  0  -0.413018  0  3.682257  0  0  -0.493835  0  3.919662  0  0  -0.499353  0  3.923413  0  0  -0.2396  -0.48971  0  3.916585  0
C  C50  1  0.54936565  0.31826751  0.18911934  1  0  -0.412944  0  3.682405  0  0  -0.493797  0  3.91978  0  0  -0.499314  0  3.923534  0  0  -0.239594  -0.489676  0  3.916699  0
C  C51  1  0.04935865  0.68173587  0.31088302  1  0  -0.41286  0  3.682326  0  0  -0.493646  0  3.919687  0  0  -0.499164  0  3.923439  0  0  -0.239516  -0.48953  0  3.916602  0
C  C52  1  0.32184522  0.92008707  0.11670105  1  0  0.687673  0  3.825465  0  0  0.633257  0  4.099471  0  0  0.663989  0  4.105012  0  0  0.350553  0.612516  0  4.095209  0
C  C53  1  0.82184703  0.07991464  0.38329914  1  0  0.687771  0  3.825371  0  0  0.633291  0  4.099461  0  0  0.664023  0  4.105004  0  0  0.350582  0.61255  0  4.095196  0
C  C54  1  0.67815695  0.07991169  0.88329650  1  0  0.687836  0  3.825263  0  0  0.63332  0  4.099435  0  0  0.664051  0  4.104975  0  0  0.350564  0.612577  0  4.095175  0
C  C55  1  0.17816599  0.92008832  0.61669998  1  0  0.687777  0  3.82542  0  0  0.633304  0  4.099538  0  0  0.664036  0  4.105075  0  0  0.350447  0.612561  0  4.095278  0
C  C56  1  0.38151647  0.24587902  0.50724620  1  0  0.652645  0  3.915223  0  0  0.6003  0  4.208745  0  0  0.634338  0  4.201179  0  0  0.20082  0.577634  0  4.212573  0
C  C57  1  0.88150975  0.75411897  0.99275118  1  0  0.652656  0  3.91526  0  0  0.600296  0  4.208798  0  0  0.634335  0  4.201227  0  0  0.200784  0.577631  0  4.21263  0
C  C58  1  0.61848570  0.75412291  0.49275414  1  0  0.652598  0  3.915252  0  0  0.600236  0  4.208798  0  0  0.634275  0  4.201229  0  0  0.200811  0.577571  0  4.212626  0
C  C59  1  0.11848399  0.24587979  0.00724718  1  0  0.652639  0  3.915125  0  0  0.600336  0  4.208589  0  0  0.634375  0  4.201018  0  0  0.200839  0.57767  0  4.21242  0
C  C60  1  0.58574233  0.44072169  0.56201505  1  0  -0.079551  0  3.759061  0  0  -0.101092  0  4.002983  0  0  -0.102667  0  4.024985  0  0  -0.090912  -0.10014  0  3.988363  0
C  C61  1  0.08574056  0.55927992  0.93798362  1  0  -0.079501  0  3.758976  0  0  -0.101061  0  4.002904  0  0  -0.102636  0  4.024904  0  0  -0.090892  -0.100108  0  3.988286  0
C  C62  1  0.41425984  0.55927918  0.43798490  1  0  -0.079522  0  3.758955  0  0  -0.101063  0  4.002871  0  0  -0.102639  0  4.024874  0  0  -0.090895  -0.100111  0  3.988248  0
C  C63  1  0.91425800  0.44072095  0.06201552  1  0  -0.079492  0  3.758958  0  0  -0.101058  0  4.002873  0  0  -0.102632  0  4.024874  0  0  -0.090883  -0.100106  0  3.988255  0
C  C64  1  0.44194348  0.37796724  0.50454619  1  0  -0.063802  0  3.749214  0  0  -0.038425  0  3.976412  0  0  -0.044747  0  3.998497  0  0  -0.019848  -0.034513  0  3.961735  0
C  C65  1  0.94194067  0.62203321  0.99545452  1  0  -0.063878  0  3.749189  0  0  -0.038505  0  3.976401  0  0  -0.044825  0  3.998482  0  0  -0.019895  -0.034593  0  3.961727  0
C  C66  1  0.55806110  0.62203257  0.49545256  1  0  -0.063756  0  3.749065  0  0  -0.038372  0  3.976277  0  0  -0.044694  0  3.998361  0  0  -0.019815  -0.034461  0  3.9616  0
C  C67  1  0.05805910  0.37796873  0.00454743  1  0  -0.063738  0  3.749047  0  0  -0.038384  0  3.976269  0  0  -0.044703  0  3.998351  0  0  -0.019834  -0.034472  0  3.961595  0
C  C68  1  0.35646310  0.43868920  0.44235598  1  0  -0.066609  0  3.729236  0  0  -0.087021  0  3.975268  0  0  -0.087792  0  3.995045  0  0  -0.087369  -0.086554  0  3.962179  0
C  C69  1  0.85646089  0.56130745  0.05764152  1  0  -0.066672  0  3.729175  0  0  -0.087046  0  3.975179  0  0  -0.087821  0  3.994953  0  0  -0.087413  -0.08658  0  3.962095  0
C  C70  1  0.64354028  0.56130956  0.55764157  1  0  -0.066671  0  3.729261  0  0  -0.08709  0  3.975298  0  0  -0.087863  0  3.995072  0  0  -0.087428  -0.086623  0  3.962211  0
C  C71  1  0.14353526  0.43869238  0.94235803  1  0  -0.06664  0  3.729121  0  0  -0.087061  0  3.97518  0  0  -0.087838  0  3.994954  0  0  -0.087385  -0.086595  0  3.962096  0
N  N72  1  0.36858424  0.84952773  0.17977051  1  0  -0.614021  0  3.100089  0  0  -0.530637  0  3.385745  0  0  -0.561359  0  3.390542  0  0  -0.366117  -0.510128  0  3.382147  0
N  N73  1  0.86858410  0.15047109  0.32022861  1  0  -0.614024  0  3.100156  0  0  -0.530611  0  3.385815  0  0  -0.561332  0  3.390611  0  0  -0.366106  -0.510104  0  3.382221  0
N  N74  1  0.63141432  0.15047208  0.82022824  1  0  -0.614082  0  3.100103  0  0  -0.53071  0  3.38582  0  0  -0.561433  0  3.390619  0  0  -0.366129  -0.5102  0  3.382224  0
N  N75  1  0.13142289  0.84953187  0.67976971  1  0  -0.614036  0  3.10004  0  0  -0.530667  0  3.385805  0  0  -0.561391  0  3.390605  0  0  -0.366074  -0.510155  0  3.382205  0
N  N76  1  0.45504871  0.66098550  0.99510162  1  0  -0.56542  0  2.984971  0  0  -0.512919  0  3.244778  0  0  -0.538263  0  3.252999  0  0  -0.337046  -0.495985  0  3.239128  0
N  N77  1  0.95504855  0.33901083  0.50489755  1  0  -0.565484  0  2.985023  0  0  -0.51298  0  3.244833  0  0  -0.538322  0  3.253054  0  0  -0.337057  -0.496046  0  3.239182  0
N  N78  1  0.54494985  0.33900909  0.00489758  1  0  -0.565417  0  2.985004  0  0  -0.512979  0  3.244814  0  0  -0.538324  0  3.253037  0  0  -0.337062  -0.496044  0  3.239164  0
N  N79  1  0.04494760  0.66099111  0.49510359  1  0  -0.565549  0  2.984869  0  0  -0.513039  0  3.244677  0  0  -0.538383  0  3.252898  0  0  -0.337074  -0.496105  0  3.239025  0
N  N80  1  0.46228008  0.63742760  0.16953366  1  0  -0.690592  0  3.087148  0  0  -0.646937  0  3.331873  0  0  -0.670399  0  3.324621  0  0  -0.565646  -0.630613  0  3.336466  0
N  N81  1  0.96228022  0.36257176  0.33046727  1  0  -0.690618  0  3.087131  0  0  -0.646971  0  3.331857  0  0  -0.670435  0  3.324607  0  0  -0.565679  -0.630648  0  3.336448  0
N  N82  1  0.53771968  0.36257118  0.83046630  1  0  -0.690612  0  3.087159  0  0  -0.646959  0  3.331871  0  0  -0.670421  0  3.324619  0  0  -0.565646  -0.630635  0  3.336465  0
N  N83  1  0.03772195  0.63743018  0.66953387  1  0  -0.690656  0  3.087076  0  0  -0.64697  0  3.331829  0  0  -0.670435  0  3.324577  0  0  -0.565667  -0.630648  0  3.33642  0
N  N84  1  0.33826274  0.86467527  0.99488350  1  0  -0.577776  0  3.147983  0  0  -0.500244  0  3.437153  0  0  -0.530672  0  3.443954  0  0  -0.370545  -0.479689  0  3.43219  0
N  N85  1  0.83826117  0.13532145  0.50511500  1  0  -0.577814  0  3.148049  0  0  -0.500242  0  3.437222  0  0  -0.53067  0  3.444023  0  0  -0.370497  -0.479686  0  3.432258  0
N  N86  1  0.66173582  0.13532454  0.00511525  1  0  -0.577881  0  3.14785  0  0  -0.500354  0  3.437089  0  0  -0.530782  0  3.44389  0  0  -0.370542  -0.479796  0  3.432127  0
N  N87  1  0.16174221  0.86467838  0.49488456  1  0  -0.57778  0  3.14804  0  0  -0.500237  0  3.43721  0  0  -0.530665  0  3.444008  0  0  -0.370455  -0.47968  0  3.432246  0
N  N88  1  0.25737452  0.04740377  0.17416141  1  0  -0.682795  0  3.080842  0  0  -0.64009  0  3.315717  0  0  -0.663201  0  3.308439  0  0  -0.560699  -0.624084  0  3.320499  0
N  N89  1  0.75737273  0.95259128  0.32583548  1  0  -0.682846  0  3.080786  0  0  -0.640127  0  3.315583  0  0  -0.66324  0  3.3083  0  0  -0.560725  -0.624125  0  3.320378  0
N  N90  1  0.74262645  0.95259605  0.82583734  1  0  -0.682828  0  3.080912  0  0  -0.640078  0  3.315811  0  0  -0.663189  0  3.308532  0  0  -0.560678  -0.624076  0  3.320606  0
N  N91  1  0.24263788  0.04740435  0.67416331  1  0  -0.682931  0  3.080909  0  0  -0.640196  0  3.315728  0  0  -0.663307  0  3.308442  0  0  -0.560679  -0.624191  0  3.320521  0
O  O92  1  0.28369535  0.17019198  0.42504119  1  0  -0.64124  0  2.063517  0  0  -0.573665  0  2.318696  0  0  -0.601443  0  2.307463  0  0  -0.332127  -0.554057  0  2.325302  0
O  O93  1  0.78368537  0.82980321  0.07495575  1  0  -0.641316  0  2.0635  0  0  -0.573735  0  2.31868  0  0  -0.601513  0  2.307445  0  0  -0.332131  -0.554124  0  2.325282  0
O  O94  1  0.71630442  0.82980996  0.57495995  1  0  -0.641244  0  2.063676  0  0  -0.573653  0  2.318856  0  0  -0.601431  0  2.307621  0  0  -0.332134  -0.554045  0  2.325464  0
O  O95  1  0.21630837  0.17019661  0.92504300  1  0  -0.641286  0  2.063494  0  0  -0.573722  0  2.318658  0  0  -0.601501  0  2.307422  0  0  -0.332144  -0.554113  0  2.325265  0
O  O96  1  0.43041958  0.21569581  0.59022706  1  0  -0.677395  0  2.02005  0  0  -0.614896  0  2.265697  0  0  -0.640571  0  2.252932  0  0  -0.328663  -0.597359  0  2.273612  0
O  O97  1  0.93041544  0.78430669  0.90977440  1  0  -0.677322  0  2.020075  0  0  -0.614819  0  2.265729  0  0  -0.640495  0  2.252962  0  0  -0.328625  -0.597285  0  2.273642  0
O  O98  1  0.56958501  0.78430611  0.40977166  1  0  -0.677353  0  2.019989  0  0  -0.614874  0  2.265663  0  0  -0.640551  0  2.252897  0  0  -0.328659  -0.597336  0  2.273576  0
O  O99  1  0.06958191  0.21569420  0.09022715  1  0  -0.677384  0  2.020025  0  0  -0.614901  0  2.265653  0  0  -0.640576  0  2.252888  0  0  -0.328667  -0.597364  0  2.273567  0
