# generated using pymatgen
data_Cu2H3C2SN4Cl
_symmetry_space_group_name_H-M   'P 1'
_cell_length_a   6.70604049
_cell_length_b   6.70604364
_cell_length_c   17.28924834
_cell_angle_alpha   78.95558969
_cell_angle_beta   78.95570723
_cell_angle_gamma   62.83973957
_symmetry_Int_Tables_number   1
_chemical_formula_structural   Cu2H3C2SN4Cl
_chemical_formula_sum   'Cu8 H12 C8 S4 N16 Cl4'
_cell_volume   674.12477344
_cell_formula_units_Z   4
loop_
 _symmetry_equiv_pos_site_id
 _symmetry_equiv_pos_as_xyz
  1  'x, y, z'
loop_
 _atom_site_type_symbol
 _atom_site_label
 _atom_site_symmetry_multiplicity
 _atom_site_fract_x
 _atom_site_fract_y
 _atom_site_fract_z
 _atom_site_occupancy
 _atom_site_hle17_bader_spin_density
 _atom_site_hle17_ddec_charge
 _atom_site_hle17_ddec_spin_density
 _atom_site_hle17_ddec_sum_bond_order
 _atom_site_hle17_magmom
 _atom_site_hse06_10hf_bader_spin_density
 _atom_site_hse06_10hf_ddec_charge
 _atom_site_hse06_10hf_ddec_spin_density
 _atom_site_hse06_10hf_ddec_sum_bond_order
 _atom_site_hse06_10hf_magmom
 _atom_site_hse06_bader_spin_density
 _atom_site_hse06_ddec_charge
 _atom_site_hse06_ddec_spin_density
 _atom_site_hse06_ddec_sum_bond_order
 _atom_site_hse06_magmom
 _atom_site_pbe_bader_spin_density
 _atom_site_pbe_cm5_charge
 _atom_site_pbe_ddec_charge
 _atom_site_pbe_ddec_spin_density
 _atom_site_pbe_ddec_sum_bond_order
 _atom_site_pbe_magmom
Cu  Cu0  1  0.41020954  0.86628633  0.68922869  1  0  0.3158  0  2.163998  0  0  0.201914  0  2.685692  0  0  0.198797  0  2.639669  0  0  0.461241  0.206627  0  2.715354  0
Cu  Cu1  1  0.13371351  0.58979188  0.81077169  1  0  0.315748  0  2.164044  0  0  0.201832  0  2.685761  0  0  0.198725  0  2.639725  0  0  0.461219  0.206551  0  2.715428  0
Cu  Cu2  1  0.58978995  0.13371282  0.31077115  1  0  0.315789  0  2.163978  0  0  0.20188  0  2.685685  0  0  0.198765  0  2.639658  0  0  0.461223  0.206595  0  2.715334  0
Cu  Cu3  1  0.86628527  0.41020896  0.18922808  1  0  0.31581  0  2.164024  0  0  0.201891  0  2.685738  0  0  0.198786  0  2.639712  0  0  0.461229  0.206612  0  2.715398  0
Cu  Cu4  1  0.25312535  0.02264622  0.49782338  1  0  0.411869  0  1.9516  0  0  0.306163  0  2.430964  0  0  0.305461  0  2.385769  0  0  0.454966  0.309032  0  2.460414  0
Cu  Cu5  1  0.97735807  0.74686896  0.00217622  1  0  0.411822  0  1.951591  0  0  0.306154  0  2.430949  0  0  0.305429  0  2.385796  0  0  0.454964  0.309032  0  2.460403  0
Cu  Cu6  1  0.74687415  0.97735293  0.50217704  1  0  0.411846  0  1.951559  0  0  0.306208  0  2.430918  0  0  0.30546  0  2.38575  0  0  0.454979  0.309065  0  2.46037  0
Cu  Cu7  1  0.02264520  0.25312847  0.99782463  1  0  0.411819  0  1.951554  0  0  0.306145  0  2.430919  0  0  0.305474  0  2.385786  0  0  0.454961  0.309021  0  2.460373  0
H  H8  1  0.70747996  0.55434395  0.55070929  1  0  0.130801  0  0.968853  0  0  0.142056  0  1.042103  0  0  0.14566  0  1.039456  0  0  0.085121  0.139255  0  1.044269  0
H  H9  1  0.44566309  0.29251627  0.94929119  1  0  0.130861  0  0.96879  0  0  0.142127  0  1.042034  0  0  0.145723  0  1.039394  0  0  0.085156  0.139325  0  1.0442  0
H  H10  1  0.29251657  0.44565859  0.44929053  1  0  0.130844  0  0.968793  0  0  0.142111  0  1.042037  0  0  0.145709  0  1.039396  0  0  0.08515  0.139312  0  1.044202  0
H  H11  1  0.55434170  0.70748114  0.05070897  1  0  0.130835  0  0.96884  0  0  0.142103  0  1.04208  0  0  0.1457  0  1.039439  0  0  0.085133  0.139301  0  1.044247  0
H  H12  1  0.66101905  0.34188315  0.62134680  1  0  0.139122  0  0.952748  0  0  0.156542  0  1.013673  0  0  0.157957  0  1.015178  0  0  0.090342  0.155442  0  1.012759  0
H  H13  1  0.65812367  0.33897675  0.87865148  1  0  0.13917  0  0.95281  0  0  0.156593  0  1.013715  0  0  0.158007  0  1.015218  0  0  0.090364  0.15549  0  1.012797  0
H  H14  1  0.33897676  0.65812108  0.37865410  1  0  0.139144  0  0.952756  0  0  0.156559  0  1.013685  0  0  0.157975  0  1.015188  0  0  0.090331  0.155457  0  1.012767  0
H  H15  1  0.34188193  0.66102233  0.12134676  1  0  0.139141  0  0.95277  0  0  0.156513  0  1.013748  0  0  0.157929  0  1.015251  0  0  0.090317  0.155414  0  1.012831  0
H  H16  1  0.94494907  0.30808756  0.58822174  1  0  0.121814  0  0.991411  0  0  0.131702  0  1.067849  0  0  0.135083  0  1.065953  0  0  0.080842  0.129136  0  1.069374  0
H  H17  1  0.69191673  0.05504794  0.91177792  1  0  0.121854  0  0.991333  0  0  0.131711  0  1.067806  0  0  0.135093  0  1.065908  0  0  0.080847  0.129143  0  1.06933  0
H  H18  1  0.05505043  0.69191159  0.41177868  1  0  0.121837  0  0.991403  0  0  0.131697  0  1.067863  0  0  0.135081  0  1.065961  0  0  0.080838  0.129133  0  1.069384  0
H  H19  1  0.30808878  0.94494778  0.08822173  1  0  0.121822  0  0.991444  0  0  0.131722  0  1.067862  0  0  0.135103  0  1.065967  0  0  0.080849  0.129158  0  1.069384  0
C  C20  1  0.93769791  0.68146293  0.65151826  1  0  0.249996  0  3.771728  0  0  0.23454  0  4.0555  0  0  0.244548  0  4.069236  0  0  0.207928  0.227416  0  4.047161  0
C  C21  1  0.31853057  0.06230763  0.84848200  1  0  0.249997  0  3.771705  0  0  0.234549  0  4.055475  0  0  0.24456  0  4.06921  0  0  0.207903  0.227425  0  4.047136  0
C  C22  1  0.06230239  0.31853789  0.34848198  1  0  0.250005  0  3.771618  0  0  0.234574  0  4.055353  0  0  0.244582  0  4.069093  0  0  0.207938  0.227445  0  4.047018  0
C  C23  1  0.68146596  0.93769492  0.15151781  1  0  0.249991  0  3.771742  0  0  0.234549  0  4.055497  0  0  0.24457  0  4.069218  0  0  0.207952  0.227422  0  4.04716  0
C  C24  1  0.76913906  0.42957543  0.60209889  1  0  -0.312308  0  3.575519  0  0  -0.380797  0  3.826253  0  0  -0.384519  0  3.830433  0  0  -0.234822  -0.377837  0  3.82362  0
C  C25  1  0.57043065  0.23086091  0.89790088  1  0  -0.312451  0  3.575498  0  0  -0.380913  0  3.826202  0  0  -0.384639  0  3.830406  0  0  -0.234869  -0.377954  0  3.823582  0
C  C26  1  0.23085908  0.57043045  0.39790171  1  0  -0.312394  0  3.575457  0  0  -0.380852  0  3.826169  0  0  -0.384575  0  3.830366  0  0  -0.234826  -0.377902  0  3.82356  0
C  C27  1  0.42957199  0.76914156  0.10209733  1  0  -0.312339  0  3.575537  0  0  -0.380801  0  3.826227  0  0  -0.384518  0  3.830419  0  0  -0.234802  -0.377856  0  3.823626  0
S  S28  1  0.74929553  0.56342718  0.68650189  1  0  0.072671  0  2.825772  0  0  0.078979  0  3.268163  0  0  0.085184  0  3.248342  0  0  -0.00175  0.074013  0  3.282032  0
S  S29  1  0.43657413  0.25070479  0.81349814  1  0  0.072673  0  2.8258  0  0  0.078982  0  3.268181  0  0  0.085185  0  3.248359  0  0  -0.001753  0.074016  0  3.282053  0
S  S30  1  0.25070406  0.43657533  0.31349827  1  0  0.072658  0  2.825765  0  0  0.07896  0  3.268137  0  0  0.085165  0  3.248316  0  0  -0.001774  0.073998  0  3.281998  0
S  S31  1  0.56342690  0.74929434  0.18650217  1  0  0.072627  0  2.825776  0  0  0.078939  0  3.268148  0  0  0.085135  0  3.248325  0  0  -0.001767  0.073974  0  3.282019  0
N  N32  1  0.07218902  0.68706666  0.69889148  1  0  -0.261461  0  3.280244  0  0  -0.215248  0  3.602521  0  0  -0.221549  0  3.603162  0  0  -0.27313  -0.211951  0  3.602894  0
N  N33  1  0.31292974  0.92781429  0.80110838  1  0  -0.26145  0  3.280205  0  0  -0.215252  0  3.60251  0  0  -0.221554  0  3.603145  0  0  -0.27313  -0.211953  0  3.602875  0
N  N34  1  0.92781128  0.31293416  0.30110818  1  0  -0.261455  0  3.280148  0  0  -0.215259  0  3.60242  0  0  -0.221563  0  3.603063  0  0  -0.273124  -0.211962  0  3.602793  0
N  N35  1  0.68706679  0.07218825  0.19889143  1  0  -0.2614  0  3.280175  0  0  -0.215206  0  3.602452  0  0  -0.221511  0  3.603086  0  0  -0.273133  -0.211906  0  3.602815  0
N  N36  1  0.19123775  0.79095395  0.65279391  1  0  -0.043108  0  3.25451  0  0  -0.000751  0  3.568143  0  0  0.004024  0  3.566003  0  0  -0.157921  -0.004801  0  3.570614  0
N  N37  1  0.20904434  0.80876359  0.84720653  1  0  -0.043156  0  3.25468  0  0  -0.000796  0  3.568325  0  0  0.003982  0  3.566178  0  0  -0.157954  -0.004845  0  3.570798  0
N  N38  1  0.80876480  0.20904516  0.34720571  1  0  -0.043158  0  3.254595  0  0  -0.000774  0  3.568222  0  0  0.004003  0  3.566077  0  0  -0.15792  -0.004822  0  3.570685  0
N  N39  1  0.79095362  0.19123557  0.15279343  1  0  -0.04318  0  3.254621  0  0  -0.000799  0  3.568231  0  0  0.003978  0  3.566093  0  0  -0.157923  -0.004846  0  3.5707  0
N  N40  1  0.13316437  0.84494786  0.58018643  1  0  -0.057337  0  3.237348  0  0  -0.017025  0  3.558142  0  0  -0.012068  0  3.554623  0  0  -0.157576  -0.021285  0  3.561549  0
N  N41  1  0.15505076  0.86683812  0.91981386  1  0  -0.057261  0  3.237446  0  0  -0.016958  0  3.558254  0  0  -0.011996  0  3.554736  0  0  -0.157552  -0.021221  0  3.561667  0
N  N42  1  0.86683737  0.15504959  0.41981280  1  0  -0.05724  0  3.237438  0  0  -0.016971  0  3.558264  0  0  -0.012005  0  3.554733  0  0  -0.157564  -0.021229  0  3.561665  0
N  N43  1  0.84494874  0.13316103  0.08018598  1  0  -0.05727  0  3.237442  0  0  -0.016972  0  3.558235  0  0  -0.012029  0  3.55475  0  0  -0.157553  -0.021236  0  3.561649  0
N  N44  1  0.96811792  0.78314984  0.57780947  1  0  -0.272371  0  3.217978  0  0  -0.220645  0  3.526133  0  0  -0.228284  0  3.529682  0  0  -0.272993  -0.216384  0  3.524518  0
N  N45  1  0.21684976  0.03188291  0.92219008  1  0  -0.272371  0  3.21798  0  0  -0.220663  0  3.526167  0  0  -0.228325  0  3.529758  0  0  -0.272975  -0.216405  0  3.524558  0
N  N46  1  0.03188085  0.21685100  0.42219088  1  0  -0.27243  0  3.218026  0  0  -0.220688  0  3.526162  0  0  -0.228338  0  3.529723  0  0  -0.273002  -0.216428  0  3.52455  0
N  N47  1  0.78315127  0.96811623  0.07780908  1  0  -0.2724  0  3.218046  0  0  -0.220672  0  3.526186  0  0  -0.228318  0  3.529744  0  0  -0.273014  -0.216414  0  3.524579  0
Cl  Cl48  1  0.40831970  0.15336484  0.58538480  1  0  -0.495473  0  1.449419  0  0  -0.417443  0  1.849316  0  0  -0.430281  0  1.812046  0  0  -0.282245  -0.40867  0  1.874213  0
Cl  Cl49  1  0.84663629  0.59168036  0.91461587  1  0  -0.495437  0  1.449454  0  0  -0.417379  0  1.849314  0  0  -0.430234  0  1.812067  0  0  -0.282237  -0.408612  0  1.874212  0
Cl  Cl50  1  0.59168051  0.84663263  0.41461512  1  0  -0.49546  0  1.449407  0  0  -0.417422  0  1.849289  0  0  -0.430262  0  1.812021  0  0  -0.282243  -0.408649  0  1.874179  0
Cl  Cl51  1  0.15336778  0.40831874  0.08538479  1  0  -0.495455  0  1.449424  0  0  -0.417409  0  1.849306  0  0  -0.430264  0  1.812057  0  0  -0.282238  -0.408641  0  1.874205  0
