# generated using pymatgen
data_Cd4H48C66O25
_symmetry_space_group_name_H-M   'P 1'
_cell_length_a   13.13449783
_cell_length_b   16.65464400
_cell_length_c   17.25360847
_cell_angle_alpha   114.45308701
_cell_angle_beta   101.97934043
_cell_angle_gamma   93.69208696
_symmetry_Int_Tables_number   1
_chemical_formula_structural   Cd4H48C66O25
_chemical_formula_sum   'Cd8 H96 C132 O50'
_cell_volume   3312.63824621
_cell_formula_units_Z   2
loop_
 _symmetry_equiv_pos_site_id
 _symmetry_equiv_pos_as_xyz
  1  'x, y, z'
loop_
 _atom_site_type_symbol
 _atom_site_label
 _atom_site_symmetry_multiplicity
 _atom_site_fract_x
 _atom_site_fract_y
 _atom_site_fract_z
 _atom_site_occupancy
 _atom_site_pbe_bader_charge
 _atom_site_pbe_bader_spin_density
 _atom_site_pbe_cm5_charge
 _atom_site_pbe_ddec_charge
 _atom_site_pbe_ddec_spin_density
 _atom_site_pbe_ddec_sum_bond_order
 _atom_site_pbe_magmom
Cd  Cd0  1  0.51470756  0.48052272  0.34375773  1  1.361409  0  0.774855  1.093058  0  2.164745  0
Cd  Cd1  1  0.48529009  0.51947909  0.65624548  1  1.361401  0  0.774848  1.093047  0  2.164768  0
Cd  Cd2  1  0.65884159  0.32604810  0.38243093  1  1.294765  0  0.748337  1.031647  0  2.185886  0
Cd  Cd3  1  0.34115736  0.67395239  0.61757195  1  1.294932  0  0.748337  1.031635  0  2.18586  0
Cd  Cd4  1  0.37593592  0.68302926  0.40432248  1  1.360193  0  0.772498  1.112113  0  2.054244  0
Cd  Cd5  1  0.62406041  0.31696986  0.59567832  1  1.360218  0  0.772505  1.11209  0  2.054224  0
Cd  Cd6  1  0.84980060  0.22016392  0.49673551  1  1.340706  0  0.760389  1.087709  0  2.031721  0
Cd  Cd7  1  0.15019955  0.77983516  0.50326121  1  1.340782  0  0.760408  1.087793  0  2.031696  0
H  H8  1  0.71122792  0.02931024  0.37704926  1  0.646471  0  0.304324  0.344738  0  0.982356  0
H  H9  1  0.28877194  0.97068690  0.62295187  1  0.646481  0  0.304384  0.344836  0  0.982186  0
H  H10  1  0.50699092  0.77182142  0.29442957  1  0.6504  0  0.302099  0.350107  0  0.975426  0
H  H11  1  0.49301712  0.22817377  0.70557143  1  0.650393  0  0.302074  0.349974  0  0.975423  0
H  H12  1  0.46421693  0.16131473  0.32348969  1  0.644225  0  0.297889  0.338887  0  1.006757  0
H  H13  1  0.53577986  0.83868703  0.67650932  1  0.644237  0  0.297896  0.338903  0  1.006761  0
H  H14  1  0.17418297  0.96074938  0.42248077  1  0.634416  0  0.30161  0.356867  0  0.96667  0
H  H15  1  0.82581881  0.03925379  0.57752301  1  0.634394  0  0.301618  0.356919  0  0.966586  0
H  H16  1  0.86741940  0.36952436  0.29219313  1  0.652342  0  0.299997  0.348964  0  0.985674  0
H  H17  1  0.13257688  0.63047472  0.70780475  1  0.653148  0  0.299989  0.349008  0  0.985647  0
H  H18  1  0.14498218  0.54924370  0.26882320  1  0.636552  0  0.299284  0.347014  0  0.986145  0
H  H19  1  0.85501448  0.45075738  0.73117552  1  0.636561  0  0.299249  0.346922  0  0.986245  0
H  H20  1  0.78274503  0.38452869  0.54740119  1  0.579978  0  0.29322  0.384334  0  0.91921  0
H  H21  1  0.21725566  0.61546907  0.45259625  1  0.580431  0  0.293207  0.384322  0  0.919319  0
H  H22  1  0.53252791  0.61426119  0.50490254  1  0.607152  0  0.307732  0.391311  0  0.910049  0
H  H23  1  0.46747178  0.38573928  0.49509812  1  0.607159  0  0.30775  0.391303  0  0.910093  0
H  H24  1  0.58045563  0.44225534  0.50909985  1  0.633157  0  0.27318  0.400179  0  0.951608  0
H  H25  1  0.41954354  0.55774243  0.49089911  1  0.633163  0  0.273218  0.400289  0  0.951442  0
H  H26  1  0.69110977  0.51484362  0.48796744  1  0.60186  0  0.305256  0.398088  0  0.893468  0
H  H27  1  0.30888800  0.48515484  0.51203331  1  0.601823  0  0.305257  0.398115  0  0.893454  0
H  H28  1  0.51217332  0.85053301  0.54904579  1  0.643026  0  0.314177  0.40856  0  0.892871  0
H  H29  1  0.48782440  0.14946943  0.45095478  1  0.642798  0  0.314172  0.408539  0  0.892899  0
H  H30  1  0.39423526  0.84806986  0.55057108  1  0.627372  0  0.293849  0.391734  0  0.943698  0
H  H31  1  0.60576301  0.15193127  0.44943080  1  0.627374  0  0.293827  0.391658  0  0.943761  0
H  H32  1  0.83442993  0.24538302  0.34707823  1  0.620701  0  0.293606  0.371503  0  0.974908  0
H  H33  1  0.16557156  0.75461477  0.65292050  1  0.620708  0  0.293613  0.371529  0  0.974866  0
H  H34  1  0.95354389  0.24158399  0.36440672  1  0.639398  0  0.301803  0.384531  0  0.925287  0
H  H35  1  0.04645954  0.75841984  0.63559524  1  0.639318  0  0.301859  0.384612  0  0.92517  0
H  H36  1  0.99953631  0.33047742  0.66033233  1  0.615755  0  0.309827  0.394314  0  0.924414  0
H  H37  1  0.00046065  0.66952101  0.33966714  1  0.615662  0  0.309824  0.394341  0  0.924383  0
H  H38  1  0.06516368  0.26994659  0.60371169  1  0.616968  0  0.332615  0.4188  0  0.854347  0
H  H39  1  0.93483754  0.73005387  0.39628805  1  0.616969  0  0.332618  0.418805  0  0.854359  0
H  H40  1  0.96536671  0.08086346  0.37237007  1  0.6196  0  0.300636  0.38382  0  0.932496  0
H  H41  1  0.03462998  0.91913363  0.62762767  1  0.619557  0  0.300666  0.383865  0  0.932456  0
H  H42  1  0.87807698  0.03572551  0.39704343  1  0.640199  0  0.305405  0.392971  0  0.921395  0
H  H43  1  0.12191881  0.96427091  0.60295449  1  0.64026  0  0.30544  0.393017  0  0.921341  0
H  H44  1  0.62076988  0.06688697  0.13214452  1  0.07488  0  0.106424  0.110094  0  1.012035  0
H  H45  1  0.37923128  0.93310885  0.86785629  1  0.074747  0  0.106474  0.110154  0  1.012181  0
H  H46  1  0.56588830  0.96179818  0.97283093  1  0.058059  0  0.097715  0.092139  0  1.046998  0
H  H47  1  0.43411164  0.03820362  0.02717029  1  0.057814  0  0.097715  0.092125  0  1.047016  0
H  H48  1  0.52306807  0.80597908  0.85418442  1  0.089865  0  0.098247  0.106945  0  1.007631  0
H  H49  1  0.47693548  0.19402139  0.14581508  1  0.089807  0  0.098262  0.106961  0  1.007665  0
H  H50  1  0.55078683  0.67874619  0.89197936  1  0.081216  0  0.101877  0.107256  0  1.017701  0
H  H51  1  0.44921666  0.32125424  0.10801722  1  0.08149  0  0.10185  0.107203  0  1.01779  0
H  H52  1  0.62616706  0.70597228  0.04652396  1  0.077085  0  0.102111  0.104135  0  1.0113  0
H  H53  1  0.37384123  0.29402424  0.95347702  1  0.077172  0  0.102159  0.104199  0  1.011322  0
H  H54  1  0.75294854  0.59887783  0.28052678  1  0.100324  0  0.099925  0.107497  0  1.027384  0
H  H55  1  0.24705445  0.40111934  0.71947541  1  0.100416  0  0.09993  0.107516  0  1.02743  0
H  H56  1  0.90959729  0.58116465  0.21737141  1  0.084648  0  0.09906  0.099152  0  1.05124  0
H  H57  1  0.09040543  0.41883520  0.78263178  1  0.084534  0  0.099046  0.099115  0  1.051222  0
H  H58  1  0.03954596  0.64133566  0.16201439  1  0.072024  0  0.097655  0.099499  0  1.036178  0
H  H59  1  0.96045031  0.35865880  0.83798690  1  0.07202  0  0.09767  0.099506  0  1.036151  0
H  H60  1  0.00940364  0.77086134  0.12666958  1  0.093383  0  0.098623  0.100198  0  1.014651  0
H  H61  1  0.99060208  0.22912983  0.87332950  1  0.093339  0  0.098625  0.1002  0  1.014746  0
H  H62  1  0.85052999  0.83922797  0.14742673  1  0.057022  0  0.094144  0.092296  0  1.047038  0
H  H63  1  0.14947429  0.16077247  0.85257055  1  0.056985  0  0.094177  0.092377  0  1.047022  0
H  H64  1  0.19912805  0.30418940  0.28941583  1  0.11555  0  0.106391  0.11509  0  1.007579  0
H  H65  1  0.80087226  0.69581038  0.71058351  1  0.115555  0  0.106401  0.115085  0  1.007548  0
H  H66  1  0.00576945  0.25833695  0.23650915  1  0.120412  0  0.102926  0.11567  0  1.046822  0
H  H67  1  0.99422827  0.74166148  0.76348926  1  0.120423  0  0.102947  0.115674  0  1.046798  0
H  H68  1  0.84629397  0.14549549  0.19215502  1  0.09177  0  0.100508  0.108053  0  1.002861  0
H  H69  1  0.15370599  0.85450230  0.80784464  1  0.076678  0  0.100507  0.10804  0  1.002898  0
H  H70  1  0.86430882  0.99744806  0.19289400  1  0.075835  0  0.095704  0.090785  0  1.045652  0
H  H71  1  0.13569217  0.00255107  0.80710634  1  0.075854  0  0.09569  0.09078  0  1.045651  0
H  H72  1  0.04065958  0.95930729  0.23097851  1  0.08994  0  0.101903  0.104118  0  1.031742  0
H  H73  1  0.95934364  0.04069523  0.76902581  1  0.090162  0  0.101886  0.104122  0  1.031765  0
H  H74  1  0.28173241  0.73153025  0.22795548  1  0.084775  0  0.105208  0.107857  0  1.010764  0
H  H75  1  0.71827147  0.26846759  0.77204653  1  0.084852  0  0.105218  0.107897  0  1.01073  0
H  H76  1  0.34323862  0.70634938  0.09687354  1  0.084476  0  0.096877  0.093955  0  1.044119  0
H  H77  1  0.65676588  0.29365179  0.90312870  1  0.084222  0  0.096851  0.093915  0  1.044161  0
H  H78  1  0.37859582  0.75855420  0.98761626  1  0.080484  0  0.092454  0.092277  0  1.043761  0
H  H79  1  0.62141025  0.24145101  0.01238954  1  0.080743  0  0.092436  0.092265  0  1.043747  0
H  H80  1  0.35353263  0.91198080  0.00770244  1  0.038236  0  0.091913  0.082367  0  1.033182  0
H  H81  1  0.64647071  0.08802238  0.99230157  1  0.038152  0  0.091932  0.082443  0  1.033197  0
H  H82  1  0.29623719  0.01436530  0.13539203  1  0.051054  0  0.095413  0.093172  0  1.027945  0
H  H83  1  0.70376730  0.98563587  0.86461021  1  0.050981  0  0.0954  0.093167  0  1.02795  0
H  H84  1  0.61013322  0.44037743  0.13309150  1  0.075884  0  0.109601  0.115266  0  0.992711  0
H  H85  1  0.38986574  0.55961962  0.86690309  1  0.075999  0  0.109564  0.115201  0  0.99275  0
H  H86  1  0.60054645  0.48628199  0.01350038  1  0.033278  0  0.099078  0.096272  0  1.006125  0
H  H87  1  0.39945645  0.51371571  0.98649041  1  0.033144  0  0.0991  0.096284  0  1.006021  0
H  H88  1  0.67926091  0.50379116  0.90085024  1  0.067821  0  0.095632  0.103887  0  1.025155  0
H  H89  1  0.32074580  0.49621397  0.09914809  1  0.067544  0  0.095674  0.103977  0  1.025119  0
H  H90  1  0.85783851  0.46402964  0.88997891  1  0.055343  0  0.095024  0.087454  0  1.056867  0
H  H91  1  0.14217422  0.53597824  0.11002487  1  0.055587  0  0.095058  0.087409  0  1.05676  0
H  H92  1  0.95781624  0.40940455  0.99040266  1  0.079506  0  0.099322  0.100073  0  1.032578  0
H  H93  1  0.04218900  0.59060465  0.00960284  1  0.079543  0  0.099353  0.100088  0  1.032479  0
H  H94  1  0.29116946  0.31361523  0.14215487  1  0.09849  0  0.103456  0.105041  0  1.039758  0
H  H95  1  0.70882644  0.68638587  0.85784490  1  0.098411  0  0.103451  0.105008  0  1.039722  0
H  H96  1  0.22376118  0.15525065  0.04734989  1  0.081096  0  0.094446  0.093821  0  1.039207  0
H  H97  1  0.77623182  0.84475174  0.95264821  1  0.080986  0  0.09442  0.093788  0  1.039219  0
H  H98  1  0.07105730  0.03056728  0.96025047  1  0.081538  0  0.09561  0.099287  0  1.023977  0
H  H99  1  0.92893577  0.96943574  0.03974441  1  0.08118  0  0.09561  0.099223  0  1.024089  0
H  H100  1  0.88809402  0.06433209  0.94235232  1  0.09502  0  0.094065  0.088308  0  1.044236  0
H  H101  1  0.11189802  0.93567016  0.05763515  1  0.094545  0  0.094048  0.088314  0  1.044237  0
H  H102  1  0.85443327  0.21851917  0.01294385  1  0.067294  0  0.092805  0.093106  0  1.068891  0
H  H103  1  0.14556436  0.78148724  0.98705479  1  0.067291  0  0.092766  0.093025  0  1.068903  0
C  C104  1  0.67469830  0.86670011  0.19004800  1  0.096533  0  -0.014792  -0.062067  0  3.956691  0
C  C105  1  0.32530571  0.13329438  0.80995214  1  0.096642  0  -0.014849  -0.062126  0  3.956765  0
C  C106  1  0.68871115  0.95327811  0.25617377  1  0.498181  0  0.090043  0.254354  0  4.018392  0
C  C107  1  0.31128950  0.04671904  0.74382806  1  0.498105  0  0.089957  0.254186  0  4.018544  0
C  C108  1  0.66827218  0.02640112  0.23485127  1  -0.086095  0  -0.036449  -0.177191  0  4.025292  0
C  C109  1  0.33172512  0.97359469  0.76515070  1  -0.086039  0  -0.036416  -0.177029  0  4.024947  0
C  C110  1  0.63496496  0.01042539  0.14716031  1  0.014499  0  -0.074138  -0.105615  0  3.94714  0
C  C111  1  0.36502964  0.98956840  0.85284104  1  0.014603  0  -0.074203  -0.105789  0  3.947334  0
C  C112  1  0.57837612  0.90553569  0.98857968  1  -0.119031  0  -0.089639  -0.132945  0  3.99428  0
C  C113  1  0.42162089  0.09446680  0.01142486  1  -0.118622  0  -0.0896  -0.132915  0  3.994232  0
C  C114  1  0.55501931  0.81920378  0.92274998  1  -0.060215  0  -0.098914  -0.097081  0  4.013917  0
C  C115  1  0.44498325  0.18079537  0.07725118  1  -0.060385  0  -0.098982  -0.097133  0  4.014086  0
C  C116  1  0.57167569  0.74687967  0.94443758  1  -0.114254  0  -0.085077  -0.069397  0  3.998852  0
C  C117  1  0.42832933  0.25312017  0.05556422  1  -0.11465  0  -0.085044  -0.069294  0  3.998812  0
C  C118  1  0.61281012  0.76192794  0.03052478  1  0.017618  0  -0.085749  -0.122911  0  3.955442  0
C  C119  1  0.38719721  0.23807189  0.96947562  1  0.01787  0  -0.085724  -0.123027  0  3.955467  0
C  C120  1  0.63631289  0.85000762  0.10028709  1  -0.03412  0  0.006706  0.056355  0  3.95634  0
C  C121  1  0.36368690  0.14998889  0.89971668  1  -0.034386  0  0.00668  0.056487  0  3.956381  0
C  C122  1  0.61734665  0.92326919  0.07846946  1  0.063828  0  -0.01237  0.054938  0  4.02672  0
C  C123  1  0.38264866  0.07672859  0.92153124  1  0.06387  0  -0.012348  0.054989  0  4.026695  0
C  C124  1  0.69795738  0.79303921  0.21456934  1  -0.014105  0  -0.025086  -0.086827  0  3.967602  0
C  C125  1  0.30204868  0.20695796  0.78543098  1  -0.014049  0  -0.025077  -0.086883  0  3.967667  0
C  C126  1  0.62968465  0.76351831  0.25331539  1  0.537446  0  0.092545  0.267523  0  4.038503  0
C  C127  1  0.37032118  0.23648156  0.74668827  1  0.537215  0  0.092497  0.267415  0  4.038636  0
C  C128  1  0.65125846  0.69326206  0.27890015  1  -0.008492  0  -0.039476  -0.176745  0  3.994458  0
C  C129  1  0.34873971  0.30673439  0.72109988  1  -0.0079  0  -0.039434  -0.176691  0  3.994383  0
C  C130  1  0.73876231  0.65324444  0.26220908  1  -0.043385  0  -0.086922  -0.131027  0  3.999518  0
C  C131  1  0.26123819  0.34675203  0.73779130  1  -0.043476  0  -0.086963  -0.131025  0  3.999607  0
C  C132  1  0.89867026  0.64010121  0.20571368  1  -0.122395  0  -0.099088  -0.160746  0  4.030431  0
C  C133  1  0.10133264  0.35989934  0.79429330  1  -0.122485  0  -0.099146  -0.160744  0  4.03026  0
C  C134  1  0.97013548  0.67237576  0.17283505  1  -0.033497  0  -0.100381  -0.091194  0  4.01694  0
C  C135  1  0.02986507  0.32762477  0.82717040  1  -0.033179  0  -0.100296  -0.091073  0  4.016531  0
C  C136  1  0.95289041  0.74570738  0.15300921  1  -0.040608  0  -0.090384  -0.065859  0  3.994544  0
C  C137  1  0.04711564  0.25428977  0.84698994  1  -0.040444  0  -0.090373  -0.065888  0  3.994535  0
C  C138  1  0.86425292  0.78445590  0.16520052  1  -0.05545  0  -0.096574  -0.137554  0  3.969035  0
C  C139  1  0.13575193  0.21553921  0.83479592  1  -0.055536  0  -0.096695  -0.137771  0  3.969256  0
C  C140  1  0.78948102  0.75389389  0.20043798  1  0.007201  0  -0.003738  0.052077  0  3.978937  0
C  C141  1  0.21052050  0.24610392  0.79956250  1  0.007222  0  -0.003737  0.052152  0  3.978979  0
C  C142  1  0.80883515  0.68112644  0.22284854  1  -0.009668  0  -0.023304  0.04353  0  4.048569  0
C  C143  1  0.19116559  0.31887538  0.77715397  1  -0.00967  0  -0.023261  0.043533  0  4.048533  0
C  C144  1  0.68458648  0.11836684  0.30527462  1  1.481117  0  0.213197  0.597055  0  4.161639  0
C  C145  1  0.31541338  0.88162628  0.69472378  1  1.481249  0  0.213184  0.597061  0  4.161647  0
C  C146  1  0.58218259  0.66199548  0.32325449  1  1.505778  0  0.212398  0.620915  0  4.164403  0
C  C147  1  0.41781936  0.33800436  0.67674917  1  1.505356  0  0.21239  0.620909  0  4.16436  0
C  C148  1  0.22941360  0.06605007  0.27583766  1  0.036864  0  -0.017602  -0.062373  0  3.967919  0
C  C149  1  0.77058598  0.93394974  0.72416389  1  0.037069  0  -0.017611  -0.062499  0  3.967914  0
C  C150  1  0.31746413  0.13091520  0.30087641  1  0.484893  0  0.085021  0.246139  0  4.037241  0
C  C151  1  0.68253319  0.86908522  0.69912215  1  0.484561  0  0.085075  0.246259  0  4.037351  0
C  C152  1  0.30705109  0.21841572  0.30652665  1  -0.021195  0  -0.040046  -0.179375  0  4.017943  0
C  C153  1  0.69294863  0.78158132  0.69346688  1  -0.020967  0  -0.040215  -0.179696  0  4.018333  0
C  C154  1  0.20703472  0.23846495  0.28693001  1  -0.059815  0  -0.076128  -0.105303  0  3.960576  0
C  C155  1  0.79296310  0.76153414  0.71306752  1  -0.060311  0  -0.076042  -0.105045  0  3.960502  0
C  C156  1  0.01336806  0.19375905  0.23717206  1  -0.101563  0  -0.091379  -0.137758  0  3.978541  0
C  C157  1  0.98663085  0.80624140  0.76282848  1  -0.101547  0  -0.091388  -0.137707  0  3.978555  0
C  C158  1  0.92448533  0.13088008  0.21246106  1  -0.062703  0  -0.103729  -0.112793  0  4.040928  0
C  C159  1  0.07551421  0.86911970  0.78753815  1  -0.047616  0  -0.103729  -0.112817  0  4.041023  0
C  C160  1  0.93495316  0.04667472  0.21249681  1  -0.141398  0  -0.096535  -0.099234  0  4.054147  0
C  C161  1  0.06504547  0.95332438  0.78750200  1  -0.141361  0  -0.096522  -0.099225  0  4.054137  0
C  C162  1  0.03346335  0.02538563  0.23415282  1  -0.03512  0  -0.090948  -0.137329  0  3.979336  0
C  C163  1  0.96653519  0.97461685  0.76585021  1  -0.035385  0  -0.090933  -0.137341  0  3.979292  0
C  C164  1  0.12687166  0.08791882  0.25816063  1  -0.001127  0  0.000529  0.056648  0  3.959606  0
C  C165  1  0.87312930  0.91208029  0.74183796  1  -0.001111  0  0.000539  0.056756  0  3.959613  0
C  C166  1  0.11578296  0.17468154  0.26180716  1  0.00665  0  -0.016356  0.054233  0  4.024312  0
C  C167  1  0.88421658  0.82531825  0.73819264  1  0.007126  0  -0.016395  0.05406  0  4.024367  0
C  C168  1  0.24493685  0.97430437  0.26279351  1  0.018458  0  -0.026617  -0.094137  0  3.975465  0
C  C169  1  0.75506174  0.02569815  0.73721244  1  0.018381  0  -0.026578  -0.093961  0  3.975381  0
C  C170  1  0.22219968  0.94239899  0.32131669  1  0.523273  0  0.08875  0.259135  0  4.05486  0
C  C171  1  0.77780092  0.05760215  0.67868495  1  0.523368  0  0.088697  0.259105  0  4.054825  0
C  C172  1  0.23662591  0.85352026  0.30874554  1  -0.05972  0  -0.040132  -0.18078  0  4.026876  0
C  C173  1  0.76337524  0.14647957  0.69125684  1  -0.059747  0  -0.040099  -0.180864  0  4.02684  0
C  C174  1  0.27273468  0.79944696  0.23765558  1  0.026175  0  -0.071048  -0.093342  0  3.941239  0
C  C175  1  0.72726624  0.20055154  0.76234740  1  0.026037  0  -0.071131  -0.093481  0  3.941407  0
C  C176  1  0.33261687  0.77329171  0.10438739  1  -0.049797  0  -0.082801  -0.10392  0  3.96284  0
C  C177  1  0.66738661  0.22671215  0.89561749  1  -0.049336  0  -0.08275  -0.103792  0  3.962813  0
C  C178  1  0.35260607  0.80234264  0.04424816  1  -0.038152  0  -0.100541  -0.097357  0  4.021284  0
C  C179  1  0.64739648  0.19766053  0.95575516  1  -0.038974  0  -0.100518  -0.097424  0  4.021376  0
C  C180  1  0.33876688  0.88994243  0.05629487  1  -0.01738  0  -0.090196  -0.067453  0  4.014857  0
C  C181  1  0.66123130  0.11005806  0.94370848  1  -0.016734  0  -0.090204  -0.067515  0  4.014724  0
C  C182  1  0.30611048  0.94710308  0.12748080  1  -0.064235  0  -0.097254  -0.140211  0  3.986615  0
C  C183  1  0.69389001  0.05289741  0.87252173  1  -0.064542  0  -0.097274  -0.140174  0  3.986481  0
C  C184  1  0.28291144  0.91874815  0.19012240  1  0.015146  0  0.004649  0.066919  0  3.95126  0
C  C185  1  0.71709113  0.08125101  0.80987935  1  0.015293  0  0.004579  0.066725  0  3.951426  0
C  C186  1  0.29653142  0.82958004  0.17734195  1  -0.000279  0  -0.011506  0.058962  0  4.010002  0
C  C187  1  0.70347645  0.17042249  0.82266133  1  -0.000301  0  -0.011436  0.059094  0  4.009984  0
C  C188  1  0.40222847  0.28642513  0.33129023  1  1.501592  0  0.210283  0.596301  0  4.178884  0
C  C189  1  0.59777234  0.71357733  0.66870965  1  1.501514  0  0.210321  0.596383  0  4.178831  0
C  C190  1  0.21302389  0.81825094  0.36981230  1  1.490424  0  0.202753  0.593469  0  4.193624  0
C  C191  1  0.78697710  0.18175221  0.63019078  1  1.490224  0  0.202834  0.593633  0  4.193611  0
C  C192  1  0.89537117  0.38857295  0.12226211  1  0.044453  0  -0.019078  -0.075042  0  3.963157  0
C  C193  1  0.10462588  0.61142613  0.87773530  1  0.044658  0  -0.019074  -0.075241  0  3.963201  0
C  C194  1  0.85255056  0.38564019  0.18862901  1  0.516514  0  0.090813  0.260225  0  4.034539  0
C  C195  1  0.14744739  0.61435956  0.81136822  1  0.516445  0  0.090856  0.260365  0  4.034465  0
C  C196  1  0.74677024  0.40161172  0.19050729  1  -0.037692  0  -0.039222  -0.18077  0  4.027076  0
C  C197  1  0.25322342  0.59838598  0.80948792  1  -0.037301  0  -0.03924  -0.180848  0  4.027113  0
C  C198  1  0.68989341  0.42734328  0.12996097  1  -0.006429  0  -0.072777  -0.108216  0  3.971544  0
C  C199  1  0.31010773  0.57265712  0.87003468  1  -0.006576  0  -0.072721  -0.108085  0  3.971332  0
C  C200  1  0.67846845  0.46945630  0.00761385  1  -0.052491  0  -0.08682  -0.119366  0  3.991456  0
C  C201  1  0.32153411  0.53054344  0.99238117  1  -0.052774  0  -0.086883  -0.119352  0  3.991279  0
C  C202  1  0.72211733  0.47903269  0.94529891  1  -0.0241  0  -0.100512  -0.09796  0  4.017725  0
C  C203  1  0.27788651  0.52096570  0.05469403  1  -0.023724  0  -0.100574  -0.098133  0  4.017847  0
C  C204  1  0.82338234  0.45639522  0.93928782  1  -0.005932  0  -0.090122  -0.069832  0  4.006831  0
C  C205  1  0.17662134  0.54360650  0.06070583  1  -0.005837  0  -0.090147  -0.069766  0  4.006808  0
C  C206  1  0.87948510  0.42557888  0.99519730  1  -0.071861  0  -0.091772  -0.13214  0  3.958626  0
C  C207  1  0.12051807  0.57442361  0.00480410  1  -0.072006  0  -0.091763  -0.132124  0  3.958666  0
C  C208  1  0.83740861  0.41609320  0.06102258  1  -0.015167  0  0.003491  0.057634  0  3.968279  0
C  C209  1  0.16258996  0.58390989  0.93897605  1  -0.01495  0  0.003457  0.057713  0  3.968266  0
C  C210  1  0.73386537  0.43791956  0.06638649  1  -0.006224  0  -0.012215  0.052228  0  4.029425  0
C  C211  1  0.26613422  0.56208486  0.93361165  1  -0.006333  0  -0.012201  0.052146  0  4.029275  0
C  C212  1  0.00344858  0.36665473  0.12226687  1  0.030239  0  -0.022252  -0.08048  0  3.961204  0
C  C213  1  0.99654759  0.63334771  0.87773404  1  0.030044  0  -0.022155  -0.080315  0  3.961096  0
C  C214  1  0.08956729  0.43268286  0.17905641  1  0.503746  0  0.085357  0.251503  0  4.048685  0
C  C215  1  0.91042960  0.56731955  0.82094171  1  0.503904  0  0.08531  0.251477  0  4.048604  0
C  C216  1  0.19485193  0.41330525  0.18460739  1  0.069438  0  -0.039736  -0.187642  0  4.04005  0
C  C217  1  0.80514603  0.58669451  0.81539101  1  0.069418  0  -0.039763  -0.187684  0  4.040121  0
C  C218  1  0.21080466  0.32745329  0.13589485  1  -0.137262  0  -0.075738  -0.103942  0  3.970571  0
C  C219  1  0.78919264  0.67254713  0.86410312  1  -0.136024  0  -0.075748  -0.103904  0  3.970526  0
C  C220  1  0.14271558  0.16816761  0.03959264  1  -0.100708  0  -0.090254  -0.1174  0  3.978235  0
C  C221  1  0.85727660  0.83183474  0.96040243  1  -0.100301  0  -0.090141  -0.117271  0  3.978027  0
C  C222  1  0.05848822  0.09952695  0.99132310  1  -0.039278  0  -0.10222  -0.098874  0  4.029507  0
C  C223  1  0.94150716  0.90047607  0.00867097  1  -0.039984  0  -0.102229  -0.098736  0  4.029351  0
C  C224  1  0.95444143  0.11881444  0.98156610  1  -0.130229  0  -0.092058  -0.070078  0  4.012431  0
C  C225  1  0.04555080  0.88118796  0.01843247  1  -0.129496  0  -0.092117  -0.07027  0  4.012492  0
C  C226  1  0.93520399  0.20524770  0.02086432  1  0.018884  0  -0.097444  -0.141755  0  3.9716  0
C  C227  1  0.06479042  0.79475402  0.97913257  1  0.019236  0  -0.09735  -0.141543  0  3.971497  0
C  C228  1  0.02004662  0.27753799  0.07396621  1  -0.056499  0  0.000678  0.052406  0  3.96493  0
C  C229  1  0.97995018  0.72246377  0.92603337  1  -0.056991  0  0.00069  0.052383  0  3.965078  0
C  C230  1  0.12571166  0.25772258  0.08192502  1  0.034797  0  -0.015936  0.054816  0  4.02993  0
C  C231  1  0.87428234  0.74228113  0.91807201  1  0.034232  0  -0.01602  0.05466  0  4.029988  0
C  C232  1  0.69761702  0.38917537  0.25511096  1  1.523989  0  0.209171  0.601257  0  4.169692  0
C  C233  1  0.30237286  0.61082297  0.74488335  1  1.523369  0  0.209185  0.601424  0  4.169154  0
C  C234  1  0.28754250  0.48194933  0.24509651  1  1.509147  0  0.214078  0.610727  0  4.182783  0
C  C235  1  0.71245365  0.51804908  0.75490051  1  1.509287  0  0.214088  0.610723  0  4.183036  0
O  O236  1  0.69184526  0.18504969  0.28749894  1  -1.171881  0  -0.318251  -0.558812  0  2.261581  0
O  O237  1  0.30815993  0.81494683  0.71250274  1  -1.172194  0  -0.31819  -0.558762  0  2.26178  0
O  O238  1  0.69397401  0.12765445  0.38539156  1  -1.183735  0  -0.326162  -0.603913  0  2.34538  0
O  O239  1  0.30601903  0.87233532  0.61460740  1  -1.183758  0  -0.326149  -0.603994  0  2.345557  0
O  O240  1  0.72561275  0.96782909  0.34164129  1  -1.155591  0  -0.351036  -0.446062  0  2.315766  0
O  O241  1  0.27439213  0.03217006  0.65835906  1  -1.155459  0  -0.35109  -0.446143  0  2.315722  0
O  O242  1  0.60966881  0.60406752  0.34930160  1  -1.176636  0  -0.33999  -0.583461  0  2.26484  0
O  O243  1  0.39033718  0.39593706  0.65070684  1  -1.176619  0  -0.339998  -0.58347  0  2.264913  0
O  O244  1  0.49810903  0.69803477  0.33327448  1  -1.15919  0  -0.325387  -0.586438  0  2.284995  0
O  O245  1  0.50189449  0.30196509  0.66673000  1  -1.159239  0  -0.325362  -0.586411  0  2.285005  0
O  O246  1  0.54399976  0.80241329  0.26600958  1  -1.156617  0  -0.345715  -0.427844  0  2.325628  0
O  O247  1  0.45600476  0.19758388  0.73399167  1  -1.156692  0  -0.345686  -0.427677  0  2.325581  0
O  O248  1  0.39468526  0.36745130  0.35207065  1  -1.162931  0  -0.318611  -0.553009  0  2.217445  0
O  O249  1  0.60531133  0.63254916  0.64793071  1  -1.162833  0  -0.318603  -0.553034  0  2.217483  0
O  O250  1  0.49130998  0.25609468  0.33126960  1  -1.167004  0  -0.333289  -0.587258  0  2.376725  0
O  O251  1  0.50869019  0.74390844  0.66873103  1  -1.167017  0  -0.333286  -0.58722  0  2.376541  0
O  O252  1  0.41489378  0.10984046  0.32036245  1  -1.167816  0  -0.352572  -0.456062  0  2.343421  0
O  O253  1  0.58510629  0.89016202  0.67963964  1  -1.167904  0  -0.352592  -0.456114  0  2.343553  0
O  O254  1  0.22589173  0.73931737  0.35825990  1  -1.191829  0  -0.341302  -0.603998  0  2.294811  0
O  O255  1  0.77411088  0.26068584  0.64174633  1  -1.191536  0  -0.341338  -0.604061  0  2.29494  0
O  O256  1  0.17686428  0.86890483  0.43484703  1  -1.150338  0  -0.322564  -0.559281  0  2.226585  0
O  O257  1  0.82313499  0.13109763  0.56515378  1  -1.150346  0  -0.322629  -0.559358  0  2.226541  0
O  O258  1  0.18623763  0.99668056  0.38961010  1  -1.157241  0  -0.358966  -0.450772  0  2.293195  0
O  O259  1  0.81376299  0.00332059  0.61039272  1  -1.157168  0  -0.358926  -0.450784  0  2.293175  0
O  O260  1  0.59907835  0.38694565  0.24730430  1  -1.196387  0  -0.326061  -0.578838  0  2.297684  0
O  O261  1  0.40091615  0.61305670  0.75268996  1  -1.196281  0  -0.326032  -0.578922  0  2.297605  0
O  O262  1  0.75923552  0.37769114  0.31777828  1  -1.155176  0  -0.328637  -0.563082  0  2.309402  0
O  O263  1  0.24075129  0.62230721  0.68221848  1  -1.15507  0  -0.328678  -0.563105  0  2.308996  0
O  O264  1  0.91253408  0.36663764  0.25060475  1  -1.172058  0  -0.349938  -0.441434  0  2.344983  0
O  O265  1  0.08746377  0.63336548  0.74939668  1  -1.172953  0  -0.349951  -0.441518  0  2.344915  0
O  O266  1  0.37895376  0.46756247  0.23612904  1  -1.166765  0  -0.328337  -0.565385  0  2.302108  0
O  O267  1  0.62104778  0.53243937  0.76387477  1  -1.166841  0  -0.328323  -0.565352  0  2.30215  0
O  O268  1  0.26856824  0.55396283  0.30441976  1  -1.172208  0  -0.328753  -0.580972  0  2.328244  0
O  O269  1  0.73142658  0.44604149  0.69557241  1  -1.172305  0  -0.328755  -0.580953  0  2.328252  0
O  O270  1  0.07292963  0.51610918  0.22910375  1  -1.165009  0  -0.354158  -0.452305  0  2.335735  0
O  O271  1  0.92706513  0.48388991  0.77089623  1  -1.164962  0  -0.354105  -0.452193  0  2.33573  0
O  O272  1  0.74171948  0.32512481  0.50845817  1  -1.171252  0  -0.591181  -0.886176  0  2.131051  0
O  O273  1  0.25828124  0.67487297  0.49154044  1  -1.171814  0  -0.591179  -0.886178  0  2.131137  0
O  O274  1  0.46360413  0.59050663  0.46220540  1  -1.217685  0  -0.575134  -0.809347  0  2.220597  0
O  O275  1  0.53639543  0.40949317  0.53779499  1  -1.217695  0  -0.575122  -0.809253  0  2.220683  0
O  O276  1  0.62818946  0.46925714  0.45744311  1  -1.219941  0  -0.586548  -0.869499  0  2.113858  0
O  O277  1  0.37180777  0.53074265  0.54255750  1  -1.219912  0  -0.58656  -0.86958  0  2.113851  0
O  O278  1  0.44060999  0.82894874  0.50979268  1  -1.225894  0  -0.581972  -0.756517  0  2.02893  0
O  O279  1  0.55938747  0.17105237  0.49020733  1  -1.225673  0  -0.581946  -0.756418  0  2.029064  0
O  O280  1  0.90002414  0.26713666  0.39504893  1  -1.237587  0  -0.577387  -0.740781  0  2.066069  0
O  O281  1  0.09997541  0.73286313  0.60495087  1  -1.237497  0  -0.57744  -0.740888  0  2.065889  0
O  O282  1  0.00749817  0.30339504  0.59986168  1  -1.181045  0  -0.56079  -0.727451  0  2.025145  0
O  O283  1  0.99250161  0.69660607  0.40013751  1  -1.18097  0  -0.560811  -0.72752  0  2.025105  0
O  O284  1  0.93154037  0.08975114  0.42016742  1  -1.240392  0  -0.581379  -0.754976  0  2.012217  0
O  O285  1  0.06845584  0.91024730  0.57983310  1  -1.240411  0  -0.581454  -0.755087  0  2.012044  0
