# generated using pymatgen
data_Co3H43C72N6O13
_symmetry_space_group_name_H-M   'P 1'
_cell_length_a   13.38392310
_cell_length_b   13.38301888
_cell_length_c   13.35344557
_cell_angle_alpha   96.75053639
_cell_angle_beta   96.47257948
_cell_angle_gamma   96.76342525
_symmetry_Int_Tables_number   1
_chemical_formula_structural   Co3H43C72N6O13
_chemical_formula_sum   'Co3 H43 C72 N6 O13'
_cell_volume   2339.21316886
_cell_formula_units_Z   1
loop_
 _symmetry_equiv_pos_site_id
 _symmetry_equiv_pos_as_xyz
  1  'x, y, z'
loop_
 _atom_site_type_symbol
 _atom_site_label
 _atom_site_symmetry_multiplicity
 _atom_site_fract_x
 _atom_site_fract_y
 _atom_site_fract_z
 _atom_site_occupancy
 _atom_site_pbe_bader_charge
 _atom_site_pbe_bader_spin_density
 _atom_site_pbe_cm5_charge
 _atom_site_pbe_ddec_charge
 _atom_site_pbe_ddec_spin_density
 _atom_site_pbe_ddec_sum_bond_order
 _atom_site_pbe_magmom
Co  Co0  1  0.68225577  0.48284645  0.60750700  1  1.415142  2.77268  0.729177  1.103872  3.054285  2.462756  2.752
Co  Co1  1  0.48659008  0.60546941  0.68204913  1  1.408772  2.764376  0.721421  1.089727  3.042391  2.48047  2.745
Co  Co2  1  0.60074429  0.68513312  0.48571021  1  1.41621  2.770723  0.72732  1.098784  3.047201  2.478118  2.751
H  H3  1  0.52836490  0.52308794  0.52389693  1  0.615627  -0.000743  0.31023  0.390518  -0.000372  0.906322  0.0
H  H4  1  0.63974854  0.28802319  0.30534325  1  0.06709  0.000419  0.100304  0.101232  0.000184  1.018986  0.0
H  H5  1  0.28897250  0.30450457  0.64286903  1  0.048266  0.000373  0.101254  0.102871  0.000155  1.018771  0.0
H  H6  1  0.30477467  0.64129365  0.28866164  1  0.074534  0.000391  0.101567  0.104997  0.000166  1.016206  0.0
H  H7  1  0.81902780  0.31682316  0.05903780  1  0.071575  -1.9e-05  0.10124  0.09921  -2.6e-05  1.012289  0.0
H  H8  1  0.31327733  0.05575125  0.81815833  1  0.077419  -2e-05  0.101347  0.099223  -3.1e-05  1.014234  0.0
H  H9  1  0.05792801  0.81827742  0.31633496  1  0.070915  -1.8e-05  0.101065  0.098143  -2.8e-05  1.01212  0.0
H  H10  1  0.85733406  0.50368269  0.11474896  1  0.071128  0.000222  0.095377  0.095046  8.6e-05  1.028584  0.0
H  H11  1  0.50006727  0.11002960  0.85849533  1  0.07635  0.000204  0.09662  0.095846  7.9e-05  1.026108  0.0
H  H12  1  0.11163702  0.85648588  0.50361970  1  0.07371  0.000222  0.096687  0.095663  8.8e-05  1.027485  0.0
H  H13  1  0.78057988  0.58164428  0.26207194  1  0.074784  0.000258  0.104448  0.108115  6.9e-05  1.005235  0.0
H  H14  1  0.58020485  0.25795585  0.78506630  1  0.094319  0.000301  0.103666  0.107637  8.9e-05  1.008505  0.0
H  H15  1  0.25826350  0.78105171  0.58245380  1  0.064414  0.000305  0.10431  0.108449  0.0001  1.005493  0.0
H  H16  1  0.68753179  0.13280460  0.29051601  1  0.076685  6.1e-05  0.103277  0.110928  2.2e-05  1.020516  0.0
H  H17  1  0.13285026  0.28899711  0.68539412  1  0.029978  5e-05  0.102517  0.11042  1.6e-05  1.020212  0.0
H  H18  1  0.29012433  0.68589486  0.13269839  1  0.081901  4.9e-05  0.103076  0.111337  1.4e-05  1.018476  0.0
H  H19  1  0.77599258  0.99720747  0.35016808  1  0.053946  0.000903  0.107814  0.113148  0.000386  1.002284  0.0
H  H20  1  0.99855885  0.35162879  0.77085756  1  0.080238  0.000951  0.107304  0.112678  0.000408  1.002806  0.0
H  H21  1  0.35231080  0.77197069  0.99818683  1  0.079329  0.000954  0.10815  0.113526  0.000406  1.002518  0.0
H  H22  1  0.74879683  0.86478169  0.46699902  1  0.131845  0.001536  0.11989  0.092542  0.000445  1.025541  0.001
H  H23  1  0.86875981  0.46982461  0.74180263  1  0.134831  0.001635  0.120214  0.091472  0.000447  1.025428  0.001
H  H24  1  0.46992023  0.74368181  0.86677886  1  0.134754  0.001653  0.119092  0.09166  0.00053  1.026037  0.001
H  H25  1  0.49857003  0.71394111  0.27806094  1  0.140735  0.00173  0.124646  0.098574  0.000446  0.995269  0.001
H  H26  1  0.71623593  0.27911495  0.49308083  1  0.128931  0.001703  0.123408  0.097364  0.000498  0.997296  0.001
H  H27  1  0.27868452  0.49623136  0.71273696  1  0.111338  0.001699  0.123698  0.099395  0.000463  0.994221  0.001
H  H28  1  0.51393286  0.83888215  0.15193059  1  0.069637  0.001036  0.107764  0.112535  0.000437  1.002473  0.0
H  H29  1  0.83893510  0.15130556  0.51025494  1  0.097573  0.000975  0.107272  0.111784  0.000423  1.003397  0.0
H  H30  1  0.15144223  0.51270209  0.83694399  1  0.06889  0.00098  0.107398  0.111971  0.000419  1.003149  0.0
H  H31  1  0.64377491  0.89691032  0.03464936  1  0.052314  2.2e-05  0.101435  0.110071  -1e-05  1.037945  0.0
H  H32  1  0.89531230  0.03507233  0.64135831  1  0.035155  3.7e-05  0.101922  0.110705  -2e-06  1.037841  0.0
H  H33  1  0.03592941  0.64233865  0.89616244  1  0.057847  3.2e-05  0.101703  0.110036  -1e-06  1.038399  0.0
H  H34  1  0.60431109  0.87404534  0.87508097  1  0.081533  0.000436  0.100654  0.100068  0.000234  1.03727  0.0
H  H35  1  0.87051391  0.87578816  0.60614699  1  0.072925  0.000426  0.100842  0.099996  0.000231  1.039926  0.0
H  H36  1  0.87688187  0.60670604  0.87235220  1  0.071331  0.000418  0.101814  0.101489  0.000205  1.038114  0.0
H  H37  1  0.65316536  0.98620925  0.59517451  1  0.09609  0.000281  0.101571  0.101716  9.3e-05  1.01582  0.0
H  H38  1  0.98135294  0.59580713  0.65240351  1  0.038954  0.000179  0.101046  0.100686  3.1e-05  1.020076  0.0
H  H39  1  0.59728641  0.65485441  0.98499936  1  0.05249  0.000291  0.101811  0.10173  0.000102  1.017363  0.0
H  H40  1  0.73367596  0.15404116  0.69164110  1  0.052147  0.000185  0.092145  0.08718  4.3e-05  1.046051  0.0
H  H41  1  0.14965712  0.69137427  0.73256557  1  0.065493  0.000184  0.091825  0.086774  4.8e-05  1.046245  0.0
H  H42  1  0.69304658  0.73285826  0.15398308  1  0.056743  0.000175  0.094212  0.090164  3.7e-05  1.047305  0.0
H  H43  1  0.74731544  0.18076375  0.88046879  1  0.117145  -2.7e-05  0.103655  0.099486  -4.9e-05  1.023798  0.0
H  H44  1  0.17741096  0.87990938  0.74634222  1  0.141221  -1.8e-05  0.102488  0.099042  -4e-05  1.025658  0.0
H  H45  1  0.88128648  0.74583848  0.18091921  1  0.118293  -2e-05  0.104546  0.099296  -3.3e-05  1.024875  0.0
C  C46  1  0.66282539  0.48578120  0.38247399  1  1.573127  0.003146  0.220859  0.609015  0.002193  4.142277  0.003
C  C47  1  0.48700258  0.38028349  0.66867107  1  1.56226  0.002048  0.21974  0.608862  0.000951  4.14174  0.001
C  C48  1  0.38024533  0.66518539  0.48624109  1  1.548474  0.001062  0.223314  0.607726  5.1e-05  4.133393  0.0
C  C49  1  0.70657027  0.43890876  0.29249244  1  -0.046678  0.01281  -0.017911  -0.025512  0.006803  3.973348  0.01
C  C50  1  0.43871662  0.29006770  0.71061107  1  0.007017  0.012356  -0.016871  -0.024855  0.00662  3.970364  0.01
C  C51  1  0.29015482  0.70756951  0.43958782  1  -0.016588  0.012767  -0.019836  -0.028994  0.006835  3.976617  0.01
C  C52  1  0.68832121  0.33392787  0.26303717  1  -0.027027  0.000234  -0.08276  -0.139298  -0.000381  3.947798  0.0
C  C53  1  0.33372080  0.26136869  0.69110486  1  0.003378  0.000356  -0.084566  -0.140899  -0.000231  3.946546  0.0
C  C54  1  0.26178379  0.68923746  0.33431467  1  -0.056757  0.000329  -0.08453  -0.141634  -0.000279  3.945954  0.0
C  C55  1  0.72736393  0.28967704  0.17800931  1  -0.002167  0.000864  -0.013498  0.027367  0.000387  4.014383  0.001
C  C56  1  0.28822656  0.17602160  0.72840050  1  -0.048064  0.000719  -0.013229  0.028067  0.000311  4.010544  0.001
C  C57  1  0.17711498  0.72752283  0.28961413  1  -0.024987  0.000716  -0.012816  0.028402  0.000305  4.012118  0.001
C  C58  1  0.78832536  0.35188523  0.12469380  1  -0.011396  -0.00041  -0.08492  -0.107365  -0.000507  3.967432  0.0
C  C59  1  0.34924770  0.12169582  0.78886708  1  -0.073462  -0.000609  -0.083547  -0.105773  -0.000709  3.966097  0.0
C  C60  1  0.12323815  0.78796658  0.35172198  1  0.018825  -0.000508  -0.080796  -0.102141  -0.000605  3.959837  0.0
C  C61  1  0.80887884  0.45608127  0.15555924  1  -0.058586  0.000832  -0.092039  -0.079368  0.000398  4.02227  0.001
C  C62  1  0.45339370  0.15180109  0.81067975  1  -0.08646  0.000842  -0.093133  -0.079606  0.00039  4.02131  0.001
C  C63  1  0.15301466  0.80855942  0.45617723  1  -0.051956  0.000962  -0.09138  -0.076813  0.00046  4.016831  0.001
C  C64  1  0.76680115  0.50006367  0.23820080  1  -0.013234  0.000753  -0.080366  -0.08301  0.000152  3.94738  0.001
C  C65  1  0.49861146  0.23478917  0.77036886  1  0.011798  0.000459  -0.079611  -0.083329  -9.8e-05  3.947338  0.0
C  C66  1  0.23524889  0.76708498  0.50067100  1  -0.000625  0.000604  -0.079323  -0.083431  2.2e-05  3.944728  0.001
C  C67  1  0.70402742  0.17957191  0.14240452  1  0.536356  0.000192  0.12253  0.224273  9.3e-05  4.036736  0.0
C  C68  1  0.17808834  0.14110741  0.70396964  1  0.575793  0.000202  0.121258  0.222595  6.5e-05  4.036256  0.0
C  C69  1  0.14234703  0.70385944  0.17924906  1  0.532523  0.000226  0.122782  0.223252  9e-05  4.036647  0.0
C  C70  1  0.68478608  0.10844355  0.20936213  1  0.011417  0.000221  -0.088278  -0.226323  9.1e-05  3.923569  0.0
C  C71  1  0.10784765  0.20819117  0.68312450  1  0.055414  -0.000787  -0.086521  -0.224747  -0.00092  3.923037  -0.001
C  C72  1  0.20931981  0.68356565  0.10817646  1  -0.05704  -0.000517  -0.088031  -0.225818  -0.000611  3.921794  0.0
C  C73  1  0.66198766  0.00547420  0.17074733  1  -0.07623  6.2e-05  0.00266  0.105769  -8.8e-05  4.027795  0.0
C  C74  1  0.00483793  0.17022933  0.65942969  1  -0.0855  0.000102  0.002569  0.103693  -7.3e-05  4.031579  0.0
C  C75  1  0.17119301  0.66029666  0.00500506  1  -0.028253  0.000103  0.001907  0.102817  -7.2e-05  4.032148  0.0
C  C76  1  0.64651078  0.92938675  0.24103160  1  -0.036141  -0.003162  0.01418  0.11213  -0.003594  3.983728  -0.002
C  C77  1  0.92986466  0.24110206  0.64245192  1  -0.041441  -0.003689  0.013454  0.112184  -0.004186  3.981829  -0.002
C  C78  1  0.24168192  0.64399114  0.92896424  1  0.002963  -0.003632  0.014017  0.11422  -0.004125  3.985284  -0.002
C  C79  1  0.71247525  0.93640992  0.33175106  1  -0.004366  0.003517  -0.08169  -0.17857  0.00178  3.950669  0.003
C  C80  1  0.93797639  0.33293023  0.70726443  1  0.006347  0.003604  -0.080265  -0.176998  0.001787  3.94997  0.003
C  C81  1  0.33342617  0.70875142  0.93697871  1  -0.026163  0.003706  -0.084866  -0.182522  0.001851  3.957284  0.003
C  C82  1  0.69856521  0.86353436  0.39657291  1  0.458839  -0.001814  0.05306  0.101237  -0.002614  3.944712  -0.001
C  C83  1  0.86640151  0.39858286  0.69228323  1  0.499852  -0.001962  0.051519  0.099333  -0.002711  3.948347  -0.001
C  C84  1  0.39878258  0.69416203  0.86453051  1  0.449216  -0.001674  0.055667  0.102914  -0.002422  3.947974  -0.001
C  C85  1  0.55889771  0.77801284  0.28993708  1  0.4854  -0.001117  0.058991  0.107449  -0.001886  3.933938  -0.001
C  C86  1  0.78006758  0.29089718  0.55351747  1  0.523802  -0.001508  0.060587  0.110457  -0.002258  3.9267  -0.001
C  C87  1  0.29081175  0.55619233  0.77727996  1  0.507312  -0.001708  0.059169  0.107018  -0.002547  3.928084  -0.001
C  C88  1  0.56806075  0.84770848  0.22079742  1  -0.025865  0.003978  -0.081614  -0.180362  0.002022  3.956791  0.003
C  C89  1  0.84855020  0.22090701  0.56373477  1  -0.115547  0.004225  -0.080961  -0.179085  0.002081  3.94875  0.003
C  C90  1  0.22106412  0.56604384  0.84659678  1  -0.046344  0.004263  -0.077675  -0.177332  0.002139  3.950981  0.003
C  C91  1  0.65829064  0.97695264  0.06591440  1  -0.009493  -0.000506  -0.090307  -0.225514  -0.0006  3.907046  0.0
C  C92  1  0.97541342  0.06584242  0.65651692  1  -0.010814  2.1e-05  -0.088804  -0.223947  -3.4e-05  3.906617  0.0
C  C93  1  0.06680477  0.65716868  0.97632719  1  -0.015179  -0.000133  -0.087155  -0.221416  -0.000187  3.903428  0.0
C  C94  1  0.67972933  0.05248244  0.00375820  1  0.520441  0.000179  0.120825  0.216955  6.9e-05  4.022186  0.0
C  C95  1  0.05008348  0.00345401  0.67945550  1  0.555322  0.000218  0.119958  0.215886  0.000108  4.021875  0.0
C  C96  1  0.00462314  0.67957560  0.05183603  1  0.523732  0.000213  0.120862  0.21586  9.9e-05  4.021527  0.0
C  C97  1  0.67697358  0.03034569  0.89173892  1  -0.051076  0.001044  -0.009883  0.026177  0.000469  3.992476  0.001
C  C98  1  0.02707182  0.89178963  0.67726942  1  -0.074368  0.000903  -0.00741  0.028069  0.000401  3.993861  0.001
C  C99  1  0.89303636  0.67739763  0.02960781  1  0.044778  0.000813  -0.01017  0.026109  0.000364  3.995229  0.001
C  C100  1  0.63374014  0.93662824  0.83682076  1  -0.015826  9e-05  -0.081128  -0.13039  -0.000582  3.928383  0.0
C  C101  1  0.93299875  0.83730003  0.63473523  1  -0.047756  0.000299  -0.084338  -0.13469  -0.0004  3.932143  0.0
C  C102  1  0.83857087  0.63541743  0.93532804  1  -0.044708  0.000704  -0.080516  -0.13085  1.6e-05  3.926692  0.0
C  C103  1  0.62566293  0.92076747  0.73055748  1  -0.014498  0.012414  -0.01289  -0.026547  0.006651  3.967968  0.01
C  C104  1  0.91655197  0.73122159  0.62628017  1  -0.00773  0.011919  -0.013036  -0.022979  0.006387  3.960543  0.009
C  C105  1  0.73263233  0.62796915  0.91928800  1  -0.008817  0.012363  -0.015757  -0.025569  0.006672  3.969609  0.01
C  C106  1  0.66176666  0.99933015  0.67798457  1  -0.107154  -0.000333  -0.083217  -0.087903  -0.00077  3.961435  0.0
C  C107  1  0.99490542  0.67847784  0.66160415  1  -0.045667  -0.000106  -0.084722  -0.091183  -0.000528  3.963819  0.0
C  C108  1  0.67988913  0.66317311  0.99827222  1  -0.054663  0.000439  -0.081336  -0.087668  -6.5e-05  3.964242  0.0
C  C109  1  0.70643480  0.09230193  0.73205109  1  0.090824  0.000927  -0.092084  -0.084276  0.000412  4.037109  0.001
C  C110  1  0.08812362  0.73204174  0.70593003  1  -0.040534  0.000906  -0.094942  -0.084984  0.000407  4.039619  0.001
C  C111  1  0.73353681  0.70642063  0.09187475  1  -0.044679  0.000888  -0.096055  -0.09019  0.000406  4.040156  0.001
C  C112  1  0.71435893  0.10775858  0.83770045  1  -0.14529  -0.00149  -0.077797  -0.097375  -0.001678  3.95059  -0.001
C  C113  1  0.10415299  0.83749278  0.71404582  1  -0.020392  -0.001335  -0.081882  -0.104256  -0.001503  3.957829  -0.001
C  C114  1  0.83887750  0.71393444  0.10746144  1  -0.056663  -0.000575  -0.077812  -0.095466  -0.000672  3.952658  0.0
C  C115  1  0.57912537  0.81995448  0.67336565  1  1.596929  -0.002219  0.225062  0.607741  -0.003505  4.143228  -0.002
C  C116  1  0.81552821  0.67387281  0.57956167  1  1.587536  -0.000158  0.220122  0.603171  -0.001253  4.151757  0.0
C  C117  1  0.67590157  0.58289749  0.81783187  1  1.52111  0.000273  0.223622  0.603109  -0.001175  4.147514  0.0
N  N118  1  0.62314403  0.78550390  0.37623007  1  -1.194993  0.061927  -0.313915  -0.228293  0.033845  3.527114  0.052
N  N119  1  0.78841558  0.37804609  0.61694189  1  -1.232605  0.062082  -0.313005  -0.228438  0.033833  3.527692  0.051
N  N120  1  0.37810670  0.61925983  0.78581514  1  -1.200476  0.063772  -0.314264  -0.225656  0.035196  3.522571  0.053
N  N121  1  0.70253681  0.15104108  0.04238934  1  -1.20401  9.2e-05  -0.304672  -0.329643  1.5e-05  3.287208  0.0
N  N122  1  0.14865614  0.04153699  0.70301838  1  -1.221362  -0.000188  -0.305492  -0.329294  -0.000249  3.289899  0.0
N  N123  1  0.04279686  0.70281786  0.15050822  1  -1.198955  -3.8e-05  -0.304915  -0.328822  -0.000108  3.289564  0.0
O  O124  1  0.57464839  0.57234453  0.57265452  1  -1.147037  0.26328  -0.557544  -0.9069  0.145023  2.491422  0.236
O  O125  1  0.64739571  0.43008156  0.45236134  1  -1.160366  0.090728  -0.316752  -0.576363  0.047067  2.295455  0.076
O  O126  1  0.43228315  0.45020411  0.65275669  1  -1.155801  0.08427  -0.313621  -0.574048  0.043682  2.306431  0.072
O  O127  1  0.45037862  0.65172200  0.43003261  1  -1.147959  0.098276  -0.314239  -0.571365  0.050635  2.312473  0.083
O  O128  1  0.64536167  0.57720999  0.38168217  1  -1.141689  0.097809  -0.306572  -0.561593  0.051079  2.321911  0.085
O  O129  1  0.57931933  0.37941773  0.65288481  1  -1.146174  0.101134  -0.310415  -0.5699  0.052683  2.331634  0.087
O  O130  1  0.38064981  0.64693195  0.57772608  1  -1.138711  0.103722  -0.304957  -0.559452  0.054029  2.337226  0.091
O  O131  1  0.54789817  0.75189585  0.72578157  1  -1.153133  0.096658  -0.303424  -0.559589  0.050183  2.396816  0.086
O  O132  1  0.74777895  0.72707436  0.54973156  1  -1.151124  0.095109  -0.305609  -0.561083  0.04908  2.381094  0.084
O  O133  1  0.72890024  0.55102634  0.74994984  1  -1.144438  0.103965  -0.304131  -0.555942  0.053916  2.386522  0.089
O  O134  1  0.57479276  0.80884960  0.57680772  1  -1.170548  0.092164  -0.311552  -0.565969  0.047868  2.358276  0.078
O  O135  1  0.80509782  0.57762985  0.57327703  1  -1.158133  0.075457  -0.311475  -0.570103  0.03819  2.344664  0.065
O  O136  1  0.58004947  0.57985493  0.80581505  1  -1.117633  0.090664  -0.30311  -0.557522  0.046881  2.367905  0.078
