# generated using pymatgen
data_CuH12C12N4O5
_symmetry_space_group_name_H-M   'P 1'
_cell_length_a   7.30831032
_cell_length_b   10.17278938
_cell_length_c   10.17280031
_cell_angle_alpha   101.57305337
_cell_angle_beta   99.76860267
_cell_angle_gamma   99.76980308
_symmetry_Int_Tables_number   1
_chemical_formula_structural   CuH12C12N4O5
_chemical_formula_sum   'Cu2 H24 C24 N8 O10'
_cell_volume   713.74543316
_cell_formula_units_Z   2
loop_
 _symmetry_equiv_pos_site_id
 _symmetry_equiv_pos_as_xyz
  1  'x, y, z'
loop_
 _atom_site_type_symbol
 _atom_site_label
 _atom_site_symmetry_multiplicity
 _atom_site_fract_x
 _atom_site_fract_y
 _atom_site_fract_z
 _atom_site_occupancy
 _atom_site_hle17_ddec_charge
 _atom_site_hle17_ddec_spin_density
 _atom_site_hle17_ddec_sum_bond_order
 _atom_site_hle17_magmom
 _atom_site_hse06_10hf_ddec_charge
 _atom_site_hse06_10hf_ddec_spin_density
 _atom_site_hse06_10hf_ddec_sum_bond_order
 _atom_site_hse06_10hf_magmom
 _atom_site_hse06_ddec_charge
 _atom_site_hse06_ddec_spin_density
 _atom_site_hse06_ddec_sum_bond_order
 _atom_site_hse06_magmom
 _atom_site_pbe_cm5_charge
 _atom_site_pbe_ddec_charge
 _atom_site_pbe_ddec_spin_density
 _atom_site_pbe_ddec_sum_bond_order
 _atom_site_pbe_magmom
Cu  Cu0  1  0.25002185  0.85058904  0.14943897  1  0.994706  0.684729  1.935353  0.492  1.049396  0.837485  2.342496  0.709  1.11849  0.892817  2.282383  0.788  0.852193  0.993598  0.776626  2.388262  0.628
Cu  Cu1  1  0.74999672  0.14945198  0.85056973  1  0.994847  0.684874  1.93567  0.492  1.049535  0.837554  2.34285  0.709  1.118563  0.892836  2.282714  0.788  0.852264  0.993664  0.776754  2.388655  0.628
H  H2  1  0.16851865  0.95142365  0.92976975  1  0.444205  0.001077  0.851568  0.002  0.419066  0.001116  0.905806  0.002  0.429822  0.000826  0.890429  0.002  0.299062  0.410837  0.001313  0.917517  0.003
H  H3  1  0.66855101  0.92978396  0.95141785  1  0.444377  0.001079  0.851388  0.002  0.419195  0.001117  0.905713  0.002  0.429951  0.000826  0.890328  0.002  0.299194  0.410968  0.001315  0.917421  0.003
H  H4  1  0.83150050  0.04857217  0.07021424  1  0.444238  0.001079  0.851575  0.002  0.419111  0.001117  0.905785  0.002  0.429859  0.000826  0.890419  0.002  0.299143  0.410881  0.001315  0.917495  0.003
H  H5  1  0.33146085  0.07021085  0.04858077  1  0.444335  0.001076  0.851553  0.002  0.419275  0.001116  0.905681  0.002  0.430033  0.000825  0.890289  0.002  0.299225  0.411053  0.001313  0.917386  0.003
H  H6  1  0.77598720  0.33820341  0.32562124  1  0.03801  0.000454  0.951438  0.0  0.050083  2.9e-05  1.02267  0.0  0.049785  -3e-06  1.02301  0.0  0.09439  0.050226  0.00015  1.022455  0.0
H  H7  1  0.27600827  0.32562213  0.33820772  1  0.037839  0.000454  0.951497  0.0  0.049931  2.9e-05  1.022703  0.0  0.049633  -3e-06  1.02305  0.0  0.094344  0.050074  0.00015  1.022485  0.0
H  H8  1  0.22401393  0.66180683  0.67438405  1  0.038032  0.000452  0.951277  0.0  0.050078  2.9e-05  1.022541  0.0  0.04978  -3e-06  1.022884  0.0  0.094398  0.050226  0.000149  1.022317  0.0
H  H9  1  0.72399140  0.67437373  0.66179255  1  0.038079  0.00045  0.951435  0.0  0.050104  2.9e-05  1.022665  0.0  0.049803  -3e-06  1.023012  0.0  0.094433  0.050246  0.000149  1.022453  0.0
H  H10  1  0.83411064  0.33029554  0.16242868  1  0.059481  0.000251  0.942883  0.0  0.065429  -0.000114  1.017987  0.0  0.065364  -0.00015  1.01803  0.0  0.100954  0.065854  3.2e-05  1.017763  0.0
H  H11  1  0.33413681  0.16244460  0.33030182  1  0.059542  0.000246  0.942726  0.0  0.065481  -0.000115  1.017851  0.0  0.065421  -0.00015  1.017899  0.0  0.100995  0.065907  3e-05  1.017629  0.0
H  H12  1  0.16589143  0.66970853  0.83758041  1  0.059484  0.000248  0.94276  0.0  0.065413  -0.000114  1.017874  0.0  0.065351  -0.00015  1.017924  0.0  0.100923  0.065843  3e-05  1.01765  0.0
H  H13  1  0.66587588  0.83757178  0.66969729  1  0.059485  0.000249  0.942863  0.0  0.065439  -0.000114  1.017922  0.0  0.065377  -0.00015  1.017964  0.0  0.100964  0.065863  3.1e-05  1.017704  0.0
H  H14  1  0.09319633  0.49184192  0.34749298  1  0.099317  -1.2e-05  0.958617  0.0  0.122508  7e-06  1.018654  0.0  0.123048  6e-06  1.019884  0.0  0.088477  0.121985  1.2e-05  1.017901  0.0
H  H15  1  0.59314896  0.34748588  0.49183378  1  0.099483  -1.5e-05  0.958944  0.0  0.122706  7e-06  1.018879  0.0  0.123247  6e-06  1.020103  0.0  0.088554  0.122179  1.2e-05  1.018134  0.0
H  H16  1  0.90683171  0.50817956  0.65252183  1  0.099377  -1.6e-05  0.958911  0.0  0.122624  7e-06  1.018854  0.0  0.123166  6e-06  1.02008  0.0  0.088495  0.122099  1.2e-05  1.018105  0.0
H  H17  1  0.40679213  0.65250907  0.50815513  1  0.099371  -1.8e-05  0.958657  0.0  0.12261  8e-06  1.018629  0.0  0.123153  6e-06  1.019856  0.0  0.088541  0.122083  1.2e-05  1.017881  0.0
H  H18  1  0.92890320  0.59227482  0.39857132  1  0.110188  -6e-06  0.966517  0.0  0.127217  0.0  1.030866  0.0  0.129315  -3e-06  1.030319  0.0  0.086803  0.125575  1.2e-05  1.031431  0.0
H  H19  1  0.42887663  0.39854591  0.59224773  1  0.110388  -9e-06  0.966851  0.0  0.127365  0.0  1.031193  0.0  0.129453  -3e-06  1.03064  0.0  0.086878  0.125735  1.2e-05  1.031741  0.0
H  H20  1  0.07110173  0.40774362  0.60143905  1  0.110299  -1e-05  0.966553  0.0  0.127334  0.0  1.030882  0.0  0.129432  -3e-06  1.030332  0.0  0.086858  0.125689  1.2e-05  1.031444  0.0
H  H21  1  0.57108667  0.60142538  0.40772837  1  0.110239  -1.4e-05  0.96646  0.0  0.12724  0.0  1.030846  0.0  0.129339  -2e-06  1.030295  0.0  0.086813  0.125596  1.2e-05  1.031413  0.0
H  H22  1  0.98765864  0.58391175  0.23533018  1  0.111486  -1.7e-05  0.96541  0.0  0.128269  -0.000108  1.029274  0.0  0.128627  -0.000103  1.03132  0.0  0.08814  0.128461  -7.5e-05  1.027389  0.0
H  H23  1  0.48764424  0.23534061  0.58390699  1  0.11167  -1.9e-05  0.965551  0.0  0.128357  -0.000108  1.029494  0.0  0.128709  -0.000103  1.031544  0.0  0.088185  0.128547  -7.3e-05  1.027614  0.0
H  H24  1  0.01234080  0.41609747  0.76467274  1  0.111556  -2e-05  0.965476  0.0  0.128328  -0.000109  1.029365  0.0  0.128686  -0.000103  1.031408  0.0  0.088182  0.128516  -7.3e-05  1.027484  0.0
H  H25  1  0.51233195  0.76466968  0.41608443  1  0.111547  -2.2e-05  0.965459  0.0  0.12832  -0.000108  1.029335  0.0  0.128677  -0.000103  1.031381  0.0  0.088174  0.128512  -7.5e-05  1.02745  0.0
C  C26  1  0.32188665  0.54013594  0.10602085  1  0.361808  -0.032914  3.815518  -0.025  0.363785  -0.003979  4.09986  0.0  0.385665  -0.004034  4.115324  0.0  0.201397  0.345373  -0.004533  4.088982  -0.001
C  C27  1  0.82190427  0.10601469  0.54013469  1  0.361754  -0.032853  3.815841  -0.025  0.36377  -0.00398  4.10029  0.0  0.385641  -0.004031  4.115767  0.0  0.20135  0.345326  -0.004543  4.089357  -0.001
C  C28  1  0.67810109  0.45984762  0.89396565  1  0.361799  -0.032846  3.815414  -0.025  0.363836  -0.003986  4.099797  0.0  0.385706  -0.004034  4.11526  0.0  0.201294  0.345392  -0.004538  4.088879  -0.001
C  C29  1  0.17809899  0.89396986  0.45986376  1  0.361795  -0.032855  3.815051  -0.025  0.363776  -0.003981  4.099357  0.0  0.38566  -0.004028  4.114817  0.0  0.201239  0.345353  -0.004525  4.088489  -0.001
C  C30  1  0.15045943  0.31097974  0.00925416  1  0.385824  -0.040444  3.780174  -0.027  0.395106  -0.006556  4.043089  0.003  0.419155  -0.008201  4.056642  0.001  0.22153  0.374456  -0.005612  4.034605  0.003
C  C31  1  0.65047668  0.00924333  0.31096173  1  0.385545  -0.040367  3.779283  -0.027  0.394867  -0.006564  4.042325  0.003  0.418922  -0.008207  4.055879  0.001  0.221423  0.374175  -0.005626  4.03383  0.003
C  C32  1  0.84953072  0.68901203  0.99073625  1  0.38544  -0.040363  3.78035  -0.027  0.394768  -0.006555  4.043355  0.003  0.41881  -0.008193  4.05691  0.001  0.221419  0.374093  -0.005614  4.034859  0.003
C  C33  1  0.34954252  0.99074325  0.68901943  1  0.385626  -0.040256  3.780468  -0.027  0.394892  -0.006566  4.043309  0.003  0.41893  -0.0082  4.056861  0.001  0.221475  0.374249  -0.005606  4.034841  0.003
C  C34  1  0.31712981  0.39962187  0.08695262  1  -0.304816  0.06888  3.915906  0.066  -0.336739  0.003813  4.213018  0.006  -0.36034  0.000603  4.228975  0.002  -0.051114  -0.313703  0.013584  4.196238  0.015
C  C35  1  0.81717137  0.08696447  0.39964239  1  -0.30433  0.06892  3.914751  0.066  -0.33652  0.003818  4.212172  0.006  -0.360123  0.000596  4.228141  0.002  -0.050883  -0.313365  0.013628  4.195259  0.015
C  C36  1  0.68286101  0.60035346  0.91304342  1  -0.304458  0.068891  3.915281  0.066  -0.336577  0.003782  4.212637  0.006  -0.360157  0.000552  4.228572  0.002  -0.050972  -0.313445  0.013586  4.195737  0.015
C  C37  1  0.18287121  0.91304054  0.60038074  1  -0.304796  0.068692  3.916016  0.066  -0.336653  0.003778  4.213035  0.006  -0.360248  0.000555  4.228995  0.002  -0.05107  -0.313629  0.013542  4.196274  0.015
C  C38  1  0.47996693  0.34510583  0.13532001  1  0.595427  -0.009878  3.912873  -0.01  0.542732  -0.001415  4.227098  -0.001  0.577351  -0.001277  4.222537  -0.001  0.223794  0.518035  -0.001378  4.228207  -0.002
C  C39  1  0.98002688  0.13532784  0.34511005  1  0.595644  -0.009849  3.913105  -0.01  0.542979  -0.001412  4.22733  -0.001  0.577597  -0.001269  4.222757  -0.001  0.223832  0.518236  -0.001378  4.228457  -0.002
C  C40  1  0.51999839  0.65488188  0.86467439  1  0.595454  -0.009882  3.912866  -0.01  0.542817  -0.001407  4.227064  -0.001  0.577427  -0.001268  4.222503  -0.001  0.223818  0.518121  -0.001379  4.228174  -0.002
C  C41  1  0.02002333  0.86467923  0.65489084  1  0.595461  -0.0099  3.912997  -0.01  0.542848  -0.00141  4.22709  -0.001  0.577473  -0.001269  4.222521  -0.001  0.223868  0.518133  -0.001378  4.228216  -0.002
C  C42  1  0.80417197  0.39892798  0.25039604  1  0.154147  0.000195  3.595218  0.0  0.09702  -1.1e-05  3.868627  0.0  0.106981  -6.6e-05  3.873577  0.0  -0.07184  0.090056  0.00018  3.865094  0.0
C  C43  1  0.30418598  0.25039932  0.39895965  1  0.154183  0.0002  3.595768  0.0  0.097104  -1.1e-05  3.869072  0.0  0.107042  -6.5e-05  3.874046  0.0  -0.071825  0.090148  0.000179  3.865515  0.0
C  C44  1  0.19583400  0.60106581  0.74961147  1  0.154176  0.000189  3.59534  0.0  0.097147  -1.1e-05  3.868615  0.0  0.107093  -6.6e-05  3.873585  0.0  -0.071742  0.09022  0.000178  3.865067  0.0
C  C45  1  0.69582156  0.74960473  0.60107272  1  0.154137  0.000195  3.595336  0.0  0.09712  -1.1e-05  3.868631  0.0  0.10708  -6.6e-05  3.873573  0.0  -0.07184  0.090146  0.000179  3.865103  0.0
C  C46  1  0.96154924  0.52435494  0.31139578  1  -0.321382  -2.3e-05  3.69995  0.0  -0.393562  -9.1e-05  3.941855  0.0  -0.396905  -0.000101  3.951429  0.0  -0.250067  -0.390943  -2.5e-05  3.93489  0.0
C  C47  1  0.46155833  0.31140642  0.52437573  1  -0.321848  -1.2e-05  3.701032  0.0  -0.393974  -9.1e-05  3.942913  0.0  -0.39729  -9.9e-05  3.952471  0.0  -0.250229  -0.391372  -2.4e-05  3.935955  0.0
C  C48  1  0.03843479  0.47564916  0.68860912  1  -0.321685  -3e-06  3.700464  0.0  -0.393969  -8.9e-05  3.942371  0.0  -0.39731  -9.9e-05  3.951948  0.0  -0.25022  -0.391347  -2.4e-05  3.935399  0.0
C  C49  1  0.53843999  0.68860381  0.47564003  1  -0.32156  7e-06  3.700059  0.0  -0.393753  -9.1e-05  3.941903  0.0  -0.397094  -0.0001  3.951468  0.0  -0.250177  -0.391134  -2.5e-05  3.934946  0.0
N  N50  1  0.32006705  0.65676773  0.11730785  1  -0.470635  0.05253  2.870888  0.061  -0.481312  0.019696  3.172026  0.029  -0.504055  0.014553  3.17469  0.024  -0.350383  -0.463413  0.024904  3.171152  0.034
N  N51  1  0.82005036  0.11729790  0.65676466  1  -0.47074  0.052562  2.871035  0.061  -0.481472  0.019701  3.172219  0.029  -0.504207  0.014552  3.174872  0.024  -0.350462  -0.463538  0.024936  3.171316  0.034
N  N52  1  0.67994120  0.34321476  0.88267900  1  -0.47086  0.052548  2.870979  0.061  -0.481544  0.019733  3.172168  0.03  -0.504279  0.01458  3.174808  0.024  -0.350514  -0.463625  0.024948  3.171292  0.034
N  N53  1  0.17990593  0.88268264  0.34321735  1  -0.470789  0.05246  2.870585  0.061  -0.481405  0.019702  3.171734  0.029  -0.504145  0.014559  3.174386  0.024  -0.350305  -0.463521  0.024892  3.170872  0.034
N  N54  1  0.01015647  0.24115957  0.93893943  1  -0.446301  0.081794  2.958704  0.094  -0.445016  0.049198  3.25405  0.066  -0.472773  0.039462  3.254928  0.055  -0.365078  -0.425502  0.05498  3.256246  0.069
N  N55  1  0.51017373  0.93892787  0.24113623  1  -0.446105  0.081753  2.958813  0.094  -0.444808  0.049198  3.254157  0.066  -0.472575  0.039467  3.255049  0.055  -0.364978  -0.425307  0.05497  3.256394  0.069
N  N56  1  0.98982424  0.75884249  0.06104893  1  -0.446053  0.081709  2.958591  0.094  -0.444776  0.049178  3.253884  0.066  -0.472538  0.039449  3.254784  0.055  -0.364992  -0.425277  0.054934  3.256102  0.069
N  N57  1  0.48983723  0.06104949  0.75883223  1  -0.446155  0.08159  2.958906  0.094  -0.444734  0.049201  3.254124  0.066  -0.472477  0.039468  3.255002  0.055  -0.364992  -0.42524  0.054954  3.25633  0.069
O  O58  1  0.25003979  0.97648375  0.02355578  1  -0.86127  0.042093  1.959476  0.057  -0.822932  0.035864  2.174376  0.059  -0.853098  0.024394  2.136496  0.044  -0.593745  -0.802492  0.044387  2.203092  0.067
O  O59  1  0.74996928  0.02356755  0.97646856  1  -0.861292  0.042079  1.959368  0.057  -0.822899  0.035842  2.174413  0.059  -0.853045  0.024378  2.136537  0.044  -0.593707  -0.802424  0.044377  2.203116  0.067
O  O60  1  0.48382411  0.22177175  0.11857357  1  -0.547192  0.011164  2.024535  0.015  -0.509714  0.001493  2.256541  0.003  -0.53285  4.5e-05  2.248907  0.001  -0.276396  -0.49104  0.004538  2.260669  0.007
O  O61  1  0.98383126  0.11855813  0.22177712  1  -0.547365  0.011169  2.024811  0.015  -0.509906  0.001493  2.256821  0.003  -0.533033  4.2e-05  2.249179  0.001  -0.276529  -0.491235  0.004539  2.260978  0.007
O  O62  1  0.51617997  0.77822512  0.88144121  1  -0.54729  0.011153  2.024572  0.015  -0.509792  0.001494  2.256574  0.003  -0.532924  5.3e-05  2.248943  0.001  -0.276424  -0.491122  0.004532  2.26071  0.007
O  O63  1  0.01616538  0.88144183  0.77824621  1  -0.547341  0.011152  2.024161  0.015  -0.509857  0.001496  2.256154  0.003  -0.532992  5.2e-05  2.248512  0.001  -0.276466  -0.49119  0.004537  2.260304  0.007
O  O64  1  0.63195624  0.44565671  0.20365010  1  -0.336404  0.003494  2.271477  0.005  -0.258307  0.000244  2.503736  0.0  -0.281084  -0.000158  2.504287  0.0  -0.169041  -0.241996  0.001392  2.502946  0.002
O  O65  1  0.13198530  0.20364668  0.44563887  1  -0.336427  0.0035  2.272768  0.005  -0.258265  0.000244  2.504932  0.0  -0.281037  -0.000158  2.505484  0.0  -0.169007  -0.24194  0.001394  2.504143  0.002
O  O66  1  0.36802872  0.55435048  0.79635062  1  -0.336301  0.003498  2.272421  0.005  -0.25818  0.000243  2.504597  0.0  -0.280951  -0.00016  2.505151  0.0  -0.168954  -0.241948  0.00139  2.503859  0.002
O  O67  1  0.86804939  0.79635014  0.55435511  1  -0.336405  0.00349  2.272057  0.005  -0.258313  0.000243  2.504225  0.0  -0.281092  -0.00016  2.504775  0.0  -0.16907  -0.241982  0.001388  2.503425  0.002
