# generated using pymatgen
data_AgH11C19SN3O4F3
_symmetry_space_group_name_H-M   'P 1'
_cell_length_a   8.53132690
_cell_length_b   10.85044901
_cell_length_c   11.17907317
_cell_angle_alpha   100.60355663
_cell_angle_beta   102.42324479
_cell_angle_gamma   105.92843903
_symmetry_Int_Tables_number   1
_chemical_formula_structural   AgH11C19SN3O4F3
_chemical_formula_sum   'Ag2 H22 C38 S2 N6 O8 F6'
_cell_volume   938.68743204
_cell_formula_units_Z   2
loop_
 _symmetry_equiv_pos_site_id
 _symmetry_equiv_pos_as_xyz
  1  'x, y, z'
loop_
 _atom_site_type_symbol
 _atom_site_label
 _atom_site_symmetry_multiplicity
 _atom_site_fract_x
 _atom_site_fract_y
 _atom_site_fract_z
 _atom_site_occupancy
 _atom_site_hle17_bader_spin_density
 _atom_site_hle17_ddec_charge
 _atom_site_hle17_ddec_spin_density
 _atom_site_hle17_ddec_sum_bond_order
 _atom_site_hle17_magmom
 _atom_site_hse06_10hf_bader_spin_density
 _atom_site_hse06_10hf_ddec_charge
 _atom_site_hse06_10hf_ddec_spin_density
 _atom_site_hse06_10hf_ddec_sum_bond_order
 _atom_site_hse06_10hf_magmom
 _atom_site_hse06_bader_spin_density
 _atom_site_hse06_ddec_charge
 _atom_site_hse06_ddec_spin_density
 _atom_site_hse06_ddec_sum_bond_order
 _atom_site_hse06_magmom
 _atom_site_pbe_bader_spin_density
 _atom_site_pbe_cm5_charge
 _atom_site_pbe_ddec_charge
 _atom_site_pbe_ddec_spin_density
 _atom_site_pbe_ddec_sum_bond_order
 _atom_site_pbe_magmom
Ag  Ag0  1  0.42830551  0.61657462  0.24821732  1  0  0.633351  0  1.381903  0  0  0.524335  0  1.809158  0  0  0.543514  0  1.769696  0  0  0.515012  0.509836  0  1.837553  0
Ag  Ag1  1  0.57169307  0.38342372  0.75177816  1  0  0.633365  0  1.381902  0  0  0.524347  0  1.809174  0  0  0.543524  0  1.769714  0  0  0.514993  0.509849  0  1.837568  0
H  H2  1  0.36165476  0.55792929  0.79522585  1  0  0.300333  0  0.893689  0  0  0.281306  0  0.957363  0  0  0.288612  0  0.951461  0  0  0.331878  0.276297  0  0.961353  0
H  H3  1  0.63835148  0.44207304  0.20477162  1  0  0.300353  0  0.893634  0  0  0.281358  0  0.957281  0  0  0.288668  0  0.951374  0  0  0.331867  0.276348  0  0.961271  0
H  H4  1  0.08563432  0.73649238  0.44395400  1  0  0.105431  0  0.972892  0  0  0.113012  0  1.039739  0  0  0.116242  0  1.038304  0  0  0.093267  0.11058  0  1.041293  0
H  H5  1  0.91436629  0.26350795  0.55604129  1  0  0.105427  0  0.972879  0  0  0.113045  0  1.039692  0  0  0.116276  0  1.038254  0  0  0.093265  0.110612  0  1.041249  0
H  H6  1  0.02119489  0.57643582  0.21346063  1  0  0.105816  0  0.965343  0  0  0.113783  0  1.028959  0  0  0.116657  0  1.027143  0  0  0.093708  0.111496  0  1.030825  0
H  H7  1  0.97880408  0.42356052  0.78653634  1  0  0.105907  0  0.965318  0  0  0.113872  0  1.028928  0  0  0.116746  0  1.027112  0  0  0.093711  0.11157  0  1.030811  0
H  H8  1  0.12992806  0.37211310  0.23486232  1  0  0.111826  0  0.983153  0  0  0.118209  0  1.049258  0  0  0.12094  0  1.048561  0  0  0.093237  0.116372  0  1.049734  0
H  H9  1  0.87006730  0.62788323  0.76513585  1  0  0.111731  0  0.983257  0  0  0.118179  0  1.049273  0  0  0.120902  0  1.048586  0  0  0.093221  0.116342  0  1.049751  0
H  H10  1  0.35607638  0.31820473  0.28663063  1  0  0.112552  0  0.983745  0  0  0.119443  0  1.051039  0  0  0.122706  0  1.049299  0  0  0.104612  0.117077  0  1.052482  0
H  H11  1  0.64391657  0.68179160  0.71336447  1  0  0.112558  0  0.983684  0  0  0.119447  0  1.051003  0  0  0.122714  0  1.049252  0  0  0.104583  0.117079  0  1.05245  0
H  H12  1  0.38711008  0.10574021  0.19427046  1  0  0.099471  0  0.954202  0  0  0.110553  0  1.015027  0  0  0.113099  0  1.014165  0  0  0.106594  0.108769  0  1.015734  0
H  H13  1  0.61289211  0.89425812  0.80573098  1  0  0.099487  0  0.954173  0  0  0.110573  0  1.015003  0  0  0.113118  0  1.014142  0  0  0.106592  0.108791  0  1.015709  0
H  H14  1  0.27432150  0.95983680  0.51135660  1  0  0.104911  0  0.958248  0  0  0.111576  0  1.024279  0  0  0.115109  0  1.022402  0  0  0.106348  0.108732  0  1.026341  0
H  H15  1  0.72568154  0.04016648  0.48864678  1  0  0.104935  0  0.958184  0  0  0.111569  0  1.024275  0  0  0.115096  0  1.022398  0  0  0.106351  0.108735  0  1.026309  0
H  H16  1  0.24332893  0.17588324  0.60451070  1  0  0.105647  0  0.950484  0  0  0.113687  0  1.014368  0  0  0.117471  0  1.011454  0  0  0.10679  0.110928  0  1.016605  0
H  H17  1  0.75666729  0.82411805  0.39548851  1  0  0.10564  0  0.950465  0  0  0.113681  0  1.014353  0  0  0.117447  0  1.011459  0  0  0.106785  0.110922  0  1.01659  0
H  H18  1  0.33917081  0.72520108  0.92960747  1  0  0.149855  0  0.936807  0  0  0.16172  0  0.991631  0  0  0.165021  0  0.989285  0  0  0.116456  0.159265  0  0.993475  0
H  H19  1  0.66082534  0.27479426  0.07038976  1  0  0.149861  0  0.936803  0  0  0.161727  0  0.991631  0  0  0.165026  0  0.989284  0  0  0.116457  0.159269  0  0.993476  0
H  H20  1  0.30061401  0.96792028  0.98902180  1  0  0.124222  0  0.955574  0  0  0.134101  0  1.013887  0  0  0.137099  0  1.01296  0  0  0.106958  0.131955  0  1.014689  0
H  H21  1  0.69938578  0.03207804  0.01097835  1  0  0.124203  0  0.955566  0  0  0.134117  0  1.013842  0  0  0.137116  0  1.012913  0  0  0.106964  0.131966  0  1.014642  0
H  H22  1  0.19729671  0.02271882  0.75990188  1  0  0.105896  0  0.955254  0  0  0.111857  0  1.018534  0  0  0.114513  0  1.015876  0  0  0.119508  0.10998  0  1.020354  0
H  H23  1  0.80271032  0.97728250  0.24010001  1  0  0.105865  0  0.955222  0  0  0.111872  0  1.018435  0  0  0.114529  0  1.015778  0  0  0.119531  0.109996  0  1.020256  0
C  C24  1  0.20152797  0.59240872  0.51264939  1  0  -0.023463  0  3.808181  0  0  -0.013908  0  4.05469  0  0  -0.018434  0  4.081565  0  0  -0.025695  -0.010808  0  4.035825  0
C  C25  1  0.79847103  0.40759060  0.48734724  1  0  -0.023316  0  3.807938  0  0  -0.013809  0  4.054428  0  0  -0.018338  0  4.081302  0  0  -0.025698  -0.01071  0  4.035571  0
C  C26  1  0.12074269  0.64783488  0.42333812  1  0  -0.166693  0  3.731712  0  0  -0.20063  0  4.006325  0  0  -0.205533  0  4.029727  0  0  -0.131797  -0.196476  0  3.989588  0
C  C27  1  0.87925428  0.35216246  0.57665693  1  0  -0.166716  0  3.73159  0  0  -0.200684  0  4.006199  0  0  -0.205588  0  4.0296  0  0  -0.131781  -0.19652  0  3.989442  0
C  C28  1  0.08827425  0.56397838  0.30236784  1  0  -0.067777  0  3.751514  0  0  -0.083564  0  4.014561  0  0  -0.08462  0  4.035998  0  0  -0.109219  -0.081639  0  3.998938  0
C  C29  1  0.91172393  0.43601895  0.69762830  1  0  -0.067991  0  3.751521  0  0  -0.083785  0  4.014609  0  0  -0.084842  0  4.036042  0  0  -0.109235  -0.081848  0  3.998996  0
C  C30  1  0.14821114  0.45544308  0.31277183  1  0  -0.210439  0  3.793816  0  0  -0.227683  0  4.05616  0  0  -0.23302  0  4.077755  0  0  -0.137346  -0.223591  0  4.04043  0
C  C31  1  0.85178745  0.54455524  0.68722634  1  0  -0.210228  0  3.793823  0  0  -0.227519  0  4.056111  0  0  -0.232849  0  4.07771  0  0  -0.137345  -0.223428  0  4.040382  0
C  C32  1  0.21840327  0.46997147  0.44289965  1  0  -0.038553  0  3.818861  0  0  -0.02988  0  4.061695  0  0  -0.033867  0  4.088545  0  0  -0.030533  -0.026756  0  4.042596  0
C  C33  1  0.78159652  0.53002685  0.55709871  1  0  -0.038642  0  3.818828  0  0  -0.02994  0  4.061669  0  0  -0.033926  0  4.088519  0  0  -0.030523  -0.026817  0  4.042574  0
C  C34  1  0.28763585  0.39190899  0.51196918  1  0  0.144251  0  3.779818  0  0  0.132852  0  4.035391  0  0  0.142382  0  4.051903  0  0  0.117961  0.126805  0  4.02366  0
C  C35  1  0.71236514  0.60808934  0.48803028  1  0  0.14423  0  3.779799  0  0  0.132805  0  4.035426  0  0  0.142332  0  4.051941  0  0  0.117964  0.12676  0  4.023695  0
C  C36  1  0.30045504  0.26283623  0.45333662  1  0  0.057227  0  3.74183  0  0  0.070516  0  3.975975  0  0  0.07147  0  3.995899  0  0  0.007674  0.069679  0  3.962764  0
C  C37  1  0.69954114  0.73716209  0.54666116  1  0  0.057217  0  3.741823  0  0  0.070488  0  3.976044  0  0  0.07144  0  3.995963  0  0  0.007658  0.069651  0  3.962833  0
C  C38  1  0.33720774  0.24066215  0.33635820  1  0  -0.083577  0  3.687256  0  0  -0.104509  0  3.935693  0  0  -0.10748  0  3.955711  0  0  -0.080007  -0.102599  0  3.922702  0
C  C39  1  0.66278924  0.75933518  0.66363863  1  0  -0.08357  0  3.687245  0  0  -0.104516  0  3.935719  0  0  -0.107487  0  3.955739  0  0  -0.080026  -0.102604  0  3.922733  0
C  C40  1  0.35461091  0.12067640  0.28362773  1  0  -0.065755  0  3.70332  0  0  -0.093441  0  3.954426  0  0  -0.092951  0  3.972351  0  0  -0.074534  -0.093945  0  3.942567  0
C  C41  1  0.64539008  0.87932192  0.71637351  1  0  -0.06574  0  3.703228  0  0  -0.093419  0  3.954346  0  0  -0.092929  0  3.972274  0  0  -0.074491  -0.093923  0  3.942489  0
C  C42  1  0.33398914  0.01977864  0.34743382  1  0  0.013909  0  3.886936  0  0  0.035396  0  4.122515  0  0  0.032719  0  4.142621  0  0  -0.000168  0.037594  0  4.108878  0
C  C43  1  0.66601548  0.98022265  0.65257124  1  0  0.013819  0  3.887007  0  0  0.035325  0  4.122565  0  0  0.032646  0  4.142672  0  0  -0.000185  0.037524  0  4.108929  0
C  C44  1  0.35492516  0.89820928  0.29469239  1  0  0.312964  0  3.728087  0  0  0.288348  0  3.995619  0  0  0.301809  0  4.012693  0  0  0.209099  0.278471  0  3.98504  0
C  C45  1  0.64508225  0.10179004  0.70531277  1  0  0.313277  0  3.727867  0  0  0.288658  0  3.995383  0  0  0.302122  0  4.012456  0  0  0.209164  0.278778  0  3.984806  0
C  C46  1  0.29217820  0.03915033  0.46321808  1  0  -0.075979  0  3.710997  0  0  -0.097658  0  3.954753  0  0  -0.098673  0  3.974726  0  0  -0.076557  -0.096891  0  3.941417  0
C  C47  1  0.70782323  0.96085195  0.53678575  1  0  -0.076047  0  3.710935  0  0  -0.097723  0  3.954721  0  0  -0.098729  0  3.974685  0  0  -0.076602  -0.096953  0  3.941392  0
C  C48  1  0.27546455  0.15979716  0.51494444  1  0  -0.109556  0  3.739058  0  0  -0.129266  0  3.988924  0  0  -0.131722  0  4.007457  0  0  -0.085675  -0.127312  0  3.976238  0
C  C49  1  0.72453407  0.84020413  0.48505606  1  0  -0.109521  0  3.739022  0  0  -0.129217  0  3.988892  0  0  -0.131652  0  4.007423  0  0  -0.085635  -0.127262  0  3.976207  0
C  C50  1  0.25735668  0.62518004  0.64512473  1  0  0.154145  0  3.770583  0  0  0.13265  0  4.021808  0  0  0.144994  0  4.037746  0  0  0.133313  0.124466  0  4.010881  0
C  C51  1  0.74264352  0.37481929  0.35487209  1  0  0.154126  0  3.77057  0  0  0.132748  0  4.021626  0  0  0.145099  0  4.037554  0  0  0.133326  0.124565  0  4.010698  0
C  C52  1  0.25621926  0.74021219  0.73267283  1  0  0.142826  0  3.73475  0  0  0.131817  0  4.004308  0  0  0.134745  0  4.021749  0  0  0.069167  0.129357  0  3.992876  0
C  C53  1  0.74377812  0.25978612  0.26732604  1  0  0.142921  0  3.734575  0  0  0.131889  0  4.0041  0  0  0.134814  0  4.021538  0  0  0.069181  0.129427  0  3.992669  0
C  C54  1  0.29894218  0.77976775  0.86333495  1  0  -0.156241  0  3.686498  0  0  -0.186204  0  3.94466  0  0  -0.185727  0  3.961104  0  0  -0.102076  -0.186106  0  3.933463  0
C  C55  1  0.70106001  0.22023058  0.13666381  1  0  -0.156247  0  3.686313  0  0  -0.186198  0  3.944454  0  0  -0.185724  0  3.960905  0  0  -0.102062  -0.1861  0  3.933255  0
C  C56  1  0.27912803  0.90677622  0.89499554  1  0  -0.15527  0  3.802972  0  0  -0.178752  0  4.073528  0  0  -0.184751  0  4.093852  0  0  -0.118142  -0.174732  0  4.059557  0
C  C57  1  0.72087255  0.09322111  0.10500456  1  0  -0.155353  0  3.802899  0  0  -0.178868  0  4.07347  0  0  -0.184866  0  4.093792  0  0  -0.118235  -0.174839  0  4.059492  0
C  C58  1  0.22620163  0.93738122  0.78310600  1  0  0.091411  0  3.606956  0  0  0.053257  0  3.874763  0  0  0.061689  0  3.888277  0  0  -0.002232  0.047816  0  3.865247  0
C  C59  1  0.77380218  0.06261811  0.21689410  1  0  0.091525  0  3.606761  0  0  0.053348  0  3.874556  0  0  0.061777  0  3.888071  0  0  -0.002185  0.047906  0  3.865041  0
C  C60  1  0.08573745  0.23645348  0.93745292  1  0  0.597402  0  3.664285  0  0  0.524123  0  4.037669  0  0  0.551652  0  4.011592  0  0  0.288133  0.504145  0  4.056849  0
C  C61  1  0.91426319  0.76354978  0.06255185  1  0  0.597296  0  3.664412  0  0  0.52402  0  4.037802  0  0  0.551546  0  4.011726  0  0  0.288163  0.504065  0  4.056941  0
S  S62  1  0.30278951  0.35683714  0.97115455  1  0  1.131602  0  5.815052  0  0  1.030045  0  6.351648  0  0  1.073649  0  6.331137  0  0  0.486005  1.000173  0  6.365073  0
S  S63  1  0.69721151  0.64316416  0.02884724  1  0  1.131692  0  5.814859  0  0  1.030133  0  6.351439  0  0  1.073737  0  6.330931  0  0  0.486053  1.000253  0  6.364864  0
N  N64  1  0.37151010  0.79787878  0.25143109  1  0  -0.413606  0  2.958873  0  0  -0.361084  0  3.261459  0  0  -0.375251  0  3.265981  0  0  -0.339001  -0.351869  0  3.259873  0
N  N65  1  0.62849978  0.20212648  0.74857734  1  0  -0.413872  0  2.958651  0  0  -0.361351  0  3.261235  0  0  -0.37552  0  3.265755  0  0  -0.339037  -0.352136  0  3.259653  0
N  N66  1  0.34199770  0.42954183  0.63911391  1  0  -0.24429  0  3.172328  0  0  -0.202413  0  3.465937  0  0  -0.213287  0  3.479  0  0  -0.235326  -0.195291  0  3.456979  0
N  N67  1  0.65800411  0.57045849  0.36088515  1  0  -0.244214  0  3.172312  0  0  -0.202334  0  3.465939  0  0  -0.213206  0  3.479  0  0  -0.23533  -0.195214  0  3.456979  0
N  N68  1  0.32275496  0.54128996  0.69868747  1  0  -0.160296  0  3.507302  0  0  -0.096847  0  3.733584  0  0  -0.110054  0  3.752767  0  0  -0.262919  -0.087848  0  3.720406  0
N  N69  1  0.67724727  0.45871136  0.30131005  1  0  -0.160413  0  3.507305  0  0  -0.097019  0  3.733514  0  0  -0.110231  0  3.752693  0  0  -0.262882  -0.088013  0  3.720326  0
O  O70  1  0.21135363  0.83705517  0.68270048  1  0  -0.193847  0  2.399227  0  0  -0.118127  0  2.623547  0  0  -0.134688  0  2.631833  0  0  -0.120564  -0.106905  0  2.617964  0
O  O71  1  0.78864778  0.16294414  0.31730012  1  0  -0.193911  0  2.399082  0  0  -0.118217  0  2.623445  0  0  -0.134775  0  2.631729  0  0  -0.120585  -0.106999  0  2.617865  0
O  O72  1  0.36524232  0.38971471  0.11032315  1  0  -0.640327  0  2.119948  0  0  -0.591481  0  2.401878  0  0  -0.611701  0  2.387444  0  0  -0.339238  -0.577625  0  2.411864  0
O  O73  1  0.63475991  0.61028659  0.88967795  1  0  -0.640368  0  2.11978  0  0  -0.591539  0  2.401763  0  0  -0.611755  0  2.387326  0  0  -0.339252  -0.577677  0  2.411751  0
O  O74  1  0.38751337  0.27913097  0.90466193  1  0  -0.609417  0  2.024926  0  0  -0.577949  0  2.299491  0  0  -0.597017  0  2.285871  0  0  -0.336159  -0.564412  0  2.30843  0
O  O75  1  0.61248645  0.72087032  0.09533788  1  0  -0.609437  0  2.024849  0  0  -0.577978  0  2.299444  0  0  -0.597049  0  2.285832  0  0  -0.336197  -0.56444  0  2.308387  0
O  O76  1  0.27240389  0.46608406  0.92210935  1  0  -0.600218  0  2.016874  0  0  -0.56819  0  2.276238  0  0  -0.585596  0  2.262349  0  0  -0.32855  -0.555981  0  2.285525  0
O  O77  1  0.72759514  0.53391822  0.07789230  1  0  -0.600175  0  2.016845  0  0  -0.56819  0  2.276265  0  0  -0.585595  0  2.262374  0  0  -0.32855  -0.555982  0  2.285557  0
F  F78  1  0.98021327  0.29528934  0.98010492  1  0  -0.218635  0  1.199461  0  0  -0.168205  0  1.357752  0  0  -0.178413  0  1.343571  0  0  -0.082523  -0.161018  0  1.368099  0
F  F79  1  0.01978898  0.70471492  0.01990030  1  0  -0.218647  0  1.199525  0  0  -0.168156  0  1.357764  0  0  -0.178365  0  1.343584  0  0  -0.08249  -0.160975  0  1.368103  0
F  F80  1  0.01879039  0.18296305  0.80975856  1  0  -0.240665  0  1.202695  0  0  -0.193974  0  1.367977  0  0  -0.204712  0  1.354712  0  0  -0.092749  -0.186265  0  1.377554  0
F  F81  1  0.98120826  0.81704121  0.19024517  1  0  -0.240634  0  1.202813  0  0  -0.193946  0  1.3681  0  0  -0.204687  0  1.354837  0  0  -0.092761  -0.186244  0  1.377669  0
F  F82  1  0.08947456  0.13513810  0.99237138  1  0  -0.230436  0  1.197641  0  0  -0.188808  0  1.363961  0  0  -0.19858  0  1.3498  0  0  -0.094706  -0.181721  0  1.373976  0
F  F83  1  0.91052286  0.86486317  0.00763161  1  0  -0.230405  0  1.197646  0  0  -0.188806  0  1.363985  0  0  -0.198578  0  1.349823  0  0  -0.094747  -0.181726  0  1.37399  0
