# generated using pymatgen
data_CuH8(CO)7
_symmetry_space_group_name_H-M   'P 1'
_cell_length_a   6.71789421
_cell_length_b   7.84346216
_cell_length_c   11.12082179
_cell_angle_alpha   69.92900681
_cell_angle_beta   71.39705728
_cell_angle_gamma   67.30901112
_symmetry_Int_Tables_number   1
_chemical_formula_structural   CuH8(CO)7
_chemical_formula_sum   'Cu2 H16 C14 O14'
_cell_volume   495.87057634
_cell_formula_units_Z   2
loop_
 _symmetry_equiv_pos_site_id
 _symmetry_equiv_pos_as_xyz
  1  'x, y, z'
loop_
 _atom_site_type_symbol
 _atom_site_label
 _atom_site_symmetry_multiplicity
 _atom_site_fract_x
 _atom_site_fract_y
 _atom_site_fract_z
 _atom_site_occupancy
 _atom_site_hle17_ddec_charge
 _atom_site_hle17_ddec_spin_density
 _atom_site_hle17_ddec_sum_bond_order
 _atom_site_hle17_magmom
 _atom_site_hse06_10hf_ddec_charge
 _atom_site_hse06_10hf_ddec_spin_density
 _atom_site_hse06_10hf_ddec_sum_bond_order
 _atom_site_hse06_10hf_magmom
 _atom_site_hse06_ddec_charge
 _atom_site_hse06_ddec_spin_density
 _atom_site_hse06_ddec_sum_bond_order
 _atom_site_hse06_magmom
 _atom_site_pbe_cm5_charge
 _atom_site_pbe_ddec_charge
 _atom_site_pbe_ddec_spin_density
 _atom_site_pbe_ddec_sum_bond_order
 _atom_site_pbe_magmom
Cu  Cu0  1  0.46614067  0.23543099  0.44664474  1  1.072561  -0.74712  1.584458  -0.548  1.07594  -0.841637  1.969731  -0.678  1.15704  -0.904244  1.909393  -0.756  0.713378  1.007287  -0.790628  2.034966  -0.623
Cu  Cu1  1  0.53385980  0.76456283  0.55335661  1  1.072573  0.747128  1.584454  0.548  1.075985  0.841645  1.969737  0.679  1.157036  0.904249  1.909337  0.756  0.713402  1.007278  0.79063  2.035019  0.623
H  H2  1  0.22111431  0.87568018  0.82940473  1  0.11224  -0.000194  0.939573  0.0  0.121211  -0.000242  0.999332  0.0  0.124189  -0.000176  0.998019  0.0  0.10903  0.11893  -0.00029  1.000625  0.0
H  H3  1  0.77887683  0.12433794  0.17059215  1  0.112225  0.000196  0.939629  0.0  0.121187  0.000242  0.999369  0.0  0.124175  0.000176  0.998043  0.0  0.109001  0.118901  0.00029  1.000664  0.0
H  H4  1  0.10991953  0.74859975  0.07015456  1  0.109297  -3.5e-05  0.93027  0.0  0.120302  2e-06  0.984137  0.0  0.123601  -1e-06  0.982771  0.0  0.110394  0.117848  1.8e-05  0.985427  0.0
H  H5  1  0.89007975  0.25141250  0.92984322  1  0.109232  3.7e-05  0.930365  0.0  0.120248  -2e-06  0.984223  0.0  0.123547  1e-06  0.982857  0.0  0.110348  0.117795  -1.8e-05  0.985511  0.0
H  H6  1  0.56996186  0.51167573  0.28192198  1  0.439302  0.000348  0.85603  0.001  0.413257  -0.000193  0.912115  0.0  0.425395  -6.9e-05  0.894627  0.0  0.296754  0.404466  -0.000273  0.924716  0.0
H  H7  1  0.43003422  0.48832678  0.71807977  1  0.439256  -0.000348  0.856101  -0.001  0.413205  0.000193  0.912194  0.0  0.425343  6.9e-05  0.894705  0.0  0.29674  0.404414  0.000273  0.924795  0.0
H  H8  1  0.35133236  0.51038524  0.26516659  1  0.407873  0.000397  0.888012  0.001  0.381746  -0.000205  0.957496  0.0  0.392689  -6.1e-05  0.942026  0.0  0.29622  0.373975  -0.000322  0.968404  0.0
H  H9  1  0.64864196  0.48962984  0.73485124  1  0.40768  -0.000397  0.888141  -0.001  0.381561  0.000205  0.957716  0.0  0.392497  6.1e-05  0.942257  0.0  0.296108  0.373791  0.000322  0.96862  0.0
H  H10  1  0.81055813  0.13265268  0.53244533  1  0.420735  0.000281  0.878439  0.001  0.39324  -0.00036  0.945329  0.0  0.404676  -0.000222  0.929245  0.0  0.297664  0.384903  -0.000451  0.957008  0.0
H  H11  1  0.18944172  0.86735804  0.46755003  1  0.420647  -0.000281  0.878501  -0.001  0.393151  0.00036  0.945437  0.0  0.404584  0.000222  0.929358  0.0  0.297617  0.384812  0.000451  0.957119  0.0
H  H12  1  0.89312660  0.11030155  0.38709774  1  0.435243  -0.00013  0.859716  0.0  0.408977  -0.000583  0.915745  -0.001  0.420963  -0.000386  0.898588  0.0  0.299833  0.400288  -0.000723  0.928146  -0.001
H  H13  1  0.10687682  0.88969783  0.61290166  1  0.435142  0.000131  0.85986  0.0  0.408921  0.000583  0.915799  0.001  0.420902  0.000386  0.898655  0.0  0.299807  0.400238  0.000723  0.928192  0.001
H  H14  1  0.05158653  0.29640385  0.55015141  1  0.423196  4e-05  0.887517  0.001  0.389608  -0.00044  0.956688  0.0  0.403068  -0.000309  0.937437  0.0  0.291212  0.380035  -0.000541  0.970287  -0.001
H  H15  1  0.94841475  0.70357735  0.44985570  1  0.423213  -4e-05  0.887503  -0.001  0.38964  0.00044  0.956642  0.0  0.403098  0.000309  0.937394  0.0  0.29128  0.380069  0.000541  0.970238  0.001
H  H16  1  0.07861077  0.41592141  0.39898609  1  0.439967  -0.000574  0.815518  0.0  0.422909  -0.001047  0.86917  -0.001  0.432718  -0.000756  0.858469  -0.001  0.322869  0.415644  -0.001247  0.876914  -0.001
H  H17  1  0.92137669  0.58402132  0.60101266  1  0.43986  0.000574  0.815602  0.0  0.422814  0.001047  0.869238  0.001  0.432624  0.000756  0.858536  0.001  0.322937  0.41555  0.001246  0.876975  0.001
C  C18  1  0.42503581  0.13622794  0.70853197  1  0.661461  0.004434  3.891991  0.008  0.618883  0.00017  4.196061  0.003  0.657411  0.000557  4.187246  0.002  0.209832  0.592368  -0.000214  4.199619  0.003
C  C19  1  0.57497266  0.86377988  0.29146794  1  0.661654  -0.004436  3.891613  -0.008  0.618977  -0.000169  4.195914  -0.003  0.657504  -0.000556  4.187102  -0.002  0.209845  0.592453  0.000214  4.199465  -0.003
C  C20  1  0.42505563  0.01572505  0.84598096  1  -0.068002  -0.011583  3.68119  -0.012  -0.058365  -0.00474  3.924095  -0.005  -0.065147  -0.003147  3.944083  -0.004  -0.006301  -0.054189  -0.005719  3.911009  -0.006
C  C21  1  0.57494547  0.98427706  0.15401366  1  -0.067785  0.011596  3.680524  0.012  -0.058282  0.004741  3.923673  0.005  -0.065067  0.003146  3.943675  0.004  -0.006249  -0.0541  0.005718  3.910583  0.006
C  C22  1  0.29206568  0.89875079  0.89557437  1  -0.048518  -0.001436  3.712074  -0.001  -0.076703  -0.000234  3.972346  0.0  -0.076489  4.8e-05  3.990875  0.0  -0.077775  -0.07647  -0.000808  3.960009  -0.001
C  C23  1  0.70793764  0.10125854  0.10442431  1  -0.048574  0.00142  3.711865  0.001  -0.076683  0.000233  3.972196  0.0  -0.076482  -4.9e-05  3.990729  0.0  -0.07777  -0.076447  0.000806  3.959857  0.001
C  C24  1  0.23124646  0.82514580  0.03127205  1  -0.057097  0.001981  3.732178  0.002  -0.081802  0.000101  3.98899  0.0  -0.081754  -6.8e-05  4.007965  0.0  -0.078201  -0.08168  0.000212  3.976569  0.0
C  C25  1  0.76875827  0.17485922  0.96872657  1  -0.057005  -0.001983  3.7323  -0.002  -0.081768  -9.9e-05  3.989078  0.0  -0.081717  6.8e-05  4.008046  0.0  -0.07819  -0.081644  -0.000212  3.976657  0.0
C  C26  1  0.30255503  0.86847662  0.11792669  1  -0.103114  -0.003193  3.724485  -0.003  -0.095238  -0.000461  3.975145  0.0  -0.102228  -0.000139  3.996943  0.0  -0.016006  -0.090857  -0.001037  3.96112  -0.001
C  C27  1  0.69745273  0.13152399  0.88207069  1  -0.103285  0.003183  3.724638  0.003  -0.095279  0.000457  3.975176  0.0  -0.102259  0.000138  3.99695  0.0  -0.015997  -0.0909  0.001035  3.961157  0.001
C  C28  1  0.53155330  0.03758663  0.93030824  1  0.048029  -0.000732  3.684603  -0.001  0.048677  -0.000309  3.917194  0.0  0.049418  -8.1e-05  3.941589  0.0  0.009115  0.048112  -0.000473  3.900989  -0.001
C  C29  1  0.46845881  0.96241078  0.06968286  1  0.047835  0.000734  3.684591  0.001  0.048613  0.000308  3.917227  0.0  0.049353  8e-05  3.94163  0.0  0.009117  0.048047  0.000473  3.90102  0.001
C  C30  1  0.17369505  0.84077254  0.25702010  1  0.663741  -0.000192  3.887796  0.0  0.607061  -0.00011  4.192734  0.0  0.640518  -7.2e-05  4.186256  0.0  0.217693  0.584072  -0.000161  4.197033  0.0
C  C31  1  0.82631334  0.15923091  0.74297734  1  0.663788  0.0002  3.887943  0.0  0.607083  0.000111  4.192846  0.0  0.640537  7.5e-05  4.186359  0.0  0.217768  0.584101  0.000161  4.19715  0.0
O  O32  1  0.43468223  0.05527193  0.62193272  1  -0.63794  -0.113603  2.102929  -0.15  -0.634916  -0.063202  2.420776  -0.091  -0.681639  -0.046537  2.410938  -0.07  -0.329329  -0.59773  -0.074558  2.425804  -0.103
O  O33  1  0.56533567  0.94472581  0.37807074  1  -0.638046  0.113594  2.102857  0.15  -0.634958  0.063196  2.420756  0.091  -0.681671  0.046534  2.410899  0.07  -0.329335  -0.597774  0.074557  2.425801  0.103
O  O34  1  0.40433787  0.31085781  0.68033648  1  -0.628068  0.000465  1.986379  -0.001  -0.593493  0.000782  2.221557  0.0  -0.618505  0.001097  2.206388  0.001  -0.310815  -0.573727  0.000665  2.23048  0.0
O  O35  1  0.59566239  0.68915152  0.31966006  1  -0.628245  -0.000462  1.98637  0.001  -0.593612  -0.000783  2.221597  0.0  -0.618626  -0.001097  2.206417  -0.001  -0.310858  -0.573845  -0.000664  2.230518  0.0
O  O36  1  0.13112835  0.96875236  0.31537050  1  -0.633719  0.000115  2.021627  0.0  -0.568977  -4.6e-05  2.232806  0.0  -0.594369  -8.3e-05  2.22277  0.0  -0.30911  -0.551137  4.5e-05  2.239767  0.0
O  O37  1  0.86887566  0.03125533  0.68462307  1  -0.633635  -0.000119  2.021635  0.0  -0.568931  4.5e-05  2.232818  0.0  -0.594318  8.1e-05  2.222785  0.0  -0.309046  -0.551096  -4.6e-05  2.239785  0.0
O  O38  1  0.10409407  0.69497893  0.30756930  1  -0.654442  0.001968  2.018554  0.002  -0.591528  0.001133  2.236417  0.001  -0.618746  0.000682  2.225964  0.001  -0.314779  -0.572274  0.001584  2.243145  0.002
O  O39  1  0.89591530  0.30502604  0.69243118  1  -0.654527  -0.00197  2.018627  -0.002  -0.591575  -0.001132  2.236446  -0.001  -0.618811  -0.000682  2.22604  -0.001  -0.314889  -0.572319  -0.001584  2.243177  -0.002
O  O40  1  0.50254529  0.42302523  0.27369501  1  -0.796997  -0.058808  1.926267  -0.077  -0.761459  -0.044329  2.130306  -0.062  -0.792122  -0.035369  2.09461  -0.053  -0.573986  -0.738114  -0.049673  2.15669  -0.067
O  O41  1  0.49743573  0.57698488  0.72630936  1  -0.79672  0.058808  1.926398  0.077  -0.761176  0.044328  2.130504  0.062  -0.791838  0.035369  2.094836  0.053  -0.573821  -0.737836  0.049672  2.156923  0.067
O  O42  1  0.77662530  0.19331545  0.44302761  1  -0.795633  -0.068375  1.944248  -0.09  -0.763276  -0.048057  2.161618  -0.068  -0.796196  -0.037421  2.124922  -0.056  -0.580037  -0.73814  -0.054939  2.188731  -0.075
O  O43  1  0.22337372  0.80668817  0.55696791  1  -0.795476  0.068379  1.94438  0.09  -0.763148  0.048055  2.161803  0.068  -0.796049  0.037418  2.125087  0.056  -0.579969  -0.737996  0.054937  2.188917  0.075
O  O44  1  0.14806805  0.29740520  0.45801047  1  -0.810036  -0.056542  1.96399  -0.075  -0.77604  -0.041924  2.189878  -0.059  -0.804463  -0.032958  2.153194  -0.049  -0.577668  -0.753581  -0.047978  2.216589  -0.065
O  O45  1  0.85193257  0.70255886  0.54199573  1  -0.809888  0.056547  1.963934  0.075  -0.775986  0.041926  2.189925  0.059  -0.804392  0.032959  2.153211  0.049  -0.577834  -0.753517  0.047981  2.216639  0.065
