# generated using pymatgen
data_CsH4C7SO6
_symmetry_space_group_name_H-M   'P 1'
_cell_length_a   7.68027023
_cell_length_b   9.62073045
_cell_length_c   13.79585199
_cell_angle_alpha   93.76598998
_cell_angle_beta   89.99920872
_cell_angle_gamma   90.00040954
_symmetry_Int_Tables_number   1
_chemical_formula_structural   CsH4C7SO6
_chemical_formula_sum   'Cs4 H16 C28 S4 O24'
_cell_volume   1017.17167678
_cell_formula_units_Z   4
loop_
 _symmetry_equiv_pos_site_id
 _symmetry_equiv_pos_as_xyz
  1  'x, y, z'
loop_
 _atom_site_type_symbol
 _atom_site_label
 _atom_site_symmetry_multiplicity
 _atom_site_fract_x
 _atom_site_fract_y
 _atom_site_fract_z
 _atom_site_occupancy
 _atom_site_hle17_bader_spin_density
 _atom_site_hle17_ddec_charge
 _atom_site_hle17_ddec_spin_density
 _atom_site_hle17_ddec_sum_bond_order
 _atom_site_hle17_magmom
 _atom_site_hse06_10hf_bader_spin_density
 _atom_site_hse06_10hf_ddec_charge
 _atom_site_hse06_10hf_ddec_spin_density
 _atom_site_hse06_10hf_ddec_sum_bond_order
 _atom_site_hse06_10hf_magmom
 _atom_site_hse06_bader_spin_density
 _atom_site_hse06_ddec_charge
 _atom_site_hse06_ddec_spin_density
 _atom_site_hse06_ddec_sum_bond_order
 _atom_site_hse06_magmom
 _atom_site_pbe_bader_spin_density
 _atom_site_pbe_cm5_charge
 _atom_site_pbe_ddec_charge
 _atom_site_pbe_ddec_spin_density
 _atom_site_pbe_ddec_sum_bond_order
 _atom_site_pbe_magmom
Cs  Cs0  1  0.82128725  0.03005825  0.86119413  1  0  0.974058  0  0.526178  0  0  0.925915  0  0.744439  0  0  0.940972  0  0.720884  0  0  0.863388  0.914178  0  0.761983  0
Cs  Cs1  1  0.32127841  0.96993320  0.63879779  1  0  0.974046  0  0.526207  0  0  0.925918  0  0.744463  0  0  0.940972  0  0.720893  0  0  0.863389  0.914198  0  0.762006  0
Cs  Cs2  1  0.17873723  0.96989227  0.13879932  1  0  0.973982  0  0.526238  0  0  0.925882  0  0.744469  0  0  0.940938  0  0.720899  0  0  0.863345  0.914142  0  0.762023  0
Cs  Cs3  1  0.67872264  0.03008114  0.36118745  1  0  0.974033  0  0.526207  0  0  0.925888  0  0.744488  0  0  0.940934  0  0.720942  0  0  0.863387  0.914163  0  0.762042  0
H  H4  1  0.21758501  0.58100518  0.98825741  1  0  0.123919  0  0.928724  0  0  0.131258  0  0.990576  0  0  0.136571  0  0.987042  0  0  0.12262  0.127215  0  0.99379  0
H  H5  1  0.71755305  0.41903796  0.51175742  1  0  0.123847  0  0.928821  0  0  0.131201  0  0.9907  0  0  0.136528  0  0.987141  0  0  0.122562  0.127162  0  0.993911  0
H  H6  1  0.78244077  0.41900265  0.01175101  1  0  0.123928  0  0.928859  0  0  0.131273  0  0.990717  0  0  0.13659  0  0.987178  0  0  0.122641  0.127238  0  0.993918  0
H  H7  1  0.28245841  0.58097919  0.48823727  1  0  0.123874  0  0.928656  0  0  0.131196  0  0.990565  0  0  0.13651  0  0.987017  0  0  0.122585  0.127146  0  0.993799  0
H  H8  1  0.54723052  0.34492793  0.71073854  1  0  0.136808  0  0.968904  0  0  0.139489  0  1.037115  0  0  0.144099  0  1.033587  0  0  0.11751  0.136432  0  1.039059  0
H  H9  1  0.04727368  0.65506321  0.78926281  1  0  0.136655  0  0.968918  0  0  0.139325  0  1.037229  0  0  0.14397  0  1.033695  0  0  0.117394  0.136285  0  1.039164  0
H  H10  1  0.45271323  0.65505241  0.28925079  1  0  0.136785  0  0.968783  0  0  0.13943  0  1.037076  0  0  0.144043  0  1.033545  0  0  0.117462  0.13636  0  1.039046  0
H  H11  1  0.95270392  0.34492618  0.21074908  1  0  0.136748  0  0.968913  0  0  0.139411  0  1.037147  0  0  0.144023  0  1.03361  0  0  0.117392  0.136294  0  1.039141  0
H  H12  1  0.55115265  0.60704421  0.73735349  1  0  0.110475  0  0.955962  0  0  0.117647  0  1.018302  0  0  0.121507  0  1.017326  0  0  0.11218  0.115006  0  1.018902  0
H  H13  1  0.05115337  0.39294377  0.76263404  1  0  0.110602  0  0.955953  0  0  0.117721  0  1.018321  0  0  0.121586  0  1.017327  0  0  0.112211  0.11508  0  1.018916  0
H  H14  1  0.44880413  0.39293419  0.26262420  1  0  0.110488  0  0.956143  0  0  0.117567  0  1.018559  0  0  0.121431  0  1.01758  0  0  0.112193  0.114938  0  1.019143  0
H  H15  1  0.94879949  0.60704879  0.23737861  1  0  0.110563  0  0.956133  0  0  0.11771  0  1.01847  0  0  0.121573  0  1.017492  0  0  0.112238  0.115063  0  1.01908  0
H  H16  1  0.25493867  0.14671960  0.90402023  1  0  0.389915  0  0.896537  0  0  0.360318  0  0.973968  0  0  0.373653  0  0.959351  0  0  0.310772  0.350739  0  0.98466  0
H  H17  1  0.75497020  0.85331330  0.59599669  1  0  0.389835  0  0.896661  0  0  0.360263  0  0.974051  0  0  0.373616  0  0.959391  0  0  0.310718  0.350692  0  0.984734  0
H  H18  1  0.74505326  0.85328376  0.09599759  1  0  0.39015  0  0.896253  0  0  0.36049  0  0.973748  0  0  0.373824  0  0.959127  0  0  0.310838  0.35092  0  0.984427  0
H  H19  1  0.24504907  0.14669980  0.40399942  1  0  0.390049  0  0.896385  0  0  0.36044  0  0.973788  0  0  0.373771  0  0.959176  0  0  0.310821  0.35087  0  0.984461  0
C  C20  1  0.38460201  0.60832293  0.86325253  1  0  -0.043771  0  3.582011  0  0  -0.018431  0  3.829756  0  0  -0.014027  0  3.843531  0  0  0.021472  -0.021585  0  3.820528  0
C  C21  1  0.88457768  0.39169247  0.63675337  1  0  -0.043354  0  3.581838  0  0  -0.017998  0  3.829592  0  0  -0.014047  0  3.843658  0  0  0.021693  -0.021345  0  3.820479  0
C  C22  1  0.61539903  0.39167139  0.13674271  1  0  -0.044208  0  3.582331  0  0  -0.018399  0  3.829729  0  0  -0.014041  0  3.843583  0  0  0.02149  -0.021655  0  3.820625  0
C  C23  1  0.11541425  0.60830843  0.36324628  1  0  -0.043497  0  3.581914  0  0  -0.018376  0  3.829846  0  0  -0.013976  0  3.843651  0  0  0.021602  -0.021362  0  3.820508  0
C  C24  1  0.29061862  0.52955173  0.92850642  1  0  -0.023567  0  3.68126  0  0  -0.063274  0  3.933502  0  0  -0.064144  0  3.952951  0  0  -0.054645  -0.063034  0  3.922004  0
C  C25  1  0.79059373  0.47047903  0.57150976  1  0  -0.023678  0  3.681467  0  0  -0.063393  0  3.933755  0  0  -0.064275  0  3.953332  0  0  -0.054771  -0.063149  0  3.922289  0
C  C26  1  0.70939154  0.47045165  0.07149833  1  0  -0.023549  0  3.681461  0  0  -0.063329  0  3.93366  0  0  -0.064182  0  3.953122  0  0  -0.054672  -0.063086  0  3.922244  0
C  C27  1  0.20941122  0.52953112  0.42848851  1  0  -0.023728  0  3.681336  0  0  -0.063367  0  3.933668  0  0  -0.064231  0  3.953124  0  0  -0.054789  -0.063119  0  3.922104  0
C  C28  1  0.28877524  0.38620065  0.91677047  1  0  -0.176427  0  3.660992  0  0  -0.153239  0  3.895342  0  0  -0.163599  0  3.915142  0  0  -0.008657  -0.14745  0  3.883453  0
C  C29  1  0.78878749  0.61382809  0.58324642  1  0  -0.175854  0  3.660727  0  0  -0.152783  0  3.895015  0  0  -0.163381  0  3.915031  0  0  -0.008525  -0.147094  0  3.88319  0
C  C30  1  0.71122059  0.61380198  0.08323790  1  0  -0.176087  0  3.660865  0  0  -0.152869  0  3.895072  0  0  -0.163232  0  3.914878  0  0  -0.00859  -0.147143  0  3.883264  0
C  C31  1  0.21122918  0.38618102  0.41675184  1  0  -0.175874  0  3.660644  0  0  -0.152867  0  3.895087  0  0  -0.163242  0  3.914883  0  0  -0.008494  -0.146982  0  3.883101  0
C  C32  1  0.38359489  0.31553926  0.83585997  1  0  0.398662  0  3.75018  0  0  0.381236  0  4.009267  0  0  0.401097  0  4.012769  0  0  0.140534  0.367514  0  4.007131  0
C  C33  1  0.88362262  0.68447573  0.66415390  1  0  0.398196  0  3.75041  0  0  0.38089  0  4.009447  0  0  0.400625  0  4.013188  0  0  0.140402  0.367134  0  4.007377  0
C  C34  1  0.61638141  0.68445673  0.16414326  1  0  0.398203  0  3.750374  0  0  0.380983  0  4.00924  0  0  0.400818  0  4.012783  0  0  0.140471  0.367254  0  4.007198  0
C  C35  1  0.11639014  0.31552847  0.33584795  1  0  0.398164  0  3.750404  0  0  0.380697  0  4.009596  0  0  0.400601  0  4.013041  0  0  0.140411  0.367023  0  4.007367  0
C  C36  1  0.48076309  0.39963900  0.77160622  1  0  -0.106627  0  3.552833  0  0  -0.127796  0  3.803328  0  0  -0.125349  0  3.81247  0  0  -0.05767  -0.12833  0  3.795741  0
C  C37  1  0.98078613  0.60036074  0.72839883  1  0  -0.105938  0  3.552754  0  0  -0.127118  0  3.803168  0  0  -0.12502  0  3.812563  0  0  -0.057442  -0.127831  0  3.795693  0
C  C38  1  0.51920019  0.60034579  0.22838677  1  0  -0.106568  0  3.552889  0  0  -0.127586  0  3.803302  0  0  -0.125135  0  3.812447  0  0  -0.057681  -0.128187  0  3.795836  0
C  C39  1  0.01920320  0.39963235  0.27160729  1  0  -0.106206  0  3.552882  0  0  -0.127379  0  3.803296  0  0  -0.124924  0  3.812416  0  0  -0.057487  -0.127758  0  3.795663  0
C  C40  1  0.47967292  0.54238149  0.78557252  1  0  -0.043283  0  3.71328  0  0  -0.069095  0  3.963291  0  0  -0.074586  0  3.983222  0  0  -0.067419  -0.065466  0  3.949037  0
C  C41  1  0.97967456  0.45761885  0.71442672  1  0  -0.043702  0  3.713384  0  0  -0.06945  0  3.963448  0  0  -0.074871  0  3.983487  0  0  -0.067516  -0.065783  0  3.949235  0
C  C42  1  0.52029818  0.45760389  0.21441466  1  0  -0.043182  0  3.713675  0  0  -0.068972  0  3.963586  0  0  -0.074441  0  3.98353  0  0  -0.067323  -0.06532  0  3.949387  0
C  C43  1  0.02030174  0.54237535  0.28558013  1  0  -0.043718  0  3.713785  0  0  -0.069488  0  3.963868  0  0  -0.074983  0  3.983821  0  0  -0.067447  -0.065875  0  3.949577  0
C  C44  1  0.18588711  0.30585839  0.98580065  1  0  0.659148  0  3.830911  0  0  0.608831  0  4.131825  0  0  0.641407  0  4.123605  0  0  0.225603  0.586907  0  4.137232  0
C  C45  1  0.68591594  0.69418190  0.51421778  1  0  0.658889  0  3.830764  0  0  0.608895  0  4.131222  0  0  0.641485  0  4.123003  0  0  0.225753  0.586986  0  4.136616  0
C  C46  1  0.81411784  0.69415340  0.01421868  1  0  0.65877  0  3.831433  0  0  0.608718  0  4.131938  0  0  0.641307  0  4.123703  0  0  0.225613  0.586806  0  4.13735  0
C  C47  1  0.31411505  0.30582791  0.48577613  1  0  0.659101  0  3.830811  0  0  0.608975  0  4.131485  0  0  0.641558  0  4.123257  0  0  0.225738  0.587053  0  4.136883  0
S  S48  1  0.38570863  0.79327518  0.88213572  1  0  1.271405  0  5.768067  0  0  1.181176  0  6.289667  0  0  1.229213  0  6.269761  0  0  0.48016  1.148489  0  6.30024  0
S  S49  1  0.88567671  0.20674367  0.61784770  1  0  1.271593  0  5.768234  0  0  1.181381  0  6.289842  0  0  1.229466  0  6.269959  0  0  0.480294  1.148706  0  6.300409  0
S  S50  1  0.61431455  0.20671897  0.11785734  1  0  1.271169  0  5.768515  0  0  1.180852  0  6.290151  0  0  1.228906  0  6.270245  0  0  0.480064  1.148176  0  6.300743  0
S  S51  1  0.11431001  0.79325898  0.38214760  1  0  1.271265  0  5.768355  0  0  1.181058  0  6.290021  0  0  1.229099  0  6.27013  0  0  0.480152  1.148354  0  6.300559  0
O  O52  1  0.42934667  0.81737703  0.98540252  1  0  -0.666771  0  1.946937  0  0  -0.62482  0  2.196674  0  0  -0.653978  0  2.190143  0  0  -0.382746  -0.604448  0  2.199912  0
O  O53  1  0.92928169  0.18268067  0.51457249  1  0  -0.666672  0  1.946799  0  0  -0.62464  0  2.196522  0  0  -0.653871  0  2.189998  0  0  -0.382712  -0.604291  0  2.199803  0
O  O54  1  0.57076895  0.18261212  0.01457961  1  0  -0.666608  0  1.947103  0  0  -0.624607  0  2.196883  0  0  -0.653764  0  2.190371  0  0  -0.382668  -0.604219  0  2.200072  0
O  O55  1  0.07070763  0.81733030  0.48542288  1  0  -0.666753  0  1.946846  0  0  -0.624722  0  2.196562  0  0  -0.653895  0  2.190039  0  0  -0.382773  -0.604322  0  2.199848  0
O  O56  1  0.51811882  0.84052692  0.81490990  1  0  -0.724314  0  2.001811  0  0  -0.679796  0  2.258431  0  0  -0.702242  0  2.246402  0  0  -0.475476  -0.661495  0  2.264218  0
O  O57  1  0.01811270  0.15947746  0.68504799  1  0  -0.724461  0  2.002078  0  0  -0.679991  0  2.258774  0  0  -0.70243  0  2.246703  0  0  -0.475571  -0.661716  0  2.264615  0
O  O58  1  0.48184837  0.15946134  0.18504754  1  0  -0.724176  0  2.001984  0  0  -0.679701  0  2.258691  0  0  -0.702126  0  2.24663  0  0  -0.475483  -0.661423  0  2.264531  0
O  O59  1  0.98187402  0.84052518  0.31494731  1  0  -0.72421  0  2.002208  0  0  -0.67974  0  2.258889  0  0  -0.70217  0  2.246837  0  0  -0.475379  -0.661458  0  2.26473  0
O  O60  1  0.20907522  0.83943409  0.85841586  1  0  -0.674434  0  1.91912  0  0  -0.633577  0  2.166971  0  0  -0.659374  0  2.156803  0  0  -0.362165  -0.615661  0  2.173734  0
O  O61  1  0.70905562  0.16056602  0.64158047  1  0  -0.674557  0  1.919072  0  0  -0.633638  0  2.166831  0  0  -0.659547  0  2.156724  0  0  -0.36218  -0.615761  0  2.173601  0
O  O62  1  0.79092843  0.16057171  0.14163318  1  0  -0.674488  0  1.919147  0  0  -0.63348  0  2.166849  0  0  -0.65934  0  2.156785  0  0  -0.362252  -0.615583  0  2.173613  0
O  O63  1  0.29093240  0.83943235  0.35841334  1  0  -0.674457  0  1.91914  0  0  -0.633587  0  2.166927  0  0  -0.659398  0  2.156801  0  0  -0.36219  -0.615633  0  2.173678  0
O  O64  1  0.11399388  0.36095337  0.05781593  1  0  -0.520725  0  1.908874  0  0  -0.482791  0  2.125723  0  0  -0.503761  0  2.119944  0  0  -0.274198  -0.468886  0  2.129486  0
O  O65  1  0.61403565  0.63909183  0.44219826  1  0  -0.52048  0  1.908785  0  0  -0.482632  0  2.125477  0  0  -0.503652  0  2.119687  0  0  -0.274141  -0.468777  0  2.129277  0
O  O66  1  0.88601367  0.63906560  0.94220201  1  0  -0.52063  0  1.909052  0  0  -0.48277  0  2.12581  0  0  -0.503761  0  2.120039  0  0  -0.274203  -0.468881  0  2.129581  0
O  O67  1  0.38600576  0.36092290  0.55779206  1  0  -0.520674  0  1.908783  0  0  -0.482801  0  2.125568  0  0  -0.503804  0  2.119792  0  0  -0.274141  -0.468894  0  2.129338  0
O  O68  1  0.17253016  0.16822323  0.96217242  1  0  -0.612365  0  2.130791  0  0  -0.564936  0  2.359551  0  0  -0.585591  0  2.343059  0  0  -0.417247  -0.550871  0  2.371451  0
O  O69  1  0.67255768  0.83181325  0.53785034  1  0  -0.612418  0  2.130959  0  0  -0.565131  0  2.359639  0  0  -0.585772  0  2.343132  0  0  -0.417381  -0.551062  0  2.371528  0
O  O70  1  0.82747869  0.83178498  0.03785414  1  0  -0.612564  0  2.130997  0  0  -0.565171  0  2.359787  0  0  -0.585823  0  2.343285  0  0  -0.41743  -0.551104  0  2.371681  0
O  O71  1  0.32746680  0.16819477  0.46214719  1  0  -0.612651  0  2.130929  0  0  -0.565247  0  2.359717  0  0  -0.585889  0  2.343215  0  0  -0.4175  -0.551186  0  2.371623  0
O  O72  1  0.37803439  0.18348697  0.82068339  1  0  -0.471979  0  1.93831  0  0  -0.428313  0  2.154827  0  0  -0.441662  0  2.147634  0  0  -0.293999  -0.419323  0  2.160145  0
O  O73  1  0.87808456  0.81652813  0.67933194  1  0  -0.471902  0  1.938492  0  0  -0.428111  0  2.154833  0  0  -0.441833  0  2.147757  0  0  -0.294108  -0.419346  0  2.160236  0
O  O74  1  0.62193280  0.81650826  0.17932347  1  0  -0.472215  0  1.938506  0  0  -0.428213  0  2.154883  0  0  -0.441572  0  2.147704  0  0  -0.294007  -0.419324  0  2.160239  0
O  O75  1  0.12194513  0.18347612  0.32067064  1  0  -0.472009  0  1.938481  0  0  -0.428408  0  2.155032  0  0  -0.44175  0  2.147814  0  0  -0.294019  -0.419308  0  2.160325  0
