# generated using pymatgen
data_Al2H42C43O10
_symmetry_space_group_name_H-M   'P 1'
_cell_length_a   6.61445540
_cell_length_b   20.35609112
_cell_length_c   23.73011392
_cell_angle_alpha   89.69628233
_cell_angle_beta   93.25575683
_cell_angle_gamma   92.35291756
_symmetry_Int_Tables_number   1
_chemical_formula_structural   Al2H42C43O10
_chemical_formula_sum   'Al4 H84 C86 O20'
_cell_volume   3187.26769349
_cell_formula_units_Z   2
loop_
 _symmetry_equiv_pos_site_id
 _symmetry_equiv_pos_as_xyz
  1  'x, y, z'
loop_
 _atom_site_type_symbol
 _atom_site_label
 _atom_site_symmetry_multiplicity
 _atom_site_fract_x
 _atom_site_fract_y
 _atom_site_fract_z
 _atom_site_occupancy
 _atom_site_pbe_bader_charge
 _atom_site_pbe_bader_spin_density
 _atom_site_pbe_cm5_charge
 _atom_site_pbe_ddec_charge
 _atom_site_pbe_ddec_spin_density
 _atom_site_pbe_ddec_sum_bond_order
 _atom_site_pbe_magmom
Al  Al0  1  0.10618044  0.49557976  0.50320805  1  2.500953  0  0.398305  1.639869  0  2.587907  0
Al  Al1  1  0.60468526  0.49278850  0.49906046  1  2.497485  0  0.39653  1.638457  0  2.585528  0
Al  Al2  1  0.74308959  0.00089593  0.00599996  1  2.502724  0  0.397441  1.642673  0  2.581707  0
Al  Al3  1  0.24382868  0.00253451  0.00669800  1  2.501212  0  0.395463  1.637627  0  2.590452  0
H  H4  1  0.97883502  0.62287004  0.84448264  1  0.057328  0  0.097969  0.093013  0  1.028555  0
H  H5  1  0.72096594  0.87832708  0.64839638  1  0.039384  0  0.098365  0.097837  0  0.99981  0
H  H6  1  0.90837213  0.78642852  0.98536879  1  0.036764  0  0.105586  0.111934  0  1.010477  0
H  H7  1  0.71593319  0.81761161  0.55951873  1  0.045278  0  0.097343  0.097254  0  1.009904  0
H  H8  1  0.60373739  0.30625997  0.73751081  1  0.026648  0  0.092904  0.091611  0  0.985423  0
H  H9  1  0.04297335  0.28775875  0.84345185  1  0.034642  0  0.094843  0.094327  0  0.978343  0
H  H10  1  0.95106495  0.35910837  0.76949669  1  0.052314  0  0.093661  0.092506  0  0.974378  0
H  H11  1  0.88930166  0.12971056  0.72808275  1  0.004014  0  0.094817  0.063815  0  0.962077  0
H  H12  1  0.92011636  0.19941297  0.65048653  1  0.018761  0  0.095693  0.09802  0  0.977627  0
H  H13  1  0.62751216  0.17538423  0.78257812  1  0.043502  0  0.094472  0.092533  0  1.007864  0
H  H14  1  0.63976587  0.71692432  0.17270950  1  0.031708  0  0.092248  0.090417  0  0.984733  0
H  H15  1  0.54018347  0.63617319  0.23705579  1  0.01675  0  0.092243  0.091408  0  1.012204  0
H  H16  1  0.08741324  0.73590127  0.27409509  1  0.004971  0  0.092992  0.057873  0  0.988178  0
H  H17  1  0.27002989  0.70836626  0.16287547  1  0.037411  0  0.092903  0.095917  0  0.990397  0
H  H18  1  0.58918672  0.77425922  0.33449588  1  0.034138  0  0.093665  0.096152  0  0.994877  0
H  H19  1  0.33081823  0.78465249  0.34656224  1  0.030761  0  0.094921  0.096019  0  0.984685  0
H  H20  1  0.69985098  0.67757075  0.28828303  1  0.044746  0  0.09294  0.087834  0  1.011155  0
H  H21  1  0.76134771  0.76540115  0.22685048  1  0.018909  0  0.091127  0.08863  0  1.031246  0
H  H22  1  0.06710927  0.13634058  0.31391927  1  0.087098  0  0.100544  0.100565  0  0.997104  0
H  H23  1  0.77880655  0.31391195  0.09145431  1  0.057447  0  0.100782  0.099092  0  1.018474  0
H  H24  1  0.76729829  0.20788903  0.04136239  1  0.081559  0  0.109116  0.114322  0  0.989306  0
H  H25  1  0.05115167  0.18425147  0.40486750  1  0.026808  0  0.097346  0.097372  0  1.0116  0
H  H26  1  0.68057615  0.24823609  0.82134300  1  0.032084  0  0.094174  0.094205  0  0.976294  0
H  H27  1  0.23803420  0.25596544  0.80548550  1  0.009214  0  0.09342  0.09411  0  0.993947  0
H  H28  1  0.17019850  0.33635017  0.73643012  1  0.051853  0  0.095106  0.094024  0  0.983299  0
H  H29  1  0.15008053  0.05545444  0.68483620  1  0.024096  0  0.085288  0.110899  0  1.002998  0
H  H30  1  0.26284421  0.12642767  0.65350222  1  0.014985  0  0.08353  0.108723  0  1.014736  0
H  H31  1  0.41156462  0.07548786  0.69871077  1  0.019967  0  0.08471  0.110205  0  1.006083  0
H  H32  1  0.33058794  0.17579736  0.75126199  1  0.006924  0  0.085351  0.072707  0  1.032286  0
H  H33  1  0.21653915  0.10529837  0.78139122  1  0.044055  0  0.090688  0.087694  0  0.997009  0
H  H34  1  0.97976959  0.62188640  0.66011059  1  0.032442  0  0.103672  0.105374  0  1.01256  0
H  H35  1  0.59815581  0.23380482  0.69678635  1  0.013795  0  0.092689  0.0927  0  0.986065  0
H  H36  1  0.15465875  0.23446321  0.67723226  1  0.014588  0  0.094322  0.092578  0  0.999791  0
H  H37  1  0.25413359  0.59738883  0.17560873  1  0.010108  0  0.081882  0.10498  0  1.017123  0
H  H38  1  0.29717927  0.56435698  0.24476168  1  0.043783  0  0.084743  0.111406  0  1.030199  0
H  H39  1  0.07248549  0.54231055  0.20425661  1  0.019083  0  0.085492  0.112447  0  1.005288  0
H  H40  1  0.00873298  0.62293392  0.27955846  1  0.00507  0  0.088571  0.079716  0  0.996274  0
H  H41  1  0.93983921  0.65122897  0.21119601  1  0.027579  0  0.090021  0.086381  0  0.990266  0
H  H42  1  0.12126780  0.77385411  0.18233899  1  0.044258  0  0.096464  0.10018  0  0.988664  0
H  H43  1  0.00727511  0.75980613  0.45739583  1  0.019231  0  0.07942  0.102451  0  1.012569  0
H  H44  1  0.01193613  0.67269310  0.46069969  1  0.044825  0  0.087224  0.122855  0  1.023636  0
H  H45  1  0.86098130  0.71057670  0.40677168  1  0.005558  0  0.079145  0.102991  0  1.023272  0
H  H46  1  0.63988236  0.66767922  0.48068478  1  0.05435  0  0.095317  0.099318  0  1.006975  0
H  H47  1  0.63584745  0.75421264  0.47791715  1  0.015621  0  0.088929  0.082044  0  0.98036  0
H  H48  1  0.84230903  0.84001746  0.30339986  1  0.007619  0  0.079244  0.099284  0  1.028305  0
H  H49  1  0.83159618  0.86927011  0.23230844  1  0.019757  0  0.086581  0.114541  0  1.018979  0
H  H50  1  0.86459851  0.92532999  0.28900953  1  0.023753  0  0.087678  0.115879  0  0.995945  0
H  H51  1  0.51005883  0.92305952  0.24504561  1  0.05557  0  0.09085  0.084254  0  0.985025  0
H  H52  1  0.51984533  0.90459417  0.31768234  1  -0.001786  0  0.088957  0.08074  0  0.971982  0
H  H53  1  0.26370587  0.84058800  0.26225478  1  0.001462  0  0.097032  0.066534  0  0.974521  0
H  H54  1  0.46114784  0.38399025  0.07281211  1  0.040483  0  0.085398  0.114289  0  1.014091  0
H  H55  1  0.55015598  0.46743072  0.08012384  1  0.015455  0  0.082668  0.108472  0  1.006576  0
H  H56  1  0.34508489  0.43671724  0.11943680  1  0.034573  0  0.083192  0.108811  0  1.010955  0
H  H57  1  0.67052424  0.44620819  0.18008793  1  0.051231  0  0.090549  0.084149  0  1.028048  0
H  H58  1  0.78826907  0.39499700  0.13452493  1  0.027613  0  0.091822  0.084483  0  0.995454  0
H  H59  1  0.46811433  0.37847579  0.35156616  1  0.082731  0  0.104435  0.108228  0  1.071185  0
H  H60  1  0.38074913  0.23476737  0.53031729  1  0.014154  0  0.078794  0.101669  0  1.011968  0
H  H61  1  0.36596783  0.32129088  0.53637105  1  0.060053  0  0.091888  0.128354  0  1.014719  0
H  H62  1  0.21627372  0.26919124  0.57832174  1  0.052289  0  0.080605  0.105133  0  1.033138  0
H  H63  1  0.00023258  0.31258511  0.49829097  1  0.07893  0  0.099819  0.106954  0  0.986121  0
H  H64  1  0.01294517  0.22621956  0.49364322  1  0.018162  0  0.087595  0.078936  0  0.983903  0
H  H65  1  0.33274295  0.12855229  0.15258392  1  0.079302  0  0.104611  0.104976  0  1.025342  0
H  H66  1  0.70370242  0.41788295  0.32390700  1  0.020722  0  0.094095  0.129875  0  1.000377  0
H  H67  1  0.77089200  0.45496173  0.26021416  1  0.014589  0  0.084827  0.110584  0  1.025758  0
H  H68  1  0.61561574  0.49698734  0.30578996  1  0.031458  0  0.086125  0.117346  0  1.00464  0
H  H69  1  0.41012893  0.45018727  0.22246415  1  0.026252  0  0.090941  0.08364  0  1.007474  0
H  H70  1  0.32713402  0.41768917  0.28549381  1  0.049371  0  0.092826  0.088998  0  1.006425  0
H  H71  1  0.20878267  0.13507726  0.22112086  1  0.034541  0  0.101015  0.100706  0  1.018858  0
H  H72  1  0.03217686  0.69456068  0.02854518  1  0.02951  0  0.086893  0.113239  0  1.004082  0
H  H73  1  0.76463991  0.68871554  0.01653102  1  0.02279  0  0.087646  0.113789  0  1.001127  0
H  H74  1  0.90349246  0.61629023  0.02599287  1  -0.00172  0  0.083303  0.10682  0  1.008293  0
H  H75  1  0.80744115  0.62900213  0.92464625  1  0.024924  0  0.092988  0.086  0  0.972613  0
H  H76  1  0.07157526  0.63622969  0.93637673  1  0.033735  0  0.093736  0.086836  0  0.970472  0
H  H77  1  0.34246909  0.89629934  0.82045421  1  0.024357  0  0.087288  0.117972  0  0.995902  0
H  H78  1  0.19429223  0.88356809  0.75649492  1  0.040589  0  0.081862  0.109119  0  1.038821  0
H  H79  1  0.25841096  0.96491437  0.78004532  1  0.035697  0  0.083545  0.111592  0  1.010522  0
H  H80  1  0.89949873  0.93717194  0.80175512  1  0.029487  0  0.089393  0.081386  0  1.010644  0
H  H81  1  0.05427746  0.95092202  0.86230002  1  0.058738  0  0.096135  0.094752  0  1.019306  0
H  H82  1  0.98416073  0.62176020  0.74254717  1  0.044161  0  0.099774  0.099285  0  1.016077  0
H  H83  1  0.78842956  0.88413125  0.74982491  1  0.089209  0  0.099904  0.099345  0  1.044803  0
H  H84  1  0.38607978  0.53792209  0.56385464  1  0.60788  0  0.355162  0.436111  0  0.848459  0
H  H85  1  0.85140280  0.50843409  0.42847233  1  0.625422  0  0.353007  0.432461  0  0.853904  0
H  H86  1  0.47069064  0.96610300  0.93914665  1  0.616804  0  0.355841  0.43493  0  0.848628  0
H  H87  1  0.01036465  0.03684830  0.07372291  1  0.593672  0  0.355537  0.432976  0  0.849717  0
C  C88  1  0.35267948  0.57040034  0.42110760  1  1.677009  0  0.270838  0.717267  0  4.172664  0
C  C89  1  0.32184943  0.39471468  0.44769923  1  1.559032  0  0.271813  0.648248  0  4.102316  0
C  C90  1  0.85144881  0.41702339  0.57745150  1  1.681114  0  0.277159  0.719338  0  4.164585  0
C  C91  1  0.87923010  0.59683609  0.55376340  1  1.586967  0  0.275158  0.668923  0  4.077536  0
C  C92  1  0.95020571  0.84534790  0.91116184  1  -0.028214  0  -0.015506  -0.087884  0  3.998851  0
C  C93  1  0.87023369  0.66220979  0.58191386  1  -0.044435  0  -0.013305  -0.082753  0  3.954489  0
C  C94  1  0.93393364  0.72620257  0.91204375  1  -0.018711  0  -0.010643  0.068949  0  3.947821  0
C  C95  1  0.92450067  0.78510153  0.93995715  1  -0.000313  0  -0.09432  -0.165986  0  4.002696  0
C  C96  1  0.96383475  0.84963605  0.85281591  1  0.004118  0  -0.002678  0.04836  0  3.870097  0
C  C97  1  0.93769828  0.78928054  0.82151431  1  -0.032165  0  0.002788  -0.005106  0  3.873819  0
C  C98  1  0.94463947  0.72814598  0.85202499  1  0.001984  0  -0.010474  0.01863  0  3.991344  0
C  C99  1  0.90297999  0.78591654  0.76041818  1  -0.029721  0  -0.002854  0.037945  0  3.935714  0
C  C100  1  0.92609017  0.72591590  0.73145975  1  0.048133  0  -0.004859  0.031863  0  3.962255  0
C  C101  1  0.96484457  0.66820015  0.76373618  1  -0.087431  0  -0.095978  -0.130349  0  4.043348  0
C  C102  1  0.96337084  0.66888140  0.82131549  1  -0.041069  0  -0.098726  -0.138522  0  4.057234  0
C  C103  1  0.82626648  0.83993593  0.72815249  1  -0.084706  0  -0.0941  -0.130277  0  4.035704  0
C  C104  1  0.78578736  0.83660811  0.67104007  1  -0.06003  0  -0.096434  -0.141585  0  4.037939  0
C  C105  1  0.82058551  0.77872826  0.64031347  1  0.04218  0  -0.01155  0.080549  0  4.052774  0
C  C106  1  0.89353651  0.72296687  0.67063062  1  -0.008207  0  -0.003796  0.034818  0  3.960423  0
C  C107  1  0.77409929  0.77435892  0.58149859  1  -0.059957  0  -0.093191  -0.195814  0  3.973933  0
C  C108  1  0.79231956  0.71697879  0.55150950  1  0.089332  0  -0.004847  0.10469  0  3.950569  0
C  C109  1  0.92153239  0.66558988  0.63922296  1  -0.055554  0  -0.087076  -0.149789  0  3.977184  0
C  C110  1  0.72159011  0.22108563  0.78400911  1  -0.037835  0  -0.15629  -0.19741  0  3.871799  0
C  C111  1  0.07699587  0.26743520  0.80243294  1  -0.007463  0  -0.154242  -0.186712  0  3.855141  0
C  C112  1  0.03033125  0.31679850  0.75431754  1  -0.05885  0  -0.1522  -0.183348  0  3.847598  0
C  C113  1  0.85968834  0.36802653  0.62135552  1  0.158988  0  -0.05045  -0.225467  0  3.978458  0
C  C114  1  0.94674758  0.20309695  0.79240134  1  0.129286  0  0.002104  0.138554  0  3.873206  0
C  C115  1  0.68761728  0.26204663  0.72957222  1  -0.019765  0  -0.155396  -0.194533  0  3.867228  0
C  C116  1  0.89497209  0.28275399  0.70648249  1  0.154633  0  0.000366  0.169858  0  3.902739  0
C  C117  1  0.99988510  0.22010683  0.68862999  1  -0.006108  0  -0.150636  -0.224384  0  3.826732  0
C  C118  1  0.00687008  0.16886138  0.73722738  1  0.016466  0  -0.076879  -0.006571  0  3.760066  0
C  C119  1  0.87221162  0.32794120  0.65937727  1  -0.474082  0  -0.013473  -0.018932  0  4.015557  0
C  C120  1  0.97054781  0.15954123  0.84064448  1  -0.440825  0  -0.017024  -0.02336  0  4.038018  0
C  C121  1  0.98515639  0.12328133  0.88136446  1  0.125743  0  -0.052519  -0.22341  0  3.978408  0
C  C122  1  0.57108131  0.68379161  0.25771690  1  -0.019614  0  -0.158408  -0.19714  0  3.864721  0
C  C123  1  0.19017352  0.70541680  0.25133510  1  0.030979  0  -0.079979  -0.020988  0  3.78852  0
C  C124  1  0.24559672  0.74281034  0.19722149  1  -0.048594  0  -0.154157  -0.232262  0  3.850796  0
C  C125  1  0.48943190  0.87257474  0.12548066  1  0.133452  0  -0.051662  -0.222534  0  3.967696  0
C  C126  1  0.38635669  0.70242773  0.29096157  1  0.126403  0  0.001746  0.14077  0  3.86654  0
C  C127  1  0.61982273  0.73814461  0.21443380  1  -0.019156  0  -0.158715  -0.196102  0  3.864839  0
C  C128  1  0.44316577  0.78586938  0.20859925  1  0.126019  0  0.00286  0.145249  0  3.859079  0
C  C129  1  0.41984521  0.82338763  0.26530754  1  0.044002  0  -0.076667  -0.016435  0  3.769141  0
C  C130  1  0.43546123  0.77296771  0.31400302  1  -0.030837  0  -0.151669  -0.226035  0  3.849271  0
C  C131  1  0.47107674  0.83221849  0.16294614  1  -0.442512  0  -0.01836  -0.020148  0  4.02868  0
C  C132  1  0.36233448  0.65676328  0.33723097  1  -0.552507  0  -0.009387  0.000368  0  4.009453  0
C  C133  1  0.34974873  0.61754365  0.37577970  1  0.219811  0  -0.052913  -0.234834  0  3.97352  0
C  C134  1  0.54207165  0.16309188  0.09380902  1  -0.084979  0  -0.019908  -0.046518  0  4.019052  0
C  C135  1  0.29122822  0.33406474  0.41301192  1  -0.029755  0  -0.01336  -0.087258  0  3.951181  0
C  C136  1  0.68182147  0.27356598  0.10605894  1  -0.02505  0  -0.093138  -0.132323  0  4.008323  0
C  C137  1  0.67514798  0.21477992  0.07735223  1  -0.026112  0  -0.086755  -0.099581  0  4.007868  0
C  C138  1  0.43095641  0.17001170  0.14101906  1  -0.001811  0  -0.079336  -0.133337  0  3.944573  0
C  C139  1  0.44954875  0.22762529  0.17417571  1  0.045112  0  -0.005072  0.03088  0  3.984674  0
C  C140  1  0.56882516  0.28212090  0.15448853  1  -0.009438  0  -0.004879  0.032932  0  3.984784  0
C  C141  1  0.35721042  0.23243887  0.22770052  1  -0.021894  0  -0.006305  0.028893  0  3.98742  0
C  C142  1  0.38723902  0.29069042  0.26072196  1  -0.000852  0  -0.000165  -0.016765  0  3.890091  0
C  C143  1  0.47427799  0.34909476  0.23415266  1  0.029387  0  -0.005328  0.022957  0  3.860287  0
C  C144  1  0.56363243  0.34427082  0.18274275  1  -0.089763  0  -0.011538  0.012418  0  3.893076  0
C  C145  1  0.23848504  0.17804574  0.24783182  1  -0.102362  0  -0.095043  -0.127676  0  4.0403  0
C  C146  1  0.15954635  0.17819192  0.29969843  1  -0.012794  0  -0.095429  -0.137186  0  4.045118  0
C  C147  1  0.20253018  0.23202272  0.33687029  1  -0.03156  0  -0.008365  0.086939  0  4.030561  0
C  C148  1  0.31975277  0.28807529  0.31825330  1  -0.030098  0  -0.00565  0.033752  0  3.932268  0
C  C149  1  0.13569248  0.22880197  0.39251401  1  -0.047314  0  -0.093865  -0.200827  0  3.970202  0
C  C150  1  0.17272512  0.27893080  0.43124651  1  0.003009  0  0.000621  0.117122  0  3.942005  0
C  C151  1  0.36778150  0.33667293  0.35976734  1  0.03166  0  -0.084988  -0.146546  0  3.966061  0
C  C152  1  0.52643108  0.10064890  0.06150998  1  1.563823  0  0.272933  0.651975  0  4.084545  0
C  C153  1  0.48923101  0.92247566  0.08210494  1  1.687133  0  0.27018  0.715845  0  4.174323  0
C  C154  1  0.96304500  0.90494396  0.94798702  1  1.570516  0  0.27696  0.664537  0  4.079664  0
C  C155  1  0.99632316  0.07784392  0.92814533  1  1.695386  0  0.267844  0.711417  0  4.181373  0
C  C156  1  0.21231550  0.13677775  0.74354156  1  -0.013516  0  -0.169428  -0.143135  0  3.96389  0
C  C157  1  0.26153173  0.09657204  0.69227397  1  -0.060053  0  -0.245029  -0.350711  0  3.987021  0
C  C158  1  0.07109395  0.63998083  0.23974476  1  -0.00826  0  -0.166055  -0.130141  0  3.939079  0
C  C159  1  0.18127268  0.58335336  0.21468797  1  -0.079037  0  -0.246366  -0.353778  0  3.974127  0
C  C160  1  0.73280427  0.71295337  0.48924076  1  -0.017745  0  -0.162688  -0.148375  0  3.968166  0
C  C161  1  0.91410381  0.71412721  0.45145911  1  -0.058471  0  -0.246837  -0.347916  0  3.955398  0
C  C162  1  0.55642094  0.88554493  0.27620566  1  0.003198  0  -0.163613  -0.123976  0  3.944381  0
C  C163  1  0.78597914  0.87910045  0.27514695  1  -0.076483  0  -0.246699  -0.354893  0  3.975471  0
C  C164  1  0.64095617  0.40450194  0.15150457  1  -0.030505  0  -0.164157  -0.14698  0  3.994541  0
C  C165  1  0.49109494  0.42436011  0.10306848  1  -0.085216  0  -0.243743  -0.350593  0  3.964282  0
C  C166  1  0.10236895  0.27275773  0.49051926  1  0.000533  0  -0.160835  -0.149262  0  3.972988  0
C  C167  1  0.27666607  0.27459501  0.53628089  1  -0.12446  0  -0.244928  -0.34814  0  3.946234  0
C  C168  1  0.45448258  0.41771943  0.25786547  1  -0.039251  0  -0.163761  -0.146609  0  3.978872  0
C  C169  1  0.64630715  0.44846159  0.28872227  1  -0.050961  0  -0.242674  -0.356592  0  3.935111  0
C  C170  1  0.93060406  0.66134583  0.94361874  1  -0.017506  0  -0.156576  -0.13378  0  3.99076  0
C  C171  1  0.90643406  0.66572739  0.00715265  1  -0.03157  0  -0.244009  -0.350327  0  3.988798  0
C  C172  1  0.02380087  0.91602501  0.82760969  1  -0.048642  0  -0.164301  -0.15007  0  3.976671  0
C  C173  1  0.21531678  0.91493813  0.79400177  1  -0.073909  0  -0.244066  -0.34775  0  3.953727  0
O  O174  1  0.49594799  0.42412549  0.45083161  1  -1.270789  0  -0.235105  -0.592579  0  2.335761  0
O  O175  1  0.18327085  0.54679835  0.43667764  1  -1.242169  0  -0.23456  -0.598323  0  2.290276  0
O  O176  1  0.05016852  0.57716685  0.54033656  1  -1.259776  0  -0.236002  -0.598111  0  2.307351  0
O  O177  1  0.16487088  0.41496929  0.46959074  1  -1.25759  0  -0.225601  -0.579509  0  2.372203  0
O  O178  1  0.01868210  0.44637603  0.56668195  1  -1.240109  0  -0.227963  -0.581244  0  2.28684  0
O  O179  1  0.52860752  0.55630846  0.44127494  1  -1.233549  0  -0.232169  -0.594971  0  2.31352  0
O  O180  1  0.36625399  0.50396109  0.53528916  1  -1.408608  0  -0.447397  -0.989865  0  2.18935  0
O  O181  1  0.67854214  0.42751896  0.55358043  1  -1.234951  0  -0.223884  -0.57352  0  2.289574  0
O  O182  1  0.70980875  0.56512579  0.54652673  1  -1.262795  0  -0.235316  -0.60663  0  2.342264  0
O  O183  1  0.85115051  0.49003645  0.46623947  1  -1.426153  0  -0.448477  -0.992481  0  2.203823  0
O  O184  1  0.31502749  0.93458976  0.05983412  1  -1.237142  0  -0.231259  -0.579776  0  2.292647  0
O  O185  1  0.68736400  0.08258767  0.04005083  1  -1.263269  0  -0.232389  -0.590179  0  2.332936  0
O  O186  1  0.82964945  0.04903943  0.94026543  1  -1.241074  0  -0.23302  -0.590561  0  2.299141  0
O  O187  1  0.65837763  0.95035538  0.07092311  1  -1.243598  0  -0.235868  -0.59301  0  2.27686  0
O  O188  1  0.80022754  0.92020962  0.96984402  1  -1.252333  0  -0.231227  -0.583631  0  2.305033  0
O  O189  1  0.35550162  0.06902550  0.05779284  1  -1.267546  0  -0.236668  -0.601475  0  2.328357  0
O  O190  1  0.48521310  0.99491641  0.97164077  1  -1.418003  0  -0.447341  -0.990699  0  2.203298  0
O  O191  1  0.13424257  0.93530482  0.95585040  1  -1.258187  0  -0.230097  -0.593659  0  2.351993  0
O  O192  1  0.17080320  0.06969909  0.95212464  1  -1.233103  0  -0.233747  -0.582461  0  2.271978  0
O  O193  1  0.00047059  0.00850025  0.04093423  1  -1.396957  0  -0.446964  -0.990158  0  2.205118  0
