# generated using pymatgen
data_SnH26C27S(NO2)2
_symmetry_space_group_name_H-M   'P 1'
_cell_length_a   9.44420226
_cell_length_b   10.48012322
_cell_length_c   13.01270000
_cell_angle_alpha   90.00000000
_cell_angle_beta   106.48314245
_cell_angle_gamma   90.00000000
_symmetry_Int_Tables_number   1
_chemical_formula_structural   SnH26C27S(NO2)2
_chemical_formula_sum   'Sn2 H52 C54 S2 N4 O8'
_cell_volume   1235.01968289
_cell_formula_units_Z   2
loop_
 _symmetry_equiv_pos_site_id
 _symmetry_equiv_pos_as_xyz
  1  'x, y, z'
loop_
 _atom_site_type_symbol
 _atom_site_label
 _atom_site_symmetry_multiplicity
 _atom_site_fract_x
 _atom_site_fract_y
 _atom_site_fract_z
 _atom_site_occupancy
 _atom_site_hle17_bader_spin_density
 _atom_site_hle17_ddec_charge
 _atom_site_hle17_ddec_spin_density
 _atom_site_hle17_ddec_sum_bond_order
 _atom_site_hle17_magmom
 _atom_site_hse06_10hf_bader_spin_density
 _atom_site_hse06_10hf_ddec_charge
 _atom_site_hse06_10hf_ddec_spin_density
 _atom_site_hse06_10hf_ddec_sum_bond_order
 _atom_site_hse06_10hf_magmom
 _atom_site_hse06_bader_spin_density
 _atom_site_hse06_ddec_charge
 _atom_site_hse06_ddec_spin_density
 _atom_site_hse06_ddec_sum_bond_order
 _atom_site_hse06_magmom
 _atom_site_pbe_bader_charge
 _atom_site_pbe_bader_spin_density
 _atom_site_pbe_cm5_charge
 _atom_site_pbe_ddec_charge
 _atom_site_pbe_ddec_spin_density
 _atom_site_pbe_ddec_sum_bond_order
 _atom_site_pbe_magmom
Sn  Sn0  1  0.80752964  0.89757246  0.25952292  1  0  1.221456  0  2.933483  0  0  1.032224  0  3.402809  0  0  1.07605  0  3.389297  0  1.727305  0  0.54398  1.002433  0  3.412109  0
Sn  Sn1  1  0.19246967  0.39757071  0.74047648  1  0  1.221355  0  2.933338  0  0  1.032087  0  3.402636  0  0  1.075903  0  3.38913  0  1.727039  0  0.543901  1.002297  0  3.411933  0
H  H2  1  0.84418679  0.20673707  0.53582128  1  0  0.327683  0  0.856947  0  0  0.311016  0  0.914734  0  0  0.318009  0  0.910671  0  0.493653  0  0.327883  0.306059  0  0.917818  0
H  H3  1  0.15580368  0.70673406  0.46417475  1  0  0.327808  0  0.856847  0  0  0.31111  0  0.914675  0  0  0.318104  0  0.910609  0  0.493722  0  0.327949  0.306156  0  0.917759  0
H  H4  1  0.85518272  0.60933158  0.19528128  1  0  0.081503  0  1.000057  0  0  0.090559  0  1.068131  0  0  0.093036  0  1.066957  0  0.064468  0  0.093848  0.088837  0  1.068794  0
H  H5  1  0.14482321  0.10933841  0.80472409  1  0  0.081516  0  1.000098  0  0  0.090572  0  1.068175  0  0  0.093055  0  1.066981  0  0.064501  0  0.093867  0.08885  0  1.068838  0
H  H6  1  0.70128937  0.43896621  0.08398248  1  0  0.083621  0  0.954394  0  0  0.095534  0  1.013715  0  0  0.098178  0  1.013116  0  0.05919  0  0.095946  0.09352  0  1.014475  0
H  H7  1  0.29871436  0.93897178  0.91602090  1  0  0.083684  0  0.954259  0  0  0.09557  0  1.0136  0  0  0.098215  0  1.012999  0  0.059157  0  0.095937  0.093555  0  1.014362  0
H  H8  1  0.43726001  0.48199147  0.98874229  1  0  0.078477  0  0.991422  0  0  0.086302  0  1.062447  0  0  0.088305  0  1.06225  0  0.066308  0  0.093151  0.084693  0  1.063008  0
H  H9  1  0.56274482  0.98199704  0.01126132  1  0  0.078524  0  0.991341  0  0  0.086331  0  1.062399  0  0  0.088333  0  1.062208  0  0.066262  0  0.093156  0.084724  0  1.062953  0
H  H10  1  0.32696279  0.69211782  0.00752424  1  0  0.080632  0  0.987574  0  0  0.090957  0  1.051444  0  0  0.092285  0  1.053308  0  0.068203  0  0.092978  0.090242  0  1.049662  0
H  H11  1  0.67303762  0.19212274  0.99247692  1  0  0.080694  0  0.987468  0  0  0.090971  0  1.051388  0  0  0.092328  0  1.053213  0  0.068393  0  0.092993  0.090256  0  1.049606  0
H  H12  1  0.47699024  0.85801377  0.12562030  1  0  0.084333  0  0.970333  0  0  0.09835  0  1.029511  0  0  0.101038  0  1.027863  0  0.055378  0  0.09908  0.09616  0  1.031412  0
H  H13  1  0.52301459  0.35801678  0.87437947  1  0  0.084266  0  0.970387  0  0  0.098295  0  1.029581  0  0  0.100975  0  1.027934  0  0.055316  0  0.09907  0.096139  0  1.031439  0
H  H14  1  0.72894483  0.78630087  0.46347840  1  0  0.077311  0  0.962817  0  0  0.093809  0  1.019681  0  0  0.095691  0  1.019334  0  0.026145  0  0.097009  0.092714  0  1.019462  0
H  H15  1  0.27107104  0.28630675  0.53651288  1  0  0.077268  0  0.962659  0  0  0.09375  0  1.019563  0  0  0.09563  0  1.019218  0  0.025394  0  0.096971  0.092649  0  1.019342  0
H  H16  1  0.82929403  0.80368521  0.65990567  1  0  0.078059  0  0.976183  0  0  0.08993  0  1.038979  0  0  0.0919  0  1.039003  0  0.035185  0  0.095044  0.088498  0  1.039099  0
H  H17  1  0.17070638  0.30367677  0.34008473  1  0  0.078049  0  0.976259  0  0  0.090027  0  1.038951  0  0  0.091996  0  1.038972  0  0.035217  0  0.095125  0.088593  0  1.039074  0
H  H18  1  0.05757129  0.92955300  0.73981495  1  0  0.077076  0  0.97238  0  0  0.091551  0  1.031288  0  0  0.093553  0  1.030582  0  0.013466  0  0.098022  0.089863  0  1.032193  0
H  H19  1  0.94241808  0.42953598  0.26017933  1  0  0.077067  0  0.972495  0  0  0.091528  0  1.031405  0  0  0.093563  0  1.030654  0  0.013371  0  0.098019  0.089848  0  1.032297  0
H  H20  1  0.18504592  0.03886786  0.62149095  1  0  0.083655  0  0.955531  0  0  0.094506  0  1.018372  0  0  0.096934  0  1.017765  0  0.09238  0  0.098214  0.092804  0  1.018758  0
H  H21  1  0.81495449  0.53886199  0.37850483  1  0  0.083634  0  0.955576  0  0  0.094492  0  1.018437  0  0  0.09692  0  1.017829  0  0.09229  0  0.098228  0.092789  0  1.018818  0
H  H22  1  0.08586058  0.02337091  0.42505437  1  0  0.083412  0  0.945506  0  0  0.097752  0  1.003139  0  0  0.09988  0  1.002543  0  0.073057  0  0.099598  0.096176  0  1.003776  0
H  H23  1  0.91415639  0.52337743  0.57494252  1  0  0.08344  0  0.945426  0  0  0.097771  0  1.003067  0  0  0.099899  0  1.002472  0  0.073311  0  0.099627  0.096177  0  1.003724  0
H  H24  1  0.84098563  0.87569772  0.03081249  1  0  0.066807  0  1.006187  0  0  0.0737  0  1.08118  0  0  0.075894  0  1.080425  0  0.088534  0  0.089952  0.071921  0  1.082048  0
H  H25  1  0.15900705  0.37569501  0.96918785  1  0  0.066771  0  1.006124  0  0  0.073672  0  1.081106  0  0  0.075868  0  1.080349  0  0.088699  0  0.089963  0.071902  0  1.081967  0
H  H26  1  0.92310176  0.00837013  0.90166644  1  0  0.076243  0  0.964273  0  0  0.088419  0  1.025001  0  0  0.091197  0  1.023667  0  0.038187  0  0.093733  0.086207  0  1.026465  0
H  H27  1  0.07689092  0.50836425  0.09833543  1  0  0.076227  0  0.964203  0  0  0.088403  0  1.024945  0  0  0.091158  0  1.023638  0  0.038267  0  0.093744  0.086187  0  1.026416  0
H  H28  1  0.01046701  0.22929978  0.94883981  1  0  0.08815  0  0.984376  0  0  0.096797  0  1.051149  0  0  0.099639  0  1.049797  0  0.090454  0  0.096698  0.094958  0  1.051624  0
H  H29  1  0.98952788  0.72929677  0.05116713  1  0  0.088168  0  0.984246  0  0  0.096786  0  1.051055  0  0  0.09963  0  1.0497  0  0.090363  0  0.09669  0.094942  0  1.051545  0
H  H30  1  0.01088220  0.31966513  0.12603997  1  0  0.071023  0  0.985674  0  0  0.081101  0  1.052725  0  0  0.083429  0  1.0519  0  0.045749  0  0.091896  0.0792  0  1.053941  0
H  H31  1  0.98910607  0.81966307  0.87396484  1  0  0.071073  0  0.985632  0  0  0.081117  0  1.05272  0  0  0.083444  0  1.051895  0  0.045806  0  0.091931  0.079212  0  1.053941  0
H  H32  1  0.92253861  0.18850637  0.25539018  1  0  0.088347  0  0.992483  0  0  0.096019  0  1.061716  0  0  0.098728  0  1.06069  0  0.086141  0  0.095395  0.094154  0  1.062381  0
H  H33  1  0.07744966  0.68851099  0.74460848  1  0  0.088388  0  0.992459  0  0  0.096087  0  1.06165  0  0  0.098792  0  1.060627  0  0.086143  0  0.095425  0.094221  0  1.062314  0
H  H34  1  0.44208439  0.09171648  0.38515253  1  0  0.10085  0  0.931371  0  0  0.111941  0  0.988959  0  0  0.113959  0  0.987343  0  0.124661  0  0.122779  0.110248  0  0.990595  0
H  H35  1  0.55791601  0.59171537  0.61484863  1  0  0.100848  0  0.931354  0  0  0.111951  0  0.988945  0  0  0.113969  0  0.987329  0  0.124669  0  0.122792  0.110258  0  0.990583  0
H  H36  1  0.24201982  0.15864126  0.23593678  1  0  0.08953  0  0.960189  0  0  0.101262  0  1.027727  0  0  0.102556  0  1.027898  0  0.05718  0  0.09116  0.10057  0  1.027241  0
H  H37  1  0.75798169  0.65864302  0.76406461  1  0  0.08958  0  0.960207  0  0  0.101356  0  1.02769  0  0  0.10265  0  1.027859  0  0.057148  0  0.091199  0.100662  0  1.027203  0
H  H38  1  0.36127677  0.07843038  0.17210798  1  0  0.116086  0  0.933868  0  0  0.133028  0  0.990658  0  0  0.134626  0  0.990187  0  0.083231  0  0.107661  0.131781  0  0.991182  0
H  H39  1  0.63872585  0.57843213  0.82789363  1  0  0.116083  0  0.933907  0  0  0.133026  0  0.990706  0  0  0.134623  0  0.990236  0  0.083236  0  0.107669  0.131774  0  0.99123  0
H  H40  1  0.53537645  0.45035253  0.28717353  1  0  0.093087  0  0.927763  0  0  0.107623  0  0.989846  0  0  0.108298  0  0.989489  0  0.101204  0  0.111533  0.106976  0  0.990338  0
H  H41  1  0.46461954  0.95035142  0.71282672  1  0  0.092997  0  0.927824  0  0  0.107593  0  0.989821  0  0  0.108269  0  0.989461  0  0.101185  0  0.111522  0.106948  0  0.99031  0
H  H42  1  0.35292216  0.44385451  0.30181686  1  0  0.076102  0  0.933771  0  0  0.08966  0  0.998046  0  0  0.089975  0  0.997921  0  0.068023  0  0.102397  0.089583  0  0.997926  0
H  H43  1  0.64707273  0.94385436  0.69818163  1  0  0.07613  0  0.933736  0  0  0.089586  0  0.99812  0  0  0.089894  0  0.998  0  0.068083  0  0.10239  0.089509  0  0.997998  0
H  H44  1  0.58740561  0.12653382  0.52336963  1  0  0.070731  0  0.947341  0  0  0.076003  0  1.01299  0  0  0.078281  0  1.011409  0  0.089068  0  0.112629  0.074211  0  1.014374  0
H  H45  1  0.41258928  0.62652889  0.47663116  1  0  0.070727  0  0.947284  0  0  0.075981  0  1.012988  0  0  0.07826  0  1.011407  0  0.089037  0  0.112611  0.074186  0  1.014379  0
H  H46  1  0.50077869  0.32633300  0.64758456  1  0  0.086089  0  0.965568  0  0  0.095447  0  1.038907  0  0  0.097391  0  1.038361  0  0.055409  0  0.094912  0.094077  0  1.039143  0
H  H47  1  0.49921841  0.82633284  0.35241822  1  0  0.086079  0  0.965552  0  0  0.095452  0  1.038864  0  0  0.0974  0  1.038311  0  0.055413  0  0.094922  0.094081  0  1.039102  0
H  H48  1  0.52984426  0.16285018  0.68116368  1  0  0.082636  0  0.946468  0  0  0.097431  0  1.010192  0  0  0.098568  0  1.010648  0  0.065171  0  0.094818  0.096574  0  1.00999  0
H  H49  1  0.47015505  0.66285099  0.31883955  1  0  0.082652  0  0.94645  0  0  0.097435  0  1.010186  0  0  0.098575  0  1.010645  0  0.065202  0  0.094786  0.096579  0  1.009989  0
H  H50  1  0.73081761  0.38328557  0.76818982  1  0  0.115247  0  0.91461  0  0  0.133748  0  0.966301  0  0  0.136041  0  0.96563  0  0.064325  0  0.108422  0.13233  0  0.966547  0
H  H51  1  0.26918059  0.88328637  0.23181242  1  0  0.115259  0  0.914576  0  0  0.133758  0  0.966273  0  0  0.136051  0  0.9656  0  0.064333  0  0.108418  0.132338  0  0.966522  0
H  H52  1  0.74510967  0.22584276  0.81747917  1  0  0.109134  0  0.946808  0  0  0.122772  0  1.008208  0  0  0.124623  0  1.008756  0  0.062377  0  0.10299  0.121445  0  1.007821  0
H  H53  1  0.25489516  0.72584547  0.18252367  1  0  0.109114  0  0.946857  0  0  0.122787  0  1.008214  0  0  0.124639  0  1.008759  0  0.062258  0  0.103006  0.121462  0  1.007825  0
C  C54  1  0.67687371  0.74486147  0.16943093  1  0  -0.306114  0  3.683035  0  0  -0.251041  0  3.938346  0  0  -0.264267  0  3.969583  0  -0.317973  0  -0.105636  -0.242475  0  3.918127  0
C  C55  1  0.32313442  0.24486353  0.83056875  1  0  -0.306077  0  3.683145  0  0  -0.251006  0  3.938465  0  0  -0.26423  0  3.9697  0  -0.317734  0  -0.105588  -0.242442  0  3.918251  0
C  C56  1  0.73872500  0.62654321  0.15588330  1  0  -0.060995  0  3.830914  0  0  -0.081974  0  4.075059  0  0  -0.082059  0  4.099866  0  -0.015114  0  -0.100507  -0.081787  0  4.057595  0
C  C57  1  0.26128093  0.12655099  0.84411823  1  0  -0.060948  0  3.831083  0  0  -0.081925  0  4.075205  0  0  -0.082009  0  4.100007  0  -0.015397  0  -0.100548  -0.081737  0  4.057738  0
C  C58  1  0.65278602  0.53173230  0.09189235  1  0  -0.081743  0  3.770754  0  0  -0.08978  0  4.013185  0  0  -0.092997  0  4.034847  0  -0.114061  0  -0.098191  -0.086972  0  3.997785  0
C  C59  1  0.34721881  0.03173818  0.90811049  1  0  -0.081923  0  3.770603  0  0  -0.089936  0  4.01303  0  0  -0.093153  0  4.034696  0  -0.113861  0  -0.098212  -0.087129  0  3.997631  0
C  C60  1  0.50460043  0.55534080  0.03873174  1  0  -0.067785  0  3.780255  0  0  -0.082602  0  4.027195  0  0  -0.083062  0  4.048196  0  0.01617  0  -0.096873  -0.081787  0  4.012452  0
C  C61  1  0.49540660  0.05534668  0.96127156  1  0  -0.067727  0  3.779999  0  0  -0.082525  0  4.026901  0  0  -0.082992  0  4.047917  0  0.016298  0  -0.096807  -0.081708  0  4.012158  0
C  C62  1  0.44232512  0.67336613  0.05010101  1  0  -0.07884  0  3.766545  0  0  -0.08874  0  4.010829  0  0  -0.091672  0  4.033084  0  -0.105922  0  -0.096973  -0.086637  0  3.99502  0
C  C63  1  0.55768192  0.17337296  0.94990151  1  0  -0.07887  0  3.76638  0  0  -0.088734  0  4.010666  0  0  -0.091685  0  4.03291  0  -0.106029  0  -0.096961  -0.086633  0  3.994867  0
C  C64  1  0.52752979  0.76706350  0.11575129  1  0  -0.05289  0  3.816519  0  0  -0.07134  0  4.055959  0  0  -0.071224  0  4.079801  0  -0.105057  0  -0.09549  -0.071774  0  4.041107  0
C  C65  1  0.47247283  0.26706938  0.88425263  1  0  -0.052898  0  3.816506  0  0  -0.071383  0  4.055989  0  0  -0.071256  0  4.079829  0  -0.105329  0  -0.095572  -0.071841  0  4.04113  0
C  C66  1  0.89962802  0.90390922  0.42984729  1  0  -0.289904  0  3.720827  0  0  -0.240143  0  3.980306  0  0  -0.251593  0  4.009612  0  -0.281974  0  -0.100595  -0.232322  0  3.960697  0
C  C67  1  0.10038895  0.40391605  0.57014575  1  0  -0.290046  0  3.721063  0  0  -0.240282  0  3.980529  0  0  -0.251726  0  4.009829  0  -0.346107  0  -0.100658  -0.23246  0  3.960909  0
C  C68  1  0.82862707  0.84249964  0.49705959  1  0  -0.056552  0  3.822228  0  0  -0.076571  0  4.063763  0  0  -0.076971  0  4.088518  0  -0.009806  0  -0.097532  -0.076451  0  4.046398  0
C  C69  1  0.17138879  0.34250838  0.50293246  1  0  -0.056219  0  3.821833  0  0  -0.07622  0  4.063366  0  0  -0.076621  0  4.08812  0  0.052982  0  -0.097428  -0.076092  0  4.045994  0
C  C70  1  0.88487660  0.85248139  0.60829923  1  0  -0.078081  0  3.776735  0  0  -0.088161  0  4.023889  0  0  -0.090733  0  4.045995  0  -0.074736  0  -0.098778  -0.086489  0  4.0087  0
C  C71  1  0.11512602  0.35247486  0.39169086  1  0  -0.07817  0  3.776415  0  0  -0.088343  0  4.023604  0  0  -0.090918  0  4.04572  0  -0.074294  0  -0.098925  -0.086673  0  4.008422  0
C  C72  1  0.01251094  0.92332884  0.65304854  1  0  -0.064941  0  3.766898  0  0  -0.080326  0  4.012406  0  0  -0.081293  0  4.032954  0  -0.034325  0  -0.093568  -0.079302  0  3.998551  0
C  C73  1  0.98748505  0.42331850  0.34694326  1  0  -0.064918  0  3.766592  0  0  -0.080288  0  4.012181  0  0  -0.081276  0  4.032725  0  -0.035204  0  -0.09342  -0.079263  0  3.998319  0
C  C74  1  0.08444496  0.98437201  0.58670849  1  0  -0.058075  0  3.742158  0  0  -0.0704  0  3.991179  0  0  -0.071881  0  4.011207  0  -0.123871  0  -0.089693  -0.069475  0  3.977349  0
C  C75  1  0.91555987  0.48436740  0.41328820  1  0  -0.057983  0  3.742003  0  0  -0.070348  0  3.991077  0  0  -0.071832  0  4.011115  0  -0.123512  0  -0.089785  -0.06942  0  3.977242  0
C  C76  1  0.02816672  0.97473663  0.47554362  1  0  -0.045896  0  3.80561  0  0  -0.067979  0  4.053518  0  0  -0.067288  0  4.075932  0  -0.0319  0  -0.091792  -0.068809  0  4.038548  0
C  C77  1  0.97184583  0.47473392  0.52445389  1  0  -0.046044  0  3.805568  0  0  -0.068099  0  4.053474  0  0  -0.067409  0  4.075882  0  -0.029704  0  -0.091826  -0.068915  0  4.038511  0
C  C78  1  0.88175494  0.02122494  0.15406645  1  0  -0.293818  0  3.689651  0  0  -0.238941  0  3.941842  0  0  -0.251714  0  3.971805  0  -0.325418  0  -0.10251  -0.230673  0  3.921278  0
C  C79  1  0.11823222  0.52122670  0.84593352  1  0  -0.293849  0  3.689643  0  0  -0.238977  0  3.941845  0  0  -0.251754  0  3.971828  0  -0.325217  0  -0.102493  -0.23071  0  3.921282  0
C  C80  1  0.88130220  0.97196472  0.05383720  1  0  -0.056145  0  3.834346  0  0  -0.075409  0  4.076079  0  0  -0.075102  0  4.100529  0  -0.071407  0  -0.094561  -0.075085  0  4.05953  0
C  C81  1  0.11869048  0.47196582  0.94616314  1  0  -0.055942  0  3.834236  0  0  -0.075224  0  4.07602  0  0  -0.074917  0  4.100457  0  -0.071859  0  -0.094522  -0.074908  0  4.059466  0
C  C82  1  0.92718631  0.04676663  0.98042758  1  0  -0.077121  0  3.775039  0  0  -0.085937  0  4.017292  0  0  -0.089385  0  4.039489  0  -0.06714  0  -0.096286  -0.083927  0  4.002162  0
C  C83  1  0.07280305  0.54675884  0.01957207  1  0  -0.07707  0  3.774939  0  0  -0.085894  0  4.017199  0  0  -0.089323  0  4.039398  0  -0.066838  0  -0.096234  -0.083885  0  4.00207  0
C  C84  1  0.97521153  0.17156859  0.00667271  1  0  -0.074434  0  3.768993  0  0  -0.086249  0  4.010054  0  0  -0.087367  0  4.031468  0  -0.083364  0  -0.095079  -0.084736  0  3.994703  0
C  C85  1  0.02477784  0.67156176  0.99332925  1  0  -0.074536  0  3.768945  0  0  -0.086333  0  4.010025  0  0  -0.087449  0  4.031427  0  -0.083657  0  -0.095168  -0.084818  0  3.994665  0
C  C86  1  0.97400129  0.22187144  0.10586634  1  0  -0.083786  0  3.782833  0  0  -0.093649  0  4.028907  0  0  -0.096776  0  4.050544  0  -0.067325  0  -0.098879  -0.091732  0  4.014626  0
C  C87  1  0.02598918  0.72186365  0.89413354  1  0  -0.083773  0  3.783096  0  0  -0.09361  0  4.029155  0  0  -0.096732  0  4.050784  0  -0.067391  0  -0.098877  -0.09169  0  4.014868  0
C  C88  1  0.92688817  0.14762517  0.17930415  1  0  -0.060643  0  3.812644  0  0  -0.080672  0  4.055292  0  0  -0.080042  0  4.077829  0  -0.071191  0  -0.096129  -0.080973  0  4.039453  0
C  C89  1  0.07310451  0.64762597  0.82069542  1  0  -0.06076  0  3.812822  0  0  -0.080806  0  4.055474  0  0  -0.080174  0  4.078006  0  -0.071066  0  -0.096193  -0.081105  0  4.039632  0
C  C90  1  0.62232470  0.10565811  0.31588774  1  0  0.628915  0  3.855832  0  0  0.575036  0  4.166898  0  0  0.607286  0  4.160054  0  1.588682  0  0.216646  0.553348  0  4.170546  0
C  C91  1  0.37767902  0.60565891  0.68411871  1  0  0.62892  0  3.855702  0  0  0.575043  0  4.166748  0  0  0.607296  0  4.159906  0  1.588693  0  0.216606  0.553368  0  4.170391  0
C  C92  1  0.47456866  0.15637316  0.32899554  1  0  -0.010817  0  3.641587  0  0  -0.03382  0  3.886022  0  0  -0.033384  0  3.897501  0  0.29048  0  0.010329  -0.034249  0  3.87845  0
C  C93  1  0.52543506  0.65637396  0.67100707  1  0  -0.010723  0  3.641651  0  0  -0.033751  0  3.886093  0  0  -0.033322  0  3.897582  0  0.290376  0  0.010335  -0.034183  0  3.878516  0
C  C94  1  0.35219558  0.15899813  0.22338525  1  0  -0.177665  0  3.660525  0  0  -0.225721  0  3.93292  0  0  -0.224802  0  3.941248  0  -0.093448  0  -0.147498  -0.226248  0  3.926782  0
C  C95  1  0.64780704  0.65899798  0.77661637  1  0  -0.177792  0  3.660676  0  0  -0.225878  0  3.933066  0  0  -0.224959  0  3.941398  0  -0.093382  0  -0.147574  -0.226412  0  3.926958  0
C  C96  1  0.44266853  0.38681034  0.28659768  1  0  -0.02977  0  3.632298  0  0  -0.091943  0  3.911606  0  0  -0.085007  0  3.919337  0  0.206366  0  -0.049399  -0.096523  0  3.906137  0
C  C97  1  0.55732856  0.88680923  0.71340510  1  0  -0.029694  0  3.632284  0  0  -0.091827  0  3.911578  0  0  -0.084884  0  3.919303  0  0.206361  0  -0.049377  -0.096407  0  3.906108  0
C  C98  1  0.56506370  0.32565361  0.46941403  1  0  0.484477  0  3.77126  0  0  0.433776  0  4.073828  0  0  0.463135  0  4.072221  0  1.39881  0  0.240195  0.414432  0  4.072949  0
C  C99  1  0.43492787  0.82564774  0.53058685  1  0  0.484466  0  3.77097  0  0  0.433784  0  4.073552  0  0  0.463144  0  4.071948  0  1.39874  0  0.24018  0.414441  0  4.072674  0
C  C100  1  0.62440839  0.22178747  0.55421288  1  0  0.05774  0  3.578553  0  0  0.036287  0  3.822492  0  0  0.037273  0  3.833092  0  0.367408  0  0.019231  0.035568  0  3.815405  0
C  C101  1  0.37559202  0.72178636  0.44578751  1  0  0.057846  0  3.57838  0  0  0.036342  0  3.822445  0  0  0.037324  0  3.833048  0  0.367418  0  0.01923  0.035623  0  3.815361  0
C  C102  1  0.58075593  0.24834250  0.65873672  1  0  -0.133889  0  3.614069  0  0  -0.181136  0  3.873062  0  0  -0.181485  0  3.883523  0  -0.043959  0  -0.157829  -0.180504  0  3.865661  0
C  C103  1  0.41924448  0.74834044  0.34126905  1  0  -0.133933  0  3.613939  0  0  -0.181137  0  3.872936  0  0  -0.181513  0  3.883429  0  -0.044086  0  -0.157825  -0.180509  0  3.865537  0
C  C104  1  0.72489562  0.28251481  0.74383986  1  0  -0.244867  0  3.647378  0  0  -0.282513  0  3.897395  0  0  -0.287352  0  3.904376  0  -0.028319  0  -0.154925  -0.279436  0  3.892338  0
C  C105  1  0.27510590  0.78251370  0.25615999  1  0  -0.244892  0  3.647281  0  0  -0.282555  0  3.897275  0  0  -0.287389  0  3.904245  0  -0.028168  0  -0.154943  -0.279479  0  3.892211  0
C  C106  1  0.84585860  0.25802178  0.69145154  1  0  0.612016  0  3.775762  0  0  0.561949  0  4.072645  0  0  0.592285  0  4.069752  0  1.406302  0  0.255112  0.541789  0  4.073829  0
C  C107  1  0.15413850  0.75801399  0.30854356  1  0  0.61196  0  3.775606  0  0  0.561936  0  4.07246  0  0  0.592262  0  4.069571  0  1.406084  0  0.255135  0.541789  0  4.073628  0
S  S108  1  0.38523637  0.30468726  0.15886346  1  0  -0.004572  0  2.253711  0  0  0.004532  0  2.595448  0  0  -0.000205  0  2.596911  0  0.024798  0  0.000985  0.00806  0  2.594241  0
S  S109  1  0.61476293  0.80468710  0.84113671  1  0  -0.004517  0  2.253794  0  0  0.004592  0  2.595524  0  0  -0.000146  0  2.596987  0  0.024785  0  0.001006  0.008122  0  2.594313  0
N  N110  1  0.48877128  0.28770463  0.36926680  1  0  -0.220734  0  3.399955  0  0  -0.138944  0  3.63569  0  0  -0.160542  0  3.657262  0  -1.147016  0  -0.270428  -0.124424  0  3.620324  0
N  N111  1  0.51122913  0.78770257  0.63073359  1  0  -0.220865  0  3.399962  0  0  -0.139053  0  3.635671  0  0  -0.160646  0  3.657239  0  -1.14702  0  -0.270453  -0.12453  0  3.620305  0
N  N112  1  0.78535005  0.22506987  0.58889321  1  0  -0.417682  0  3.260704  0  0  -0.36372  0  3.504652  0  0  -0.384182  0  3.512663  0  -1.255029  0  -0.394863  -0.349702  0  3.498652  0
N  N113  1  0.21464594  0.72506972  0.41110550  1  0  -0.417782  0  3.260498  0  0  -0.363794  0  3.504478  0  0  -0.384253  0  3.51249  0  -1.254947  0  -0.394844  -0.349783  0  3.498477  0
O  O114  1  0.60655960  0.99871440  0.26270318  1  0  -0.614504  0  2.060273  0  0  -0.538198  0  2.308279  0  0  -0.565827  0  2.301565  0  -1.186205  0  -0.287627  -0.519439  0  2.312157  0
O  O115  1  0.39344964  0.49871742  0.73730517  1  0  -0.61451  0  2.060221  0  0  -0.538119  0  2.308134  0  0  -0.565742  0  2.301413  0  -1.186178  0  -0.287578  -0.519366  0  2.311985  0
O  O116  1  0.74027203  0.16174428  0.35704105  1  0  -0.575419  0  1.946558  0  0  -0.532105  0  2.168501  0  0  -0.554162  0  2.163864  0  -1.176833  0  -0.294912  -0.517096  0  2.17105  0
O  O117  1  0.25972838  0.66174127  0.64296318  1  0  -0.575397  0  1.94649  0  0  -0.532112  0  2.168443  0  0  -0.554169  0  2.163806  0  -1.176813  0  -0.294889  -0.517105  0  2.170995  0
O  O118  1  0.58456000  0.44070093  0.49351840  1  0  -0.547418  0  1.903519  0  0  -0.508323  0  2.12793  0  0  -0.528749  0  2.121925  0  -1.152422  0  -0.305968  -0.494098  0  2.130532  0
O  O119  1  0.41543267  0.94069982  0.50648424  1  0  -0.547401  0  1.903317  0  0  -0.508332  0  2.127739  0  0  -0.528757  0  2.121734  0  -1.152353  0  -0.305966  -0.494107  0  2.130341  0
O  O120  1  0.98140074  0.26534898  0.73853119  1  0  -0.60534  0  2.069676  0  0  -0.542678  0  2.320385  0  0  -0.566923  0  2.313563  0  -1.209574  0  -0.281682  -0.526301  0  2.324548  0
O  O121  1  0.01859635  0.76533642  0.26145776  1  0  -0.605332  0  2.069598  0  0  -0.542703  0  2.320245  0  0  -0.566932  0  2.313421  0  -1.209489  0  -0.281759  -0.526331  0  2.324404  0
