# generated using pymatgen
data_ZnH11C18N3O7
_symmetry_space_group_name_H-M   'P 1'
_cell_length_a   13.25378320
_cell_length_b   15.93877184
_cell_length_c   17.12022868
_cell_angle_alpha   88.66485061
_cell_angle_beta   87.17301623
_cell_angle_gamma   78.74211866
_symmetry_Int_Tables_number   1
_chemical_formula_structural   ZnH11C18N3O7
_chemical_formula_sum   'Zn2 H22 C36 N6 O14'
_cell_volume   3542.38022325
_cell_formula_units_Z   2
loop_
 _symmetry_equiv_pos_site_id
 _symmetry_equiv_pos_as_xyz
  1  'x, y, z'
loop_
 _atom_site_type_symbol
 _atom_site_label
 _atom_site_symmetry_multiplicity
 _atom_site_fract_x
 _atom_site_fract_y
 _atom_site_fract_z
 _atom_site_occupancy
 _atom_site_pbe_bader_charge
 _atom_site_pbe_bader_spin_density
 _atom_site_pbe_cm5_charge
 _atom_site_pbe_ddec_charge
 _atom_site_pbe_ddec_spin_density
 _atom_site_pbe_ddec_sum_bond_order
 _atom_site_pbe_magmom
Zn  Zn0  1  0.48529354  0.59068578  0.50574801  1  1.288169  0  0.673203  0.825633  0  2.40615  0
Zn  Zn1  1  0.51081009  0.40905832  0.49548606  1  1.292829  0  0.673709  0.825676  0  2.41122  0
H  H2  1  0.19146915  0.40904752  0.44683948  1  0.123432  0  0.110908  0.127626  0  0.993542  0
H  H3  1  0.58492746  0.38379045  0.10533013  1  0.077118  0  0.105593  0.106384  0  1.017062  0
H  H4  1  0.51685465  0.65851066  0.10824753  1  0.095091  0  0.107535  0.109692  0  0.99414  0
H  H5  1  0.54104526  0.33958135  0.89153322  1  0.095715  0  0.107614  0.109786  0  0.99442  0
H  H6  1  0.49544623  0.65465476  0.25550997  1  0.09298  0  0.106155  0.110355  0  0.995199  0
H  H7  1  0.51764517  0.34695431  0.74594303  1  0.11014  0  0.106181  0.11129  0  0.994486  0
H  H8  1  0.57722182  0.71715381  0.40961312  1  0.138403  0  0.134663  0.127679  0  0.963258  0
H  H9  1  0.41657257  0.28230121  0.59020013  1  0.137038  0  0.135447  0.12688  0  0.9581  0
H  H10  1  0.22478186  0.65250808  0.55853796  1  0.668333  0  0.304027  0.362023  0  0.957868  0
H  H11  1  0.77266641  0.34516626  0.44339083  1  0.64831  0  0.302571  0.359816  0  0.962381  0
H  H12  1  0.00532079  0.29733226  0.39060464  1  0.640076  0  0.335536  0.372084  0  0.878458  0
H  H13  1  0.80547928  0.58980627  0.55226528  1  0.125718  0  0.110119  0.12805  0  0.992195  0
H  H14  1  0.99155216  0.70114062  0.60917565  1  0.636443  0  0.335652  0.372942  0  0.879761  0
H  H15  1  0.57971246  0.94234600  0.41421571  1  0.643418  0  0.301012  0.292814  0  1.055073  0
H  H16  1  0.41827944  0.05651557  0.58640258  1  0.631407  0  0.300819  0.292114  0  1.054972  0
H  H17  1  0.61496104  0.11176416  0.37742824  1  0.115479  0  0.12128  0.133769  0  0.973982  0
H  H18  1  0.38608803  0.88775863  0.62527074  1  0.09061  0  0.121557  0.134022  0  0.974507  0
H  H19  1  0.60505967  0.27078295  0.38790844  1  0.125308  0  0.126007  0.106286  0  0.981638  0
H  H20  1  0.39420104  0.72896543  0.61477510  1  0.115508  0  0.127034  0.108984  0  0.975376  0
H  H21  1  0.54069212  0.61198939  0.74397129  1  0.089023  0  0.104811  0.108968  0  0.998788  0
H  H22  1  0.56422217  0.38015271  0.25204054  1  0.088106  0  0.103449  0.106488  0  1.005852  0
H  H23  1  0.56596721  0.60433391  0.88882332  1  0.108179  0  0.105455  0.106266  0  1.015049  0
C  C24  1  0.51211452  0.51205874  0.34912829  1  1.572793  0  0.217419  0.594235  0  4.164194  0
C  C25  1  0.52771924  0.40291185  0.77778508  1  -0.022051  0  -0.082553  -0.086329  0  3.9789  0
C  C26  1  0.45959798  0.24270637  0.54392056  1  0.573849  0  0.052209  -0.008873  0  3.869148  0
C  C27  1  0.53608010  0.75679862  0.45659719  1  0.564409  0  0.051391  -0.010507  0  3.868515  0
C  C28  1  0.45938919  0.15467107  0.54305548  1  0.575216  0  0.106355  0.229457  0  4.026282  0
C  C29  1  0.53768104  0.84458528  0.45773738  1  0.547902  0  0.106524  0.229058  0  4.025596  0
C  C30  1  0.51744132  0.10527707  0.48154956  1  0.382143  0  0.094775  0.081758  0  4.066653  0
C  C31  1  0.48145381  0.89397889  0.51995662  1  0.440253  0  0.094748  0.082762  0  4.066389  0
C  C32  1  0.57057033  0.14809329  0.42501976  1  0.019123  0  -0.076773  -0.180523  0  3.987629  0
C  C33  1  0.42901863  0.85136894  0.57711705  1  -0.055024  0  -0.077481  -0.181969  0  3.990303  0
C  C34  1  0.56597733  0.23498808  0.43057886  1  0.430948  0  0.034962  0.05868  0  3.976428  0
C  C35  1  0.50665536  0.48814300  0.65153104  1  1.538868  0  0.216871  0.592387  0  4.168725  0
C  C36  1  0.43249844  0.76463663  0.57147550  1  0.506796  0  0.035097  0.058454  0  3.976597  0
C  C37  1  0.70345859  0.47578090  0.49611388  1  1.534001  0  0.216465  0.607457  0  4.148862  0
C  C38  1  0.29401009  0.52178844  0.50451294  1  1.554951  0  0.21906  0.61275  0  4.144617  0
C  C39  1  0.18065407  0.52659363  0.50733778  1  -0.062695  0  -0.032673  -0.148176  0  4.033103  0
C  C40  1  0.81661694  0.47182417  0.49246742  1  -0.003786  0  -0.032388  -0.147348  0  4.034909  0
C  C41  1  0.98868669  0.40007718  0.44701624  1  0.474371  0  0.077902  0.168295  0  4.047599  0
C  C42  1  0.00839095  0.59872897  0.55212927  1  0.438992  0  0.077868  0.167715  0  4.048917  0
C  C43  1  0.88286576  0.40175789  0.45546450  1  0.574524  0  0.066945  0.163173  0  4.105702  0
C  C44  1  0.11436288  0.59662671  0.54439609  1  0.551373  0  0.067938  0.16447  0  4.103373  0
C  C45  1  0.85742462  0.53678563  0.52385794  1  -0.007231  0  -0.083501  -0.11405  0  3.953093  0
C  C46  1  0.56562611  0.44240201  0.13889060  1  0.026584  0  -0.084243  -0.141278  0  3.957342  0
C  C47  1  0.13961797  0.46206906  0.47530958  1  0.035443  0  -0.084216  -0.115452  0  3.952897  0
C  C48  1  0.96449964  0.53407193  0.51939965  1  0.074253  0  -0.019159  -0.020787  0  4.047693  0
C  C49  1  0.03252055  0.46492312  0.47951403  1  0.041214  0  -0.019001  -0.01922  0  4.044891  0
C  C50  1  0.52746232  0.51699822  0.26206630  1  0.021434  0  -0.01364  -0.027083  0  3.947956  0
C  C51  1  0.52544092  0.48052587  0.73711067  1  -0.013744  0  -0.011305  -0.021621  0  3.946998  0
C  C52  1  0.55407053  0.44062657  0.21967354  1  -0.061531  0  -0.081526  -0.079723  0  3.979976  0
C  C53  1  0.54064292  0.55285242  0.77718339  1  -0.015422  0  -0.081005  -0.080492  0  3.978012  0
C  C54  1  0.55478100  0.54881473  0.85689835  1  -0.073563  0  -0.082754  -0.139213  0  3.953518  0
C  C55  1  0.55025565  0.52169394  0.09881996  1  0.384994  0  0.088346  0.175126  0  4.040257  0
C  C56  1  0.55275220  0.47167761  0.89819713  1  0.294705  0  0.088361  0.173667  0  4.042505  0
C  C57  1  0.52718616  0.59815318  0.14097401  1  -0.043965  0  -0.079343  -0.140596  0  3.95509  0
C  C58  1  0.54120118  0.39855602  0.85796862  1  -0.011279  0  -0.08046  -0.141512  0  3.95905  0
C  C59  1  0.51533421  0.59585512  0.22218833  1  -0.105033  0  -0.082072  -0.083802  0  3.975694  0
N  N60  1  0.55223285  0.53116471  0.01653840  1  -0.515943  0  -0.151327  -0.142174  0  3.277327  0
N  N61  1  0.55763525  0.46185838  0.98018283  1  -0.472745  0  -0.150037  -0.139355  0  3.282147  0
N  N62  1  0.51159562  0.28101528  0.48957248  1  -1.238797  0  -0.319337  -0.180057  0  3.570307  0
N  N63  1  0.48482854  0.71868962  0.51160369  1  -1.235541  0  -0.319414  -0.181641  0  3.570575  0
N  N64  1  0.52482207  0.01826553  0.47392425  1  -0.617811  0  -0.168135  -0.134409  0  3.347932  0
N  N65  1  0.47474368  0.98088666  0.52760528  1  -0.595528  0  -0.168402  -0.133468  0  3.349875  0
O  O66  1  0.49242129  0.58202404  0.38689243  1  -1.160303  0  -0.317823  -0.552697  0  2.325495  0
O  O67  1  0.84800170  0.33509950  0.42543013  1  -1.171805  0  -0.365971  -0.465347  0  2.28346  0
O  O68  1  0.05044949  0.33442763  0.40800112  1  -1.137789  0  -0.344366  -0.417713  0  2.251516  0
O  O69  1  0.94649684  0.66431517  0.59117133  1  -1.12761  0  -0.345123  -0.41962  0  2.254887  0
O  O70  1  0.59058391  0.87894132  0.40104511  1  -1.140219  0  -0.332598  -0.391385  0  2.288639  0
O  O71  1  0.40593571  0.12014343  0.59925184  1  -1.127655  0  -0.332853  -0.39249  0  2.287727  0
O  O72  1  0.51267970  0.41908676  0.61358761  1  -1.165534  0  -0.319268  -0.553099  0  2.329234  0
O  O73  1  0.51994308  0.43740979  0.37920684  1  -1.158236  0  -0.315375  -0.546249  0  2.365619  0
O  O74  1  0.48602899  0.56360843  0.62284464  1  -1.157221  0  -0.316194  -0.547813  0  2.356464  0
O  O75  1  0.64482675  0.54742923  0.50735836  1  -1.168948  0  -0.306469  -0.53364  0  2.330254  0
O  O76  1  0.35211917  0.45005412  0.49255701  1  -1.170096  0  -0.307062  -0.533823  0  2.330045  0
O  O77  1  0.67275907  0.40460956  0.48656494  1  -1.158973  0  -0.311497  -0.552106  0  2.305165  0
O  O78  1  0.32560007  0.59235867  0.51549221  1  -1.153369  0  -0.311555  -0.553811  0  2.307519  0
O  O79  1  0.14922807  0.66279171  0.57539982  1  -1.186524  0  -0.366673  -0.465622  0  2.281116  0
