# generated using pymatgen
data_CuH13C16N7O8
_symmetry_space_group_name_H-M   'P 1'
_cell_length_a   5.20006250
_cell_length_b   18.77220769
_cell_length_c   20.32955182
_cell_angle_alpha   90.00217607
_cell_angle_beta   89.99874173
_cell_angle_gamma   90.00259752
_symmetry_Int_Tables_number   1
_chemical_formula_structural   CuH13C16N7O8
_chemical_formula_sum   'Cu4 H52 C64 N28 O32'
_cell_volume   1984.50280903
_cell_formula_units_Z   4
loop_
 _symmetry_equiv_pos_site_id
 _symmetry_equiv_pos_as_xyz
  1  'x, y, z'
loop_
 _atom_site_type_symbol
 _atom_site_label
 _atom_site_symmetry_multiplicity
 _atom_site_fract_x
 _atom_site_fract_y
 _atom_site_fract_z
 _atom_site_occupancy
 _atom_site_pbe_bader_charge
 _atom_site_pbe_bader_spin_density
 _atom_site_pbe_cm5_charge
 _atom_site_pbe_ddec_charge
 _atom_site_pbe_ddec_spin_density
 _atom_site_pbe_ddec_sum_bond_order
 _atom_site_pbe_magmom
Cu  Cu0  1  0.63129447  0.99217238  0.79871505  1  1.068001  0.570909  0.738508  0.781119  0.754968  2.182234  0.571
Cu  Cu1  1  0.86871554  0.00782532  0.29871524  1  1.06824  -0.570921  0.738519  0.781063  -0.754983  2.18253  -0.571
Cu  Cu2  1  0.36870777  0.49217628  0.70128298  1  1.068195  -0.570919  0.738486  0.781038  -0.754981  2.182289  -0.571
Cu  Cu3  1  0.13128502  0.50782495  0.20128484  1  1.068142  0.570925  0.738513  0.781128  0.754993  2.182363  0.571
H  H4  1  0.19798841  0.92432779  0.54740701  1  0.632299  2e-06  0.346635  0.39099  -1e-06  0.841552  0.0
H  H5  1  0.30201357  0.07566745  0.04740882  1  0.63247  -2e-06  0.346645  0.391054  1e-06  0.84165  0.0
H  H6  1  0.80194596  0.42433464  0.95258355  1  0.63193  -2e-06  0.346595  0.391013  1e-06  0.841704  0.0
H  H7  1  0.69802410  0.57566585  0.45259135  1  0.632036  2e-06  0.346621  0.391026  -1e-06  0.841572  0.0
H  H8  1  0.42933932  0.14337533  0.43527715  1  0.157726  -0.000618  0.11834  0.127544  -0.000591  1.026042  0.0
H  H9  1  0.07065131  0.85661254  0.93528032  1  0.157766  0.000618  0.118343  0.127672  0.000591  1.025989  0.0
H  H10  1  0.57063541  0.64338423  0.06472655  1  0.157604  0.000619  0.118331  0.127659  0.000591  1.025899  0.0
H  H11  1  0.92938060  0.35661351  0.56471605  1  0.157578  -0.000618  0.118305  0.127496  -0.000591  1.026137  0.0
H  H12  1  0.30119829  0.12706617  0.64412060  1  0.139294  0.000567  0.114449  0.121432  0.00051  1.023723  0.0
H  H13  1  0.19879467  0.87292414  0.14412005  1  0.139162  -0.000568  0.114462  0.121408  -0.00051  1.023729  0.0
H  H14  1  0.69880243  0.62707323  0.85588471  1  0.139222  -0.000569  0.114442  0.121325  -0.00051  1.023788  0.0
H  H15  1  0.80121895  0.37292420  0.35587718  1  0.139313  0.000567  0.114415  0.121331  0.00051  1.023834  0.0
H  H16  1  0.43519256  0.83917051  0.86205474  1  0.171871  5.5e-05  0.141948  0.119722  -4e-05  0.983776  0.0
H  H17  1  0.06484300  0.16083258  0.36205731  1  0.171436  -5.6e-05  0.14195  0.119775  4e-05  0.983785  0.0
H  H18  1  0.56482800  0.33917312  0.63793941  1  0.171692  -5.5e-05  0.141945  0.119726  4e-05  0.983798  0.0
H  H19  1  0.93517194  0.66082965  0.13794568  1  0.171762  5.5e-05  0.141914  0.119628  -4e-05  0.983767  0.0
H  H20  1  0.19778433  0.94940435  0.69170220  1  0.226148  3.5e-05  0.145981  0.130596  -8e-05  1.010233  0.0
H  H21  1  0.30223991  0.05059114  0.19170434  1  0.225999  -3.5e-05  0.145926  0.130414  8e-05  1.010464  0.0
H  H22  1  0.80219460  0.44940988  0.80830131  1  0.226004  -3.5e-05  0.145918  0.130437  8e-05  1.010392  0.0
H  H23  1  0.69777626  0.55059568  0.30829862  1  0.226068  3.5e-05  0.145968  0.130483  -8e-05  1.010367  0.0
H  H24  1  0.12526891  0.76629662  0.65247555  1  0.067663  0.000252  0.118744  0.101025  0.000143  0.959591  0.0
H  H25  1  0.37473716  0.23369504  0.15248313  1  0.06788  -0.000252  0.118744  0.101007  -0.000143  0.959545  0.0
H  H26  1  0.87471677  0.26630656  0.84752448  1  0.06769  -0.000252  0.118766  0.101079  -0.000143  0.959642  0.0
H  H27  1  0.62527611  0.73370550  0.34752135  1  0.067591  0.000252  0.118734  0.100981  0.000143  0.959619  0.0
H  H28  1  0.98883050  0.85063280  0.63268300  1  0.108177  7.2e-05  0.121356  0.109303  4.3e-05  1.00724  0.0
H  H29  1  0.51121125  0.14936519  0.13268389  1  0.108157  -7.2e-05  0.121336  0.109242  -4.3e-05  1.007293  0.0
H  H30  1  0.01117450  0.35064047  0.86731837  1  0.107992  -7.2e-05  0.121363  0.10929  -4.3e-05  1.007237  0.0
H  H31  1  0.48881925  0.64936899  0.36732367  1  0.107714  7.2e-05  0.12132  0.109257  4.3e-05  1.007228  0.0
H  H32  1  0.62694788  0.82854312  0.70879382  1  0.075208  -0.000165  0.101606  0.099563  -0.00012  1.04049  0.0
H  H33  1  0.87307315  0.17146444  0.20880024  1  0.067835  0.000166  0.101571  0.099553  0.00012  1.040374  0.0
H  H34  1  0.37304813  0.32855101  0.79120047  1  0.074987  0.000165  0.10165  0.099596  0.00012  1.040431  0.0
H  H35  1  0.12694519  0.67145421  0.29120211  1  0.075097  -0.000165  0.101615  0.099575  -0.00012  1.040535  0.0
H  H36  1  0.64114163  0.76916055  0.64119907  1  0.10638  -1.4e-05  0.10781  0.115739  -2.8e-05  0.962736  0.0
H  H37  1  0.85884395  0.23083987  0.14120215  1  0.10589  1.4e-05  0.107857  0.115732  2.8e-05  0.962766  0.0
H  H38  1  0.35885459  0.26917344  0.85880142  1  0.106388  1.4e-05  0.107772  0.11561  2.8e-05  0.962847  0.0
H  H39  1  0.14114725  0.73083892  0.35880089  1  0.106399  -1.4e-05  0.107832  0.115768  -2.8e-05  0.962737  0.0
H  H40  1  0.81849528  0.73266510  0.78183654  1  0.090078  5e-06  0.116413  0.100302  3e-05  1.01491  0.0
H  H41  1  0.68147702  0.26734640  0.28183797  1  0.090015  -5e-06  0.11638  0.10022  -3e-05  1.015021  0.0
H  H42  1  0.18148540  0.23266735  0.71816639  1  0.090095  -5e-06  0.116384  0.100241  -3e-05  1.014948  0.0
H  H43  1  0.31851433  0.76733499  0.21816459  1  0.090029  5e-06  0.116361  0.100204  3e-05  1.014951  0.0
H  H44  1  0.52356691  0.70595724  0.74468883  1  0.087391  -3.6e-05  0.110281  0.089255  -1.1e-05  1.017633  0.0
H  H45  1  0.97642511  0.29404637  0.24469727  1  0.087453  3.6e-05  0.110214  0.089176  1.1e-05  1.017806  0.0
H  H46  1  0.47642060  0.20596115  0.75530707  1  0.087546  3.6e-05  0.110233  0.089154  1.1e-05  1.017742  0.0
H  H47  1  0.02356902  0.79403524  0.25530691  1  0.087497  -3.6e-05  0.110224  0.089163  -1.1e-05  1.017718  0.0
H  H48  1  0.15216141  0.63435175  0.77610688  1  0.179595  -2.5e-05  0.145279  0.120638  9.1e-05  0.99834  0.0
H  H49  1  0.34783024  0.36565092  0.27610565  1  0.179421  2.4e-05  0.14526  0.120623  -9.1e-05  0.998404  0.0
H  H50  1  0.84782626  0.13435226  0.72389932  1  0.179707  2.5e-05  0.145289  0.120663  -9.1e-05  0.998401  0.0
H  H51  1  0.65215605  0.86564665  0.22389413  1  0.179484  -2.5e-05  0.14529  0.120611  9.1e-05  0.998433  0.0
H  H52  1  0.90323615  0.53889637  0.59935252  1  0.162856  -0.00019  0.140021  0.120295  -6.1e-05  0.997193  0.0
H  H53  1  0.59674159  0.46109623  0.09935035  1  0.163098  0.00019  0.140004  0.12021  6.2e-05  0.997337  0.0
H  H54  1  0.09677095  0.03890841  0.90065051  1  0.162861  0.00019  0.139981  0.120214  6.1e-05  0.997309  0.0
H  H55  1  0.40323680  0.96109898  0.40064572  1  0.162949  -0.00019  0.14  0.120263  -6.2e-05  0.997321  0.0
C  C56  1  0.58101766  0.05470678  0.60388304  1  0.034389  0.007582  -0.011977  -0.042166  0.005398  3.939784  0.006
C  C57  1  0.91897808  0.94528679  0.10388495  1  0.034226  -0.00758  -0.012163  -0.042489  -0.005395  3.939942  -0.006
C  C58  1  0.41896758  0.55471442  0.89611683  1  0.033758  -0.007582  -0.01201  -0.042364  -0.005396  3.940161  -0.006
C  C59  1  0.08102987  0.44528560  0.39611378  1  0.033685  0.00758  -0.01205  -0.04228  0.005395  3.940165  0.006
C  C60  1  0.70626432  0.03054596  0.54658722  1  -0.030498  -1e-06  0.019218  -0.024763  1.8e-05  3.824961  0.0
C  C61  1  0.79374125  0.96944574  0.04658799  1  -0.031185  3e-06  0.018958  -0.025066  -1.8e-05  3.82545  0.0
C  C62  1  0.29370742  0.53055540  0.95341051  1  -0.031199  3e-06  0.018982  -0.02493  -1.8e-05  3.825296  0.0
C  C63  1  0.20627058  0.46945022  0.45340895  1  -0.031494  -3e-06  0.01924  -0.024661  1.8e-05  3.824962  0.0
C  C64  1  0.65642671  0.06477231  0.48606754  1  0.039419  -0.008948  -0.005915  -0.03758  -0.006331  3.908279  -0.007
C  C65  1  0.84356692  0.93521653  0.98606802  1  0.040259  0.008953  -0.00563  -0.03708  0.006335  3.908242  0.007
C  C66  1  0.34354016  0.56478304  0.01393179  1  0.040113  0.008949  -0.005561  -0.037094  0.006332  3.908077  0.007
C  C67  1  0.15644016  0.43522118  0.51392732  1  0.040035  -0.008951  -0.005805  -0.037581  -0.006333  3.908073  -0.007
C  C68  1  0.47104957  0.11833317  0.48227210  1  0.006619  -0.000727  -0.057509  -0.094423  -0.000646  3.896793  0.0
C  C69  1  0.02893404  0.88165397  0.98227515  1  0.006756  0.000726  -0.05753  -0.094675  0.000646  3.896988  0.0
C  C70  1  0.52891715  0.61834437  0.01772997  1  0.007138  0.000727  -0.057516  -0.094637  0.000646  3.896885  0.0
C  C71  1  0.97107704  0.38165516  0.51772089  1  0.007434  -0.000726  -0.057428  -0.094262  -0.000645  3.896825  0.0
C  C72  1  0.34345054  0.13920720  0.53919705  1  0.189467  -1.1e-05  0.080021  0.071181  -4e-06  3.963792  0.0
C  C73  1  0.15652867  0.86077818  0.03919983  1  0.187771  1.1e-05  0.079918  0.070933  4e-06  3.963941  0.0
C  C74  1  0.65652714  0.63921810  0.96080663  1  0.188249  1.1e-05  0.080028  0.071175  4e-06  3.963976  0.0
C  C75  1  0.84346952  0.36077893  0.46079756  1  0.187409  -1e-05  0.08001  0.071001  -4e-06  3.963943  0.0
C  C76  1  0.40174648  0.10988492  0.60004629  1  0.050964  0.000948  -0.06575  -0.106043  0.000771  3.915374  0.0
C  C77  1  0.09823924  0.89010534  0.10004781  1  0.05219  -0.000948  -0.0656  -0.105763  -0.000771  3.915178  0.0
C  C78  1  0.59824104  0.60989304  0.89995679  1  0.05158  -0.000948  -0.065769  -0.105886  -0.000771  3.915436  0.0
C  C79  1  0.90176257  0.39010657  0.39995067  1  0.052505  0.000948  -0.065713  -0.105904  0.000771  3.915577  0.0
C  C80  1  0.62455447  0.01880156  0.66886222  1  1.563072  -0.001763  0.191892  0.538419  -0.000227  4.247292  -0.003
C  C81  1  0.87545050  0.98119623  0.16886338  1  1.563444  0.001764  0.191874  0.538417  0.000227  4.247073  0.003
C  C82  1  0.37543851  0.51880656  0.83113812  1  1.564156  0.001767  0.191824  0.5384  0.000227  4.247305  0.003
C  C83  1  0.12455547  0.48119351  0.33113636  1  1.563771  -0.001764  0.191834  0.538201  -0.000226  4.247687  -0.003
C  C84  1  0.85763083  0.96172469  0.54640104  1  1.585709  -7e-06  0.236434  0.609169  5e-06  4.129544  0.0
C  C85  1  0.64238440  0.03826805  0.04640377  1  1.585949  7e-06  0.236486  0.609369  -5e-06  4.129759  0.0
C  C86  1  0.14233666  0.46172969  0.95359346  1  1.586232  7e-06  0.23636  0.609037  -5e-06  4.12935  0.0
C  C87  1  0.35765283  0.53827169  0.45359395  1  1.586272  -7e-06  0.236306  0.608961  5e-06  4.129421  0.0
C  C88  1  0.79462583  0.04143325  0.42463344  1  1.581038  0.002052  0.192861  0.541162  0.000349  4.244024  0.004
C  C89  1  0.70538837  0.95855971  0.92463074  1  1.581181  -0.002049  0.192916  0.541042  -0.000348  4.243798  -0.004
C  C90  1  0.20534896  0.54143553  0.07536522  1  1.582093  -0.002051  0.192747  0.541051  -0.000349  4.24441  -0.004
C  C91  1  0.29464157  0.45856830  0.57536134  1  1.581617  0.002052  0.192693  0.540932  0.00035  4.244389  0.004
C  C92  1  0.34692127  0.85184012  0.81514679  1  0.974313  0.000449  0.155746  0.163445  0.000836  3.937088  0.001
C  C93  1  0.15309245  0.14815945  0.31514715  1  0.974869  -0.00045  0.15577  0.163396  -0.000836  3.937157  -0.001
C  C94  1  0.65308027  0.35184363  0.68485162  1  0.974197  -0.000448  0.155786  0.163607  -0.000834  3.936797  -0.001
C  C95  1  0.84692612  0.64816052  0.18485747  1  0.974569  0.000449  0.155857  0.163598  0.000835  3.936743  0.001
C  C96  1  0.23340127  0.90928090  0.72878998  1  0.982777  0.00066  0.168093  0.09851  0.000986  3.881052  0.001
C  C97  1  0.26661672  0.09071556  0.22879184  1  0.982364  -0.000662  0.168276  0.098779  -0.000986  3.881497  -0.001
C  C98  1  0.76659750  0.40928492  0.77121161  1  0.98265  -0.00066  0.168235  0.098746  -0.000986  3.881069  -0.001
C  C99  1  0.73341038  0.59071968  0.27121403  1  0.983003  0.000658  0.168132  0.098643  0.000985  3.88138  0.001
C  C100  1  0.00382483  0.80989119  0.67102323  1  0.295508  0.000816  -0.043086  -0.081032  0.000644  3.856091  0.001
C  C101  1  0.49618773  0.19010175  0.17102776  1  0.295168  -0.000816  -0.043047  -0.080952  -0.000644  3.856216  -0.001
C  C102  1  0.99616905  0.30989939  0.82897671  1  0.29538  -0.000817  -0.043246  -0.081288  -0.000644  3.856173  -0.001
C  C103  1  0.50383465  0.69010660  0.32897976  1  0.295807  0.000816  -0.043085  -0.081011  0.000644  3.856108  0.001
C  C104  1  0.73457114  0.78391658  0.68777679  1  -0.059587  -0.000189  -0.15806  -0.186075  -0.000153  3.921469  0.0
C  C105  1  0.76542868  0.21608520  0.18778093  1  -0.051707  0.000188  -0.15799  -0.185895  0.000153  3.921331  0.0
C  C106  1  0.26542595  0.28392646  0.81222300  1  -0.059326  0.000188  -0.157997  -0.185786  0.000153  3.921333  0.0
C  C107  1  0.23457702  0.71607974  0.31222329  1  -0.059331  -0.000189  -0.158024  -0.18606  -0.000153  3.921239  0.0
C  C108  1  0.72401436  0.72070308  0.73487806  1  0.303381  -0.000587  -0.052444  -0.105666  -0.000479  3.896609  0.0
C  C109  1  0.77597650  0.27930330  0.23488095  1  0.302924  0.000587  -0.052393  -0.105625  0.000479  3.89666  0.0
C  C110  1  0.27597596  0.22070731  0.76512355  1  0.30287  0.000587  -0.052352  -0.105578  0.000479  3.896418  0.0
C  C111  1  0.22402253  0.77929643  0.26512146  1  0.303292  -0.000586  -0.0523  -0.105445  -0.000479  3.896332  0.0
C  C112  1  0.05191095  0.62161473  0.73094578  1  0.998722  0.000648  0.161265  0.086161  -0.000203  3.883707  0.0
C  C113  1  0.44808338  0.37838992  0.23094652  1  0.998634  -0.000649  0.161258  0.086219  0.000203  3.883751  0.0
C  C114  1  0.94808610  0.12161385  0.76905714  1  0.998698  -0.00065  0.161342  0.086308  0.000202  3.883845  0.0
C  C115  1  0.55189738  0.87838948  0.26905113  1  0.998892  0.000649  0.16124  0.08615  -0.000202  3.884106  0.0
C  C116  1  0.92396874  0.57482544  0.64059576  1  1.010636  0.000761  0.152355  0.154511  8.2e-05  3.959304  0.0
C  C117  1  0.57601893  0.42517332  0.14059540  1  1.010312  -0.000761  0.152327  0.154536  -8.2e-05  3.959428  0.0
C  C118  1  0.07603833  0.07483344  0.85940631  1  1.010555  -0.000759  0.15249  0.154724  -8e-05  3.959461  0.0
C  C119  1  0.42395757  0.92517525  0.35940065  1  1.010643  0.00076  0.152367  0.154471  8.1e-05  3.959585  0.0
N  N120  1  0.13377160  0.19108095  0.53468239  1  0.364207  -1.2e-05  0.058155  0.499908  -4e-06  4.233528  0.0
N  N121  1  0.36622038  0.80890932  0.03468477  1  0.364386  1.2e-05  0.057836  0.499832  4e-06  4.23302  0.0
N  N122  1  0.86622077  0.69108867  0.96532158  1  0.364324  1.2e-05  0.05806  0.499929  4e-06  4.233681  0.0
N  N123  1  0.63377851  0.30890933  0.46531084  1  0.364572  -1.2e-05  0.057814  0.499771  -4e-06  4.23318  0.0
N  N124  1  0.36977399  0.91647087  0.78433562  1  -1.207103  0.072115  -0.370175  -0.333071  0.049889  3.599973  0.062
N  N125  1  0.13025003  0.08352675  0.28433669  1  -1.207261  -0.072124  -0.370271  -0.333098  -0.049896  3.60021  -0.062
N  N126  1  0.63022901  0.41647418  0.71566635  1  -1.207272  -0.072115  -0.37021  -0.333169  -0.04989  3.5998  -0.062
N  N127  1  0.86977477  0.58352925  0.21566830  1  -1.207267  0.072119  -0.370288  -0.333256  0.049892  3.600092  0.062
N  N128  1  0.13811140  0.84308182  0.72621847  1  -0.825024  0.002481  -0.1333  0.171731  0.001613  3.70232  0.002
N  N129  1  0.36190537  0.15691279  0.22622009  1  -0.824496  -0.00248  -0.133429  0.171637  -0.001614  3.702739  -0.002
N  N130  1  0.86189118  0.34308721  0.77378103  1  -0.824705  -0.00248  -0.133347  0.171647  -0.001613  3.702397  -0.002
N  N131  1  0.63811408  0.65691658  0.27378540  1  -0.824474  0.002481  -0.133294  0.171736  0.001614  3.702621  0.002
N  N132  1  0.20818939  0.80545815  0.78100373  1  -0.672124  0.007001  -0.218303  -0.258697  0.004639  3.087383  0.005
N  N133  1  0.29182978  0.19453915  0.28100489  1  -0.671962  -0.007001  -0.218283  -0.258732  -0.004638  3.087539  -0.005
N  N134  1  0.79181653  0.30546294  0.71899381  1  -0.67156  -0.007001  -0.218281  -0.258736  -0.004639  3.087335  -0.005
N  N135  1  0.70818057  0.69454029  0.21899913  1  -0.672728  0.007  -0.218336  -0.258673  0.004638  3.087369  0.005
N  N136  1  0.85331246  0.65882997  0.70700519  1  -0.840537  -0.002082  -0.134085  0.174829  -0.001373  3.749219  -0.002
N  N137  1  0.64668214  0.34117422  0.20700640  1  -0.839467  0.00208  -0.13412  0.174692  0.001373  3.749241  0.002
N  N138  1  0.14668112  0.15883365  0.79299527  1  -0.839932  0.00208  -0.134058  0.174866  0.001373  3.74926  0.002
N  N139  1  0.35330785  0.84117174  0.29299174  1  -0.840632  -0.002081  -0.134156  0.174809  -0.001373  3.749741  -0.002
N  N140  1  0.76904169  0.63003137  0.64945391  1  -0.665254  -0.007589  -0.220289  -0.256121  -0.005048  3.072929  -0.006
N  N141  1  0.73094934  0.36996932  0.14945530  1  -0.665712  0.007591  -0.220247  -0.255953  0.005049  3.072847  0.006
N  N142  1  0.23095421  0.13004073  0.85054694  1  -0.665565  0.00759  -0.220472  -0.256298  0.005048  3.073056  0.006
N  N143  1  0.26903257  0.86996923  0.35054197  1  -0.665242  -0.007589  -0.220271  -0.256024  -0.005048  3.073109  -0.006
N  N144  1  0.10240151  0.56749070  0.68977028  1  -1.208584  -0.073748  -0.365921  -0.323611  -0.05102  3.588681  -0.064
N  N145  1  0.39758094  0.43250939  0.18976899  1  -1.208258  0.073747  -0.365882  -0.323652  0.05102  3.588704  0.064
N  N146  1  0.89760320  0.06749169  0.81023286  1  -1.208522  0.073741  -0.365968  -0.323789  0.051016  3.5887  0.064
N  N147  1  0.60239598  0.93251087  0.31022844  1  -1.208622  -0.073746  -0.365926  -0.323599  -0.05102  3.58876  -0.064
O  O148  1  0.50514191  0.04606769  0.71897245  1  -1.120194  0.110524  -0.327723  -0.541634  0.072981  2.30823  0.1
O  O149  1  0.99485519  0.95393234  0.21897573  1  -1.120401  -0.110519  -0.32768  -0.541585  -0.072979  2.308295  -0.1
O  O150  1  0.49485210  0.54607211  0.78102852  1  -1.120572  -0.110516  -0.32768  -0.541548  -0.072972  2.30823  -0.1
O  O151  1  0.00513244  0.45393211  0.28102584  1  -1.120367  0.110515  -0.327639  -0.5415  0.072974  2.308506  0.1
O  O152  1  0.76813269  0.96544109  0.67218805  1  -1.171486  0.000363  -0.308114  -0.553956  -1.7e-05  2.247011  0.001
O  O153  1  0.73189061  0.03456023  0.17219043  1  -1.171529  -0.000361  -0.308106  -0.553889  1.8e-05  2.246894  -0.001
O  O154  1  0.23187252  0.46544289  0.82781181  1  -1.171648  -0.000363  -0.308087  -0.553938  1.7e-05  2.247054  -0.001
O  O155  1  0.26812620  0.53455578  0.32780783  1  -1.171725  0.000361  -0.308162  -0.553882  -1.8e-05  2.24716  0.001
O  O156  1  0.75034007  0.90515801  0.53450901  1  -1.128317  -6.8e-05  -0.294251  -0.486751  -4.3e-05  2.058348  0.0
O  O157  1  0.74969570  0.09483304  0.03451465  1  -1.128493  6.8e-05  -0.294207  -0.486805  4.3e-05  2.058531  0.0
O  O158  1  0.24963046  0.40517329  0.96548820  1  -1.128067  6.8e-05  -0.294128  -0.486578  4.3e-05  2.058713  0.0
O  O159  1  0.25036733  0.59483991  0.46548625  1  -1.128281  -6.8e-05  -0.294188  -0.486676  -4.3e-05  2.058441  0.0
O  O160  1  0.11082375  0.96877865  0.55965166  1  -1.143555  2.5e-05  -0.328782  -0.484579  7e-06  2.326998  0.0
O  O161  1  0.38918451  0.03121725  0.05965168  1  -1.143583  -2.5e-05  -0.328777  -0.484648  -7e-06  2.327206  0.0
O  O162  1  0.88912869  0.46878489  0.94034619  1  -1.143587  -2.5e-05  -0.328736  -0.48459  -7e-06  2.326746  0.0
O  O163  1  0.61085047  0.53121707  0.44034269  1  -1.143511  2.5e-05  -0.32867  -0.484463  7e-06  2.326806  0.0
O  O164  1  0.98039375  0.99964473  0.42877391  1  -1.144727  -0.001982  -0.305751  -0.533181  -0.00103  2.195819  -0.003
O  O165  1  0.51960394  0.00034385  0.92877231  1  -1.145158  0.001983  -0.3058  -0.533146  0.001031  2.195162  0.003
O  O166  1  0.01956237  0.49965223  0.07122608  1  -1.145214  0.00198  -0.305583  -0.53301  0.001028  2.196041  0.003
O  O167  1  0.48040813  0.50035812  0.57122041  1  -1.144861  -0.00198  -0.305599  -0.53293  -0.001029  2.195959  -0.003
O  O168  1  0.70261136  0.06553266  0.36957815  1  -1.109919  -0.126896  -0.326686  -0.526775  -0.083352  2.281077  -0.113
O  O169  1  0.79744090  0.93446877  0.86957539  1  -1.109532  0.126905  -0.326686  -0.526715  0.083358  2.281163  0.113
O  O170  1  0.29739614  0.56552545  0.13042117  1  -1.110326  0.126902  -0.326756  -0.526864  0.083356  2.281234  0.113
O  O171  1  0.20260440  0.43447471  0.63041652  1  -1.110211  -0.126909  -0.3267  -0.526744  -0.083361  2.281174  -0.113
O  O172  1  0.04562653  0.20417790  0.47921006  1  -0.465061  1.2e-05  -0.123387  -0.32953  5.9e-05  2.00616  0.0
O  O173  1  0.45437329  0.79581587  0.97921212  1  -0.464954  -1.2e-05  -0.12334  -0.329577  -5.9e-05  2.00596  0.0
O  O174  1  0.95437344  0.70418217  0.02079432  1  -0.465345  -1.2e-05  -0.123427  -0.329692  -5.9e-05  2.006336  0.0
O  O175  1  0.54561223  0.29581287  0.52078112  1  -0.464922  1.2e-05  -0.123299  -0.329513  5.9e-05  2.005939  0.0
O  O176  1  0.05181598  0.21789064  0.58650207  1  -0.461096  -4.7e-05  -0.131899  -0.330893  -4.9e-05  1.946283  0.0
O  O177  1  0.44818305  0.78210309  0.08650387  1  -0.461357  4.8e-05  -0.131666  -0.330668  4.9e-05  1.94605  0.0
O  O178  1  0.94818498  0.71789920  0.91350450  1  -0.460989  4.7e-05  -0.131775  -0.330785  4.9e-05  1.946444  0.0
O  O179  1  0.55182456  0.28210386  0.41349013  1  -0.46162  -4.8e-05  -0.131709  -0.330691  -4.9e-05  1.946049  0.0
