# generated using pymatgen
data_CuH20C12NO4
_symmetry_space_group_name_H-M   'P 1'
_cell_length_a   8.38236419
_cell_length_b   8.23180016
_cell_length_c   11.13907930
_cell_angle_alpha   72.69281957
_cell_angle_beta   84.96321356
_cell_angle_gamma   72.17535545
_symmetry_Int_Tables_number   1
_chemical_formula_structural   CuH20C12NO4
_chemical_formula_sum   'Cu2 H40 C24 N2 O8'
_cell_volume   698.58845949
_cell_formula_units_Z   2
loop_
 _symmetry_equiv_pos_site_id
 _symmetry_equiv_pos_as_xyz
  1  'x, y, z'
loop_
 _atom_site_type_symbol
 _atom_site_label
 _atom_site_symmetry_multiplicity
 _atom_site_fract_x
 _atom_site_fract_y
 _atom_site_fract_z
 _atom_site_occupancy
 _atom_site_hle17_ddec_charge
 _atom_site_hle17_ddec_spin_density
 _atom_site_hle17_ddec_sum_bond_order
 _atom_site_hle17_magmom
 _atom_site_hse06_10hf_ddec_charge
 _atom_site_hse06_10hf_ddec_spin_density
 _atom_site_hse06_10hf_ddec_sum_bond_order
 _atom_site_hse06_10hf_magmom
 _atom_site_hse06_ddec_charge
 _atom_site_hse06_ddec_spin_density
 _atom_site_hse06_ddec_sum_bond_order
 _atom_site_hse06_magmom
 _atom_site_pbe_cm5_charge
 _atom_site_pbe_ddec_charge
 _atom_site_pbe_ddec_spin_density
 _atom_site_pbe_ddec_sum_bond_order
 _atom_site_pbe_magmom
Cu  Cu0  1  0.49161449  0.61462408  0.86202642  1  0.854054  0.502605  1.808328  0.371  0.8421  0.723672  2.204434  0.579  0.946158  0.835753  2.125198  0.688  0.6908  0.76645  0.514869  2.266588  0.407
Cu  Cu1  1  0.50840532  0.38536002  0.13799134  1  0.853923  -0.502596  1.808243  -0.371  0.841843  -0.723636  2.204296  -0.579  0.945987  -0.83574  2.125119  -0.688  0.690721  0.766355  -0.514867  2.26639  -0.407
H  H2  1  0.74834053  0.30071830  0.81085648  1  0.365564  -1.8e-05  0.836244  0.0  0.361829  -2.3e-05  0.87827  0.0  0.369045  -1.3e-05  0.871115  0.0  0.327839  0.356587  -2.3e-05  0.883638  0.0
H  H3  1  0.25166440  0.69928708  0.18913616  1  0.365595  1.8e-05  0.836167  0.0  0.361866  2.3e-05  0.87818  0.0  0.369086  1.3e-05  0.871022  0.0  0.327855  0.356628  2.3e-05  0.883553  0.0
H  H4  1  0.88717870  0.42842758  0.97072572  1  0.030699  -4.2e-05  0.943  0.0  0.045497  -0.000126  1.010424  0.0  0.045101  -0.000105  1.009272  0.0  0.086263  0.045821  -9.7e-05  1.011336  0.0
H  H5  1  0.11284731  0.57159167  0.02926419  1  0.030844  3.9e-05  0.942937  0.0  0.045606  0.000127  1.010386  0.0  0.045214  0.000105  1.00923  0.0  0.086295  0.045929  9.7e-05  1.011301  0.0
H  H6  1  0.83623146  0.54665728  0.08516616  1  0.050014  0.002328  0.942047  0.003  0.065275  0.001751  1.007292  0.002  0.061597  0.001355  1.009544  0.002  0.098796  0.068595  0.001534  1.005263  0.002
H  H7  1  0.16379060  0.45335112  0.91483088  1  0.050062  -0.002334  0.942244  -0.003  0.06531  -0.001751  1.007435  -0.002  0.061639  -0.001355  1.009692  -0.002  0.098786  0.068629  -0.001535  1.0054  -0.002
H  H8  1  0.69560855  0.82393049  0.93368068  1  0.08504  4e-05  0.918689  0.0  0.105211  -3e-05  0.971427  0.0  0.104863  -2.5e-05  0.972206  0.0  0.112944  0.105073  -2.6e-05  0.97119  0.0
H  H9  1  0.30438025  0.17607711  0.06632341  1  0.084977  -3.6e-05  0.918691  0.0  0.10506  3.1e-05  0.971539  0.0  0.104744  2.5e-05  0.97228  0.0  0.112872  0.104924  2.7e-05  0.9713  0.0
H  H10  1  0.89638160  0.74685310  0.86809744  1  0.081017  0.000762  0.934603  0.001  0.097687  0.00085  0.996895  0.001  0.098271  0.000665  0.997341  0.001  0.102077  0.09602  0.000781  0.997389  0.001
H  H11  1  0.10361078  0.25317873  0.13189663  1  0.081032  -0.000761  0.934532  -0.001  0.097621  -0.000849  0.996955  -0.001  0.098206  -0.000665  0.997401  -0.001  0.102094  0.095958  -0.00078  0.997445  -0.001
H  H12  1  0.61037754  0.59438091  0.60049767  1  0.072458  -4e-05  0.932635  0.0  0.088724  -1.7e-05  0.99447  0.0  0.089344  -2.8e-05  0.993891  0.0  0.110169  0.088155  -4e-06  0.995021  0.0
H  H13  1  0.38962703  0.40562577  0.39949741  1  0.072438  4.2e-05  0.932669  0.0  0.088756  1.8e-05  0.994475  0.0  0.089376  2.8e-05  0.993897  0.0  0.110199  0.088191  4e-06  0.995026  0.0
H  H14  1  0.81185914  0.44074422  0.59427094  1  0.040725  -4.5e-05  0.949512  0.0  0.058477  1.1e-05  1.015134  0.0  0.058642  -6e-06  1.014931  0.0  0.095414  0.058245  2.3e-05  1.015419  0.0
H  H15  1  0.18815140  0.55926661  0.40572461  1  0.040689  4.7e-05  0.949453  0.0  0.058509  -1.1e-05  1.015033  0.0  0.058677  6e-06  1.014824  0.0  0.09545  0.05828  -2.3e-05  1.015317  0.0
H  H16  1  0.90417571  0.50617964  0.77729886  1  0.067281  1.9e-05  0.953685  0.0  0.084667  -4.2e-05  1.01862  0.0  0.084975  -2.9e-05  1.018728  0.0  0.108184  0.084241  -3.8e-05  1.01873  0.0
H  H17  1  0.09583010  0.49383509  0.22269707  1  0.067251  -1.4e-05  0.953846  0.0  0.084696  4.2e-05  1.01868  0.0  0.085  2.9e-05  1.018798  0.0  0.108177  0.084272  3.8e-05  1.018792  0.0
H  H18  1  0.86567363  0.68621447  0.63882853  1  0.076149  0.002052  0.931891  0.002  0.092497  0.001891  0.99506  0.002  0.091891  0.001423  0.997013  0.002  0.106004  0.092767  0.001699  0.993892  0.002
H  H19  1  0.13431717  0.31380256  0.36117246  1  0.076189  -0.002049  0.931744  -0.002  0.09251  -0.001892  0.994936  -0.002  0.091908  -0.001424  0.996881  -0.002  0.105998  0.092783  -0.0017  0.993763  -0.002
H  H20  1  0.55950637  0.88441107  0.62092620  1  0.066818  0.000483  0.937041  0.001  0.082135  0.000461  1.004073  0.001  0.081907  0.000332  1.005106  0.001  0.104528  0.082197  0.000427  1.003378  0.001
H  H21  1  0.44047760  0.11558035  0.37907905  1  0.066791  -0.000483  0.936957  -0.001  0.082151  -0.000461  1.003951  -0.001  0.081925  -0.000332  1.004981  -0.001  0.104488  0.082216  -0.000427  1.003253  -0.001
H  H22  1  0.72319978  0.95443236  0.66054973  1  0.055927  0.002706  0.960479  0.004  0.07314  0.002192  1.02348  0.003  0.071614  0.001575  1.026365  0.002  0.094534  0.074208  0.002005  1.021432  0.003
H  H23  1  0.27678134  0.04557248  0.33944383  1  0.055964  -0.002708  0.960566  -0.004  0.073209  -0.002192  1.023545  -0.003  0.071687  -0.001575  1.026427  -0.002  0.094519  0.074273  -0.002006  1.021501  -0.003
H  H24  1  0.55104115  0.08269038  0.81482300  1  0.071394  2.4e-05  0.937123  0.0  0.092556  3.1e-05  0.990403  0.0  0.093513  3.1e-05  0.990586  0.0  0.090082  0.091731  2.4e-05  0.990472  0.0
H  H25  1  0.44894717  0.91731861  0.18517363  1  0.071405  -2.5e-05  0.937033  0.0  0.092516  -3e-05  0.99036  0.0  0.093476  -3.1e-05  0.990541  0.0  0.090063  0.091695  -2.4e-05  0.990425  0.0
H  H26  1  0.40935674  0.95722625  0.82431336  1  0.06577  -0.000376  0.970044  0.0  0.073905  -0.000462  1.048819  0.0  0.074673  -0.000484  1.046619  0.0  0.087857  0.073068  -0.000337  1.050779  0.0
H  H27  1  0.59062447  0.04278256  0.17568562  1  0.06586  0.000377  0.969971  0.0  0.073963  0.000463  1.048753  0.0  0.074725  0.000484  1.046558  0.0  0.087919  0.073111  0.000337  1.050738  0.0
H  H28  1  0.46022345  0.25080999  0.59326042  1  0.052871  -1e-06  0.936438  0.0  0.075616  -1.2e-05  0.991325  0.0  0.076106  -1e-05  0.991797  0.0  0.085903  0.075157  -1.1e-05  0.991159  0.0
H  H29  1  0.53976838  0.74919106  0.40673410  1  0.052896  -0.0  0.936425  0.0  0.075622  1.2e-05  0.991302  0.0  0.076122  1.1e-05  0.991774  0.0  0.085904  0.075168  1.1e-05  0.99113  0.0
H  H30  1  0.31805986  0.12672527  0.60348512  1  0.045699  -2e-06  0.952136  0.0  0.06541  -1.1e-05  1.014106  0.0  0.065092  -9e-06  1.016334  0.0  0.081051  0.065573  -1e-05  1.012663  0.0
H  H31  1  0.68193039  0.87327709  0.39650923  1  0.045724  4e-06  0.952214  0.0  0.065387  1.2e-05  1.014224  0.0  0.065077  9e-06  1.016458  0.0  0.081053  0.065553  1e-05  1.012779  0.0
H  H32  1  0.17338503  0.24358565  0.78496229  1  0.091858  -7e-06  0.949701  0.0  0.115301  -1.5e-05  1.008039  0.0  0.116655  -7e-06  1.007984  0.0  0.082234  0.114247  -1.7e-05  1.008158  0.0
H  H33  1  0.82660202  0.75642740  0.21502547  1  0.091853  7e-06  0.949621  0.0  0.115227  1.6e-05  1.008039  0.0  0.116584  7e-06  1.007979  0.0  0.082228  0.114197  1.7e-05  1.008138  0.0
H  H34  1  0.16267222  0.41613689  0.64153126  1  0.077002  1.7e-05  0.970071  0.0  0.097496  4.1e-05  1.038537  0.0  0.098254  2.8e-05  1.039298  0.0  0.076245  0.096926  4e-05  1.038024  0.0
H  H35  1  0.83731753  0.58385882  0.35845739  1  0.076953  -1.6e-05  0.970036  0.0  0.09742  -4e-05  1.038525  0.0  0.098178  -2.8e-05  1.039281  0.0  0.076249  0.096854  -4e-05  1.038015  0.0
H  H36  1  0.30849508  0.38207882  0.75908836  1  0.108821  -8.3e-05  0.963931  0.0  0.128486  -0.000104  1.026147  0.0  0.130032  -9.8e-05  1.026316  0.0  0.087261  0.127027  -8.3e-05  1.026453  0.0
H  H37  1  0.69148522  0.61794078  0.24089666  1  0.108867  8.3e-05  0.963704  0.0  0.128467  0.000105  1.026011  0.0  0.129997  9.8e-05  1.026197  0.0  0.087243  0.127028  8.4e-05  1.026305  0.0
H  H38  1  0.23018988  0.71820135  0.52005231  1  0.100144  0.000125  0.958415  0.0  0.110357  0.000147  1.020016  0.0  0.113817  0.000108  1.017546  0.0  0.103802  0.107861  0.000142  1.021877  0.0
H  H39  1  0.76981633  0.28177580  0.47995985  1  0.100209  -0.000126  0.958302  0.0  0.110412  -0.000147  1.019937  0.0  0.113874  -0.000108  1.017464  0.0  0.10385  0.107915  -0.000142  1.021799  0.0
H  H40  1  0.94588412  0.13341190  0.67766442  1  0.091698  -1.6e-05  0.964983  0.0  0.099237  -1.5e-05  1.03124  0.0  0.10319  -7e-06  1.027992  0.0  0.100133  0.096329  -1.7e-05  1.033774  0.0
H  H41  1  0.05412408  0.86656664  0.32234730  1  0.091659  1.5e-05  0.965015  0.0  0.099251  1.5e-05  1.031239  0.0  0.103202  7e-06  1.027993  0.0  0.100181  0.096347  1.7e-05  1.033775  0.0
C  C42  1  0.79350742  0.54065241  0.99628658  1  0.119551  -0.00224  3.73457  -0.003  0.067025  -0.00116  4.017471  -0.002  0.082012  -0.001044  4.029099  -0.002  -0.090773  0.054908  -0.000935  4.008647  -0.002
C  C43  1  0.20651223  0.45935596  0.00370795  1  0.119156  0.002262  3.735235  0.003  0.066724  0.001158  4.01799  0.002  0.081696  0.001048  4.029635  0.002  -0.090842  0.05461  0.000938  4.009151  0.002
C  C44  1  0.77618587  0.71762242  0.89617516  1  -0.055018  -0.003006  3.603718  -0.004  -0.114746  -0.001494  3.863763  -0.003  -0.112702  -0.001631  3.877753  -0.003  -0.078104  -0.114846  -0.001051  3.854043  -0.002
C  C45  1  0.22380573  0.28239999  0.10382371  1  -0.054743  0.002993  3.603801  0.004  -0.114527  0.001493  3.863765  0.003  -0.112506  0.001631  3.877749  0.003  -0.078032  -0.114582  0.00105  3.854087  0.002
C  C46  1  0.72077294  0.50417949  0.65663799  1  0.109959  0.001009  3.658882  0.002  0.043089  0.000865  3.947407  0.002  0.049454  0.000594  3.95371  0.001  -0.080183  0.03886  0.000817  3.942743  0.001
C  C47  1  0.27923602  0.49582459  0.34336003  1  0.110061  -0.001011  3.659018  -0.002  0.04303  -0.000867  3.947685  -0.002  0.049397  -0.000595  3.953979  -0.001  -0.080264  0.038805  -0.000817  3.943021  -0.001
C  C48  1  0.80412383  0.60396327  0.71343449  1  -0.0651  -0.000982  3.657612  -0.003  -0.124215  0.00039  3.92441  -0.002  -0.120642  -0.000159  3.938736  -0.002  -0.077749  -0.12618  0.000608  3.914398  -0.001
C  C49  1  0.19587526  0.39605398  0.28656317  1  -0.065218  0.000962  3.65798  0.003  -0.124382  -0.000392  3.924617  0.002  -0.120825  0.000158  3.938959  0.002  -0.077737  -0.126297  -0.000608  3.914644  0.001
C  C50  1  0.61855931  0.90010266  0.69946149  1  -0.012153  -0.001988  3.644981  -0.004  -0.069986  -0.000461  3.911719  -0.002  -0.066131  -0.001003  3.928861  -0.003  -0.077062  -0.071982  -1.2e-05  3.899239  -0.002
C  C51  1  0.38142228  0.09990080  0.30053773  1  -0.012141  0.001993  3.645132  0.004  -0.070153  0.000459  3.911787  0.002  -0.066305  0.001001  3.928927  0.003  -0.076985  -0.072096  1.2e-05  3.899337  0.002
C  C52  1  0.48961755  0.02797021  0.75954418  1  -0.143953  4.3e-05  3.699438  0.0  -0.184373  -0.000121  3.961323  0.0  -0.185875  -0.000216  3.976552  0.0  -0.171881  -0.183056  -3.2e-05  3.950646  0.0
C  C53  1  0.51036365  0.97203861  0.24045390  1  -0.143998  -4.3e-05  3.699437  0.0  -0.184336  0.00012  3.961294  0.0  -0.185831  0.000216  3.976537  0.0  -0.17192  -0.183008  3.3e-05  3.950621  0.0
C  C54  1  0.37965706  0.18165109  0.65878937  1  -0.045131  -8e-05  3.702238  0.0  -0.076012  -1.7e-05  3.956853  0.0  -0.076897  -2.6e-05  3.973462  0.0  -0.166246  -0.075241  -4e-06  3.945154  0.0
C  C55  1  0.62032650  0.81836182  0.34120495  1  -0.045311  7.6e-05  3.702402  0.0  -0.076121  1.6e-05  3.956909  0.0  -0.077045  2.6e-05  3.973565  0.0  -0.166313  -0.07535  4e-06  3.945214  0.0
C  C56  1  0.24842544  0.31361887  0.71425140  1  -0.288946  -1.4e-05  3.707943  0.0  -0.361234  4e-06  3.949305  0.0  -0.3642  -4e-06  3.961579  0.0  -0.250662  -0.358747  1.2e-05  3.940835  0.0
C  C57  1  0.75156121  0.68639148  0.28573787  1  -0.288861  1.2e-05  3.707581  0.0  -0.361003  -8e-06  3.948914  0.0  -0.363943  4e-06  3.961202  0.0  -0.250595  -0.358549  -1.2e-05  3.940428  0.0
C  C58  1  0.19942468  0.83290143  0.72998825  1  0.62358  -0.001796  3.92417  -0.004  0.584873  -2e-05  4.216067  -0.002  0.62106  -0.000236  4.209157  -0.002  0.196569  0.559934  0.0001  4.220228  -0.001
C  C59  1  0.80057925  0.16707559  0.27003218  1  0.623467  0.0018  3.924676  0.004  0.584674  2e-05  4.216677  0.002  0.620894  0.000235  4.209722  0.002  0.196473  0.559723  -0.0001  4.220888  0.001
C  C60  1  0.09769436  0.91767792  0.61032669  1  -0.054543  0.005706  3.746838  0.006  -0.033938  0.004015  3.978225  0.005  -0.039331  0.003221  3.997978  0.004  -0.019068  -0.030421  0.00357  3.965159  0.004
C  C61  1  0.90232893  0.08230229  0.38968538  1  -0.054245  -0.00571  3.746593  -0.006  -0.033613  -0.004016  3.978006  -0.005  -0.039015  -0.00322  3.997752  -0.004  -0.019011  -0.030095  -0.003569  3.964948  -0.004
C  C62  1  0.12817779  0.84095323  0.51066295  1  -0.091679  -0.001337  3.756009  -0.002  -0.115681  -0.000405  4.01006  -0.001  -0.115124  -0.000425  4.027077  -0.001  -0.09004  -0.116105  -0.000318  3.998847  -0.001
C  C63  1  0.87183004  0.15902662  0.48935030  1  -0.091872  0.001341  3.755891  0.002  -0.115888  0.000408  4.009963  0.001  -0.115333  0.000425  4.02698  0.001  -0.090145  -0.116308  0.000318  3.998745  0.001
C  C64  1  0.96875646  0.07731173  0.59843006  1  -0.086814  -0.000396  3.758494  0.0  -0.107852  0.000231  4.010259  0.0  -0.108701  3.5e-05  4.02889  0.0  -0.088815  -0.107262  0.000272  3.997899  0.0
C  C65  1  0.03125887  0.92266698  0.40158021  1  -0.086842  0.000397  3.758574  0.0  -0.107966  -0.00023  4.010363  0.0  -0.108811  -3.5e-05  4.028986  0.0  -0.088904  -0.10738  -0.000272  3.998012  0.0
N  N66  1  0.68772585  0.71813269  0.78484047  1  -0.197024  0.064948  3.243213  0.085  -0.12027  0.057  3.507362  0.079  -0.152237  0.049213  3.536573  0.071  -0.349175  -0.099741  0.046647  3.488192  0.062
N  N67  1  0.31226533  0.28187093  0.21516521  1  -0.197175  -0.064951  3.243767  -0.085  -0.119924  -0.057014  3.507288  -0.079  -0.151888  -0.049221  3.536528  -0.071  -0.349184  -0.099625  -0.046651  3.488399  -0.062
O  O68  1  0.63342951  0.51512827  0.00969808  1  -0.609811  0.023175  2.234565  0.031  -0.600779  0.013989  2.605123  0.019  -0.66396  0.011798  2.602585  0.017  -0.413507  -0.551527  0.010826  2.605675  0.015
O  O69  1  0.36659369  0.48486408  0.99030148  1  -0.60966  -0.023187  2.234885  -0.031  -0.60066  -0.01401  2.60543  -0.019  -0.663842  -0.011805  2.602903  -0.017  -0.413401  -0.551403  -0.010834  2.605956  -0.015
O  O70  1  0.65914045  0.37538718  0.75026012  1  -0.522202  -0.000249  2.03813  0.0  -0.481497  -0.000528  2.262622  0.0  -0.498137  -0.000743  2.250358  0.0  -0.393887  -0.469367  -0.000241  2.271327  0.0
O  O71  1  0.34086528  0.62461552  0.24973484  1  -0.522205  0.000247  2.038134  0.0  -0.481519  0.000529  2.262734  0.0  -0.49817  0.000744  2.250479  0.0  -0.393895  -0.469401  0.000241  2.271451  0.0
O  O72  1  0.34157266  0.71576643  0.71974484  1  -0.625571  0.048036  2.081157  0.065  -0.589178  0.040547  2.365648  0.059  -0.631591  0.034277  2.354504  0.052  -0.345679  -0.559092  0.03436  2.373777  0.049
O  O73  1  0.65844311  0.28420286  0.28027284  1  -0.625572  -0.04802  2.081861  -0.065  -0.589097  -0.040546  2.366333  -0.059  -0.631526  -0.034274  2.355205  -0.052  -0.345561  -0.559042  -0.034351  2.374517  -0.049
O  O74  1  0.14580892  0.87896072  0.82660337  1  -0.606062  -0.000818  1.872825  -0.001  -0.570742  -0.000855  2.084236  -0.001  -0.591685  -0.001144  2.07357  -0.001  -0.335822  -0.556369  -0.000463  2.091707  0.0
O  O75  1  0.85419571  0.12102579  0.17340507  1  -0.60611  0.000811  1.872824  0.0  -0.570729  0.000853  2.084231  0.001  -0.591687  0.001141  2.073552  0.001  -0.335869  -0.556352  0.000463  2.091721  0.0
