# generated using pymatgen
data_ZnH9C15O4F
_symmetry_space_group_name_H-M   'P 1'
_cell_length_a   6.37901121
_cell_length_b   10.78934140
_cell_length_c   35.53010721
_cell_angle_alpha   90.44685006
_cell_angle_beta   116.00320922
_cell_angle_gamma   90.17919662
_symmetry_Int_Tables_number   1
_chemical_formula_structural   ZnH9C15O4F
_chemical_formula_sum   'Zn4 H36 C60 O16 F4'
_cell_volume   2197.70000729
_cell_formula_units_Z   4
loop_
 _symmetry_equiv_pos_site_id
 _symmetry_equiv_pos_as_xyz
  1  'x, y, z'
loop_
 _atom_site_type_symbol
 _atom_site_label
 _atom_site_symmetry_multiplicity
 _atom_site_fract_x
 _atom_site_fract_y
 _atom_site_fract_z
 _atom_site_occupancy
 _atom_site_pbe_bader_charge
 _atom_site_pbe_bader_spin_density
 _atom_site_pbe_cm5_charge
 _atom_site_pbe_ddec_charge
 _atom_site_pbe_ddec_spin_density
 _atom_site_pbe_ddec_sum_bond_order
 _atom_site_pbe_magmom
Zn  Zn0  1  0.89258694  0.99842971  0.52178744  1  1.317201  0  0.694033  0.937017  0  2.334684  0
Zn  Zn1  1  0.39465115  0.99406144  0.49590964  1  1.311514  0  0.702013  0.937793  0  2.154039  0
Zn  Zn2  1  0.01667143  0.98365986  0.97843330  1  1.315217  0  0.693419  0.932367  0  2.340435  0
Zn  Zn3  1  0.51352375  0.98352815  0.00406042  1  1.310043  0  0.702351  0.939179  0  2.142803  0
H  H4  1  0.83697404  0.06593775  0.90576220  1  0.079931  0  0.09991  0.102845  0  1.063763  0
H  H5  1  0.80647967  0.08277831  0.83506316  1  0.109893  0  0.105341  0.108761  0  0.995085  0
H  H6  1  0.10305063  0.94107937  0.78354210  1  0.055616  0  0.097792  0.094371  0  1.038913  0
H  H7  1  0.13392397  0.92119319  0.85543399  1  0.07396  0  0.1064  0.1099  0  1.007289  0
H  H8  1  0.81575533  0.04644873  0.71598168  1  0.056473  0  0.098141  0.094801  0  1.037154  0
H  H9  1  0.11308838  0.90428282  0.66638663  1  0.088927  0  0.105254  0.10858  0  0.995969  0
H  H10  1  0.07719213  0.91840457  0.59511912  1  0.108554  0  0.100006  0.100804  0  1.055691  0
H  H11  1  0.77962407  0.06317427  0.64364549  1  0.109129  0  0.107042  0.111379  0  1.004984  0
H  H12  1  0.65122223  0.86809318  0.13938615  1  0.079127  0  0.107077  0.109992  0  0.98838  0
H  H13  1  0.62954453  0.87044387  0.20763339  1  0.054686  0  0.102227  0.101642  0  1.005176  0
H  H14  1  0.11425095  0.15845197  0.16236036  1  0.05854  0  0.104269  0.104588  0  1.002226  0
H  H15  1  0.11546889  0.14426335  0.09323864  1  0.074622  0  0.105695  0.110324  0  0.990918  0
H  H16  1  0.78307006  0.16366232  0.33830104  1  0.0653  0  0.103528  0.103077  0  1.006956  0
H  H17  1  0.27232151  0.86890365  0.29166993  1  0.071879  0  0.102551  0.102254  0  1.006507  0
H  H18  1  0.25070869  0.86578598  0.35974298  1  0.054567  0  0.106839  0.109763  0  0.987274  0
H  H19  1  0.78366610  0.14779844  0.40730738  1  0.10427  0  0.10571  0.110431  0  0.991134  0
H  H20  1  0.41784907  0.72656674  0.56189538  1  0.088488  0  0.11211  0.147477  0  1.002165  0
H  H21  1  0.42541540  0.26410807  0.56221644  1  0.124979  0  0.112037  0.146291  0  1.000588  0
H  H22  1  0.89283236  0.38078938  0.49182561  1  0.077963  0  0.109184  0.11652  0  0.98331  0
H  H23  1  0.89103811  0.61220799  0.49188905  1  0.090362  0  0.110457  0.118792  0  0.980393  0
H  H24  1  0.47858333  0.71695193  0.93686334  1  0.130189  0  0.11308  0.147947  0  1.001112  0
H  H25  1  0.49927002  0.25456558  0.93844384  1  0.08482  0  0.111944  0.146312  0  1.000412  0
H  H26  1  0.02210513  0.36552345  0.00790076  1  0.093812  0  0.109426  0.11746  0  0.982793  0
H  H27  1  0.01703654  0.59689312  0.00810359  1  0.080572  0  0.110144  0.118435  0  0.980611  0
H  H28  1  0.26504478  0.16297618  0.70884773  1  0.043502  0  0.093394  0.13298  0  1.008837  0
H  H29  1  0.40631505  0.23404280  0.75944524  1  0.040361  0  0.096438  0.135092  0  0.980224  0
H  H30  1  0.13480475  0.16048025  0.74428900  1  0.028908  0  0.089708  0.122141  0  1.011921  0
H  H31  1  0.78663711  0.82803013  0.75597788  1  0.015302  0  0.089633  0.122205  0  1.012742  0
H  H32  1  0.51619872  0.75409632  0.74164653  1  0.042354  0  0.096295  0.135185  0  0.980035  0
H  H33  1  0.66042249  0.82635638  0.79201005  1  0.058796  0  0.093272  0.132957  0  1.009389  0
H  H34  1  0.02665419  0.92862962  0.21844872  1  0.023691  0  0.089807  0.124005  0  1.002116  0
H  H35  1  0.99864593  0.08154333  0.20080549  1  0.037545  0  0.091499  0.126834  0  1.013959  0
H  H36  1  0.10882734  0.05328920  0.25521684  1  0.051281  0  0.090604  0.126494  0  1.059231  0
H  H37  1  0.88193504  0.95113453  0.28144522  1  0.049242  0  0.089779  0.123472  0  1.009631  0
H  H38  1  0.88705000  0.10561462  0.29733218  1  0.033817  0  0.092083  0.127201  0  1.010534  0
H  H39  1  0.77901177  0.06990625  0.24329783  1  0.068317  0  0.091012  0.127091  0  1.048415  0
C  C40  1  0.65783058  0.76404021  0.51884389  1  1.528914  0  0.230886  0.619609  0  4.138124  0
C  C41  1  0.42907712  0.99699763  0.57258500  1  1.48846  0  0.216384  0.584005  0  4.124885  0
C  C42  1  0.66371127  0.22741094  0.51933760  1  1.594078  0  0.228903  0.617348  0  4.140581  0
C  C43  1  0.53025211  0.99906898  0.43069196  1  1.549825  0  0.223457  0.6114  0  4.15189  0
C  C44  1  0.24694510  0.75177361  0.98117101  1  1.521141  0  0.230938  0.620126  0  4.140381  0
C  C45  1  0.48209761  0.98490372  0.92726323  1  1.502142  0  0.216001  0.583258  0  4.127267  0
C  C46  1  0.25588744  0.21525334  0.98081136  1  1.587552  0  0.229768  0.616776  0  4.140578  0
C  C47  1  0.36983797  0.99613986  0.06916464  1  1.526164  0  0.221891  0.60808  0  4.159446  0
C  C48  1  0.48698742  0.99025083  0.88580789  1  -0.087505  0  -0.024251  -0.060024  0  3.998407  0
C  C49  1  0.67662775  0.03421859  0.87965167  1  -0.028394  0  -0.080326  -0.078576  0  3.95939  0
C  C50  1  0.65885130  0.04575093  0.83925706  1  -0.070119  0  -0.084526  -0.127136  0  3.944457  0
C  C51  1  0.45248843  0.01339232  0.80403579  1  0.028763  0  0.005601  0.097843  0  3.977834  0
C  C52  1  0.26454061  0.96739049  0.81051031  1  -0.061088  0  -0.090696  -0.140879  0  3.980384  0
C  C53  1  0.28084796  0.95583666  0.85059759  1  0.023683  0  -0.080561  -0.077799  0  3.975165  0
C  C54  1  0.42285024  0.03467198  0.76048805  1  0.023463  0  -0.01949  0.027372  0  3.965525  0
C  C55  1  0.49881404  0.95361775  0.74016117  1  -0.069925  0  -0.019341  0.027258  0  3.965851  0
C  C56  1  0.65323357  0.01937076  0.68935542  1  -0.051422  0  -0.090245  -0.140937  0  3.981916  0
C  C57  1  0.46690738  0.97401800  0.69643784  1  0.001929  0  0.005363  0.097955  0  3.977467  0
C  C58  1  0.25922696  0.94071201  0.66160310  1  -0.041884  0  -0.084019  -0.128083  0  3.943757  0
C  C59  1  0.23854144  0.95049831  0.62096534  1  -0.05604  0  -0.079131  -0.075538  0  3.958597  0
C  C60  1  0.42671808  0.99369771  0.61423827  1  -0.060662  0  -0.023379  -0.058099  0  3.995984  0
C  C61  1  0.63405869  0.02920463  0.64902836  1  -0.029881  0  -0.080275  -0.077877  0  3.972976  0
C  C62  1  0.38536735  0.00631981  0.11210704  1  -0.022387  0  -0.020369  -0.036855  0  3.994127  0
C  C63  1  0.53365683  0.93119423  0.14474911  1  -0.012103  0  -0.085605  -0.098851  0  4.000344  0
C  C64  1  0.52303992  0.93410483  0.18309317  1  -0.037018  0  -0.08878  -0.134545  0  3.991385  0
C  C65  1  0.37377826  0.01586407  0.19062267  1  -7.8e-05  0  -0.002922  0.083449  0  3.978322  0
C  C66  1  0.23070500  0.09314718  0.15764439  1  -0.067594  0  -0.089241  -0.128474  0  3.981381  0
C  C67  1  0.23303650  0.08701153  0.11886019  1  -0.014897  0  -0.08546  -0.090325  0  4.00045  0
C  C68  1  0.35438398  0.01818726  0.23067090  1  -0.020176  0  -0.01772  0.043498  0  3.936146  0
C  C69  1  0.54237829  0.02294064  0.26891063  1  -0.028614  0  -0.017956  0.041846  0  3.937529  0
C  C70  1  0.66737411  0.09667217  0.34254710  1  -0.012382  0  -0.088896  -0.126471  0  3.979842  0
C  C71  1  0.52468930  0.01841674  0.30906928  1  -0.064761  0  -0.002844  0.08203  0  3.974726  0
C  C72  1  0.37752658  0.93417483  0.31636833  1  -0.087541  0  -0.089824  -0.135868  0  3.990755  0
C  C73  1  0.36734311  0.93065666  0.35474267  1  -0.020421  0  -0.084257  -0.096999  0  3.995887  0
C  C74  1  0.51471228  0.00733869  0.38776063  1  0.027429  0  -0.020542  -0.036825  0  3.99195  0
C  C75  1  0.66614220  0.08972667  0.38136181  1  -0.065315  0  -0.085994  -0.091376  0  4.002229  0
C  C76  1  0.66714246  0.62624560  0.52232967  1  -0.041894  0  -0.00957  -0.067538  0  3.930571  0
C  C77  1  0.54273288  0.56243527  0.54146451  1  0.027641  0  0.001732  0.076476  0  3.958553  0
C  C78  1  0.79333321  0.56136778  0.50548000  1  0.036164  0  -0.084601  -0.099403  0  4.001787  0
C  C79  1  0.42678934  0.62597951  0.56203514  1  0.142664  0  -0.098224  -0.240032  0  3.971698  0
C  C80  1  0.32360655  0.56053599  0.58239744  1  0.493224  0  0.091844  0.184489  0  4.118116  0
C  C81  1  0.66926574  0.36575706  0.52237237  1  0.000533  0  -0.007428  -0.059847  0  3.923977  0
C  C82  1  0.79422644  0.43101527  0.50545094  1  -0.056158  0  -0.085515  -0.104166  0  4.004662  0
C  C83  1  0.54420566  0.42921332  0.54150457  1  -0.018829  0  0.000556  0.071897  0  3.963122  0
C  C84  1  0.43038446  0.36484221  0.56215351  1  0.057688  0  -0.097772  -0.238695  0  3.9714  0
C  C85  1  0.32555619  0.42958602  0.58251998  1  0.403068  0  0.091844  0.18415  0  4.121448  0
C  C86  1  0.23962191  0.61368200  0.97744007  1  -0.008587  0  -0.008248  -0.062801  0  3.924703  0
C  C87  1  0.36542190  0.55119725  0.95820027  1  0.035624  0  0.001526  0.074053  0  3.959906  0
C  C88  1  0.11592572  0.54740978  0.99438109  1  0.072368  0  -0.083955  -0.101102  0  4.002935  0
C  C89  1  0.47667809  0.61624461  0.93724199  1  0.055929  0  -0.097763  -0.23769  0  3.971256  0
C  C90  1  0.58339611  0.55216562  0.91708128  1  0.384303  0  0.092082  0.184322  0  4.118558  0
C  C91  1  0.24744113  0.35328233  0.97767581  1  0.016542  0  -0.008312  -0.062514  0  3.92876  0
C  C92  1  0.11944269  0.41710287  0.99439730  1  -0.118338  0  -0.085733  -0.103497  0  4.006062  0
C  C93  1  0.37044033  0.41799846  0.95850499  1  -0.007993  0  0.000316  0.071924  0  3.963706  0
C  C94  1  0.48801731  0.35512005  0.93810127  1  0.116624  0  -0.09802  -0.239095  0  3.969883  0
C  C95  1  0.58938817  0.42121816  0.91756001  1  0.503531  0  0.091988  0.18421  0  4.116491  0
C  C96  1  0.30051946  0.15383571  0.74180758  1  -0.05096  0  -0.235436  -0.397285  0  3.988253  0
C  C97  1  0.62216341  0.83471599  0.75889772  1  -0.069377  0  -0.235713  -0.398177  0  3.988904  0
C  C98  1  0.11037371  0.02072985  0.22625736  1  -0.046817  0  -0.246  -0.419714  0  4.029605  0
C  C99  1  0.78414234  0.03839195  0.27275780  1  -0.111075  0  -0.246329  -0.417198  0  4.028108  0
O  O100  1  0.85192132  0.82204282  0.53022980  1  -1.150518  0  -0.308649  -0.547531  0  2.356098  0
O  O101  1  0.45695611  0.81261741  0.50409073  1  -1.147424  0  -0.304949  -0.536472  0  2.346452  0
O  O102  1  0.23451623  0.99447666  0.53723095  1  -1.156267  0  -0.322255  -0.555217  0  2.38918  0
O  O103  1  0.62012220  0.00097998  0.57057169  1  -1.151589  0  -0.295998  -0.539838  0  2.231526  0
O  O104  1  0.46325664  0.17630332  0.50152471  1  -1.152479  0  -0.308224  -0.546407  0  2.331312  0
O  O105  1  0.86012882  0.17233611  0.53405895  1  -1.141973  0  -0.307109  -0.533266  0  2.335009  0
O  O106  1  0.73832499  0.00867897  0.45998320  1  -1.188712  0  -0.325714  -0.579396  0  2.354571  0
O  O107  1  0.34545281  0.98457142  0.43567955  1  -1.146996  0  -0.312581  -0.533058  0  2.240561  0
O  O108  1  0.05229138  0.80785460  0.96937657  1  -1.142876  0  -0.307845  -0.537831  0  2.335391  0
O  O109  1  0.44819345  0.80196327  0.99672241  1  -1.142713  0  -0.305957  -0.539865  0  2.346208  0
O  O110  1  0.67561861  0.98792991  0.96278548  1  -1.173258  0  -0.323004  -0.554935  0  2.393105  0
O  O111  1  0.29042842  0.97895565  0.92898871  1  -1.15032  0  -0.29616  -0.538889  0  2.224766  0
O  O112  1  0.45659272  0.16604430  0.99781013  1  -1.15276  0  -0.306755  -0.539999  0  2.330115  0
O  O113  1  0.06028968  0.15792385  0.96687859  1  -1.151947  0  -0.30538  -0.541523  0  2.367816  0
O  O114  1  0.16143977  0.00286907  0.03994176  1  -1.179014  0  -0.324739  -0.574161  0  2.355143  0
O  O115  1  0.55434305  0.98197278  0.06410593  1  -1.142913  0  -0.311908  -0.534942  0  2.244992  0
F  F116  1  0.21627775  0.61982921  0.60284732  1  -0.624785  0  -0.097396  -0.1245  0  1.356724  0
F  F117  1  0.22097421  0.36987746  0.60319243  1  -0.626616  0  -0.097904  -0.123076  0  1.353042  0
F  F118  1  0.68613592  0.61273524  0.89624137  1  -0.624669  0  -0.098545  -0.124442  0  1.348545  0
F  F119  1  0.69843105  0.36279043  0.89726997  1  -0.625135  0  -0.096243  -0.122498  0  1.359578  0
