# generated using pymatgen
data_AgPH19C19NCl
_symmetry_space_group_name_H-M   'P 1'
_cell_length_a   9.19829786
_cell_length_b   9.72333829
_cell_length_c   11.38837538
_cell_angle_alpha   75.20831236
_cell_angle_beta   66.57615266
_cell_angle_gamma   72.71289448
_symmetry_Int_Tables_number   1
_chemical_formula_structural   AgPH19C19NCl
_chemical_formula_sum   'Ag2 P2 H38 C38 N2 Cl2'
_cell_volume   881.39093438
_cell_formula_units_Z   2
loop_
 _symmetry_equiv_pos_site_id
 _symmetry_equiv_pos_as_xyz
  1  'x, y, z'
loop_
 _atom_site_type_symbol
 _atom_site_label
 _atom_site_symmetry_multiplicity
 _atom_site_fract_x
 _atom_site_fract_y
 _atom_site_fract_z
 _atom_site_occupancy
 _atom_site_hle17_bader_spin_density
 _atom_site_hle17_ddec_charge
 _atom_site_hle17_ddec_spin_density
 _atom_site_hle17_ddec_sum_bond_order
 _atom_site_hle17_magmom
 _atom_site_hse06_10hf_bader_spin_density
 _atom_site_hse06_10hf_ddec_charge
 _atom_site_hse06_10hf_ddec_spin_density
 _atom_site_hse06_10hf_ddec_sum_bond_order
 _atom_site_hse06_10hf_magmom
 _atom_site_hse06_bader_spin_density
 _atom_site_hse06_ddec_charge
 _atom_site_hse06_ddec_spin_density
 _atom_site_hse06_ddec_sum_bond_order
 _atom_site_hse06_magmom
 _atom_site_pbe_bader_spin_density
 _atom_site_pbe_cm5_charge
 _atom_site_pbe_ddec_charge
 _atom_site_pbe_ddec_spin_density
 _atom_site_pbe_ddec_sum_bond_order
 _atom_site_pbe_magmom
Ag  Ag0  1  0.66320836  0.84668830  0.99820790  1  0  0.294586  0  1.868048  0  0  0.17723  0  2.367697  0  0  0.193752  0  2.326889  0  0  0.360749  0.165841  0  2.395364  0
Ag  Ag1  1  0.33679285  0.15331475  0.00179105  1  0  0.294555  0  1.86807  0  0  0.177183  0  2.367727  0  0  0.193702  0  2.326926  0  0  0.36074  0.165799  0  2.395393  0
P  P2  1  0.75879981  0.65655215  0.87428707  1  0  0.329701  0  3.711764  0  0  0.290881  0  4.184128  0  0  0.301305  0  4.178639  0  0  -0.024963  0.284228  0  4.18453  0
P  P3  1  0.24119757  0.34345200  0.12571112  1  0  0.329678  0  3.711546  0  0  0.290927  0  4.183887  0  0  0.301355  0  4.17841  0  0  -0.024986  0.284272  0  4.184292  0
H  H4  1  0.96175722  0.88118777  0.05985999  1  0  0.074996  0  0.928365  0  0  0.086535  0  0.988262  0  0  0.089036  0  0.98603  0  0  0.115273  0.08434  0  0.990536  0
H  H5  1  0.03824820  0.11881745  0.94014153  1  0  0.074958  0  0.928455  0  0  0.08655  0  0.988292  0  0  0.089057  0  0.98606  0  0  0.115279  0.084351  0  0.990566  0
H  H6  1  0.04972005  0.85283477  0.24620046  1  0  0.109107  0  0.991774  0  0  0.11605  0  1.057228  0  0  0.118914  0  1.05726  0  0  0.092613  0.112934  0  1.058603  0
H  H7  1  0.95027617  0.14716937  0.75380602  1  0  0.109167  0  0.991686  0  0  0.116085  0  1.057164  0  0  0.11895  0  1.057194  0  0  0.092633  0.112969  0  1.05854  0
H  H8  1  0.84679325  0.81072859  0.47379471  1  0  0.093615  0  0.957209  0  0  0.104172  0  1.018429  0  0  0.105744  0  1.019136  0  0  0.104919  0.10318  0  1.017773  0
H  H9  1  0.15320009  0.18926793  0.52620908  1  0  0.093611  0  0.957247  0  0  0.104166  0  1.01847  0  0  0.105738  0  1.019179  0  0  0.104923  0.103156  0  1.017832  0
H  H10  1  0.56262930  0.80863134  0.49943169  1  0  0.099017  0  0.981308  0  0  0.108606  0  1.041603  0  0  0.110963  0  1.042737  0  0  0.101079  0.107046  0  1.04048  0
H  H11  1  0.43736746  0.19136083  0.50056491  1  0  0.099018  0  0.981297  0  0  0.108602  0  1.0416  0  0  0.110966  0  1.042727  0  0  0.101076  0.107043  0  1.040476  0
H  H12  1  0.49514678  0.84376399  0.29851754  1  0  0.07162  0  0.972982  0  0  0.078337  0  1.041523  0  0  0.080998  0  1.039105  0  0  0.103864  0.076478  0  1.043316  0
H  H13  1  0.50485786  0.15623472  0.70147599  1  0  0.071586  0  0.972966  0  0  0.078322  0  1.041496  0  0  0.080983  0  1.039078  0  0  0.103848  0.076462  0  1.043291  0
H  H14  1  0.71651891  0.43172848  0.01470092  1  0  0.113035  0  0.958466  0  0  0.130719  0  1.01545  0  0  0.130985  0  1.018791  0  0  0.100563  0.130226  0  1.013657  0
H  H15  1  0.28348166  0.56827239  0.98529960  1  0  0.112985  0  0.958474  0  0  0.130707  0  1.015446  0  0  0.130981  0  1.018786  0  0  0.100566  0.130215  0  1.013652  0
H  H16  1  0.89985788  0.39930844  0.88207176  1  0  0.092489  0  0.967417  0  0  0.109679  0  1.029257  0  0  0.110626  0  1.030187  0  0  0.093137  0.109582  0  1.027342  0
H  H17  1  0.10014387  0.60069243  0.11792838  1  0  0.092451  0  0.967432  0  0  0.10967  0  1.029283  0  0  0.110623  0  1.030212  0  0  0.093127  0.109573  0  1.027367  0
H  H18  1  0.84303169  0.54160364  0.11323120  1  0  0.060003  0  0.948546  0  0  0.076144  0  1.018094  0  0  0.076903  0  1.018558  0  0  0.082903  0.075783  0  1.017527  0
H  H19  1  0.15697268  0.45839615  0.88676481  1  0  0.060123  0  0.948495  0  0  0.076229  0  1.018059  0  0  0.076992  0  1.018514  0  0  0.082923  0.075868  0  1.017493  0
H  H20  1  0.94858550  0.36172815  0.08944306  1  0  0.059814  0  0.952938  0  0  0.078187  0  1.018185  0  0  0.078392  0  1.019112  0  0  0.084423  0.078096  0  1.01697  0
H  H21  1  0.05141560  0.63827054  0.91055863  1  0  0.059856  0  0.952933  0  0  0.078228  0  1.018156  0  0  0.078416  0  1.019101  0  0  0.084438  0.078135  0  1.016943  0
H  H22  1  0.91029973  0.90234111  0.73722647  1  0  0.084645  0  0.995522  0  0  0.088901  0  1.07263  0  0  0.092157  0  1.07064  0  0  0.08622  0.086085  0  1.074704  0
H  H23  1  0.08969621  0.09766413  0.26277283  1  0  0.084561  0  0.995624  0  0  0.088787  0  1.072753  0  0  0.092064  0  1.070743  0  0  0.086167  0.085963  0  1.074832  0
H  H24  1  0.13314253  0.94343958  0.52579840  1  0  0.082082  0  0.967179  0  0  0.094695  0  1.025717  0  0  0.096762  0  1.02605  0  0  0.096565  0.092694  0  1.026803  0
H  H25  1  0.86685458  0.05656567  0.47419789  1  0  0.082038  0  0.9673  0  0  0.094688  0  1.025798  0  0  0.096754  0  1.02613  0  0  0.096551  0.092686  0  1.026886  0
H  H26  1  0.27083448  0.74845422  0.38802509  1  0  0.085174  0  0.989526  0  0  0.093842  0  1.056412  0  0  0.096337  0  1.055461  0  0  0.091365  0.091637  0  1.057879  0
H  H27  1  0.72916699  0.25154775  0.61197226  1  0  0.085183  0  0.9896  0  0  0.093866  0  1.056447  0  0  0.096363  0  1.055502  0  0  0.091384  0.091694  0  1.057886  0
H  H28  1  0.19667325  0.50616737  0.46734485  1  0  0.085544  0  0.973283  0  0  0.095638  0  1.036052  0  0  0.09758  0  1.037127  0  0  0.095954  0.094094  0  1.035975  0
H  H29  1  0.80332904  0.49383132  0.53265559  1  0  0.085566  0  0.97335  0  0  0.095636  0  1.036139  0  0  0.097578  0  1.037213  0  0  0.095961  0.094093  0  1.036061  0
H  H30  1  0.97621836  0.46427972  0.67613459  1  0  0.081726  0  0.97652  0  0  0.092462  0  1.042605  0  0  0.094481  0  1.042727  0  0  0.096317  0.090546  0  1.043593  0
H  H31  1  0.02378049  0.53572332  0.32386864  1  0  0.081701  0  0.976546  0  0  0.09245  0  1.042623  0  0  0.09447  0  1.042745  0  0  0.096288  0.090529  0  1.043627  0
H  H32  1  0.68260752  0.40105503  0.82120443  1  0  0.093705  0  0.976971  0  0  0.101897  0  1.045225  0  0  0.104602  0  1.044233  0  0  0.093196  0.100588  0  1.044764  0
H  H33  1  0.31739541  0.59894584  0.17879356  1  0  0.093708  0  0.976914  0  0  0.101895  0  1.045183  0  0  0.104575  0  1.044223  0  0  0.093201  0.100588  0  1.044718  0
H  H34  1  0.48526646  0.39156546  0.73077781  1  0  0.078686  0  0.980973  0  0  0.086956  0  1.049908  0  0  0.089489  0  1.04882  0  0  0.092942  0.085365  0  1.050507  0
H  H35  1  0.51473582  0.60843323  0.26922175  1  0  0.078671  0  0.980954  0  0  0.08696  0  1.049876  0  0  0.08949  0  1.048801  0  0  0.092925  0.085371  0  1.050474  0
H  H36  1  0.29735877  0.61844546  0.67157675  1  0  0.081053  0  0.995522  0  0  0.091127  0  1.058279  0  0  0.092429  0  1.060191  0  0  0.094522  0.091953  0  1.053617  0
H  H37  1  0.70264561  0.38155432  0.32842102  1  0  0.081062  0  0.995484  0  0  0.091168  0  1.058216  0  0  0.092471  0  1.060126  0  0  0.094534  0.091996  0  1.05355  0
H  H38  1  0.29982599  0.85570433  0.71516351  1  0  0.078522  0  0.978193  0  0  0.088171  0  1.042315  0  0  0.089514  0  1.044346  0  0  0.09271  0.086929  0  1.041646  0
H  H39  1  0.70017603  0.14429544  0.28483853  1  0  0.078534  0  0.978195  0  0  0.088186  0  1.042311  0  0  0.089529  0  1.044341  0  0  0.092727  0.086934  0  1.041649  0
H  H40  1  0.49736066  0.86667145  0.81007285  1  0  0.08681  0  0.982303  0  0  0.089566  0  1.06103  0  0  0.09284  0  1.058898  0  0  0.091538  0.086883  0  1.06325  0
H  H41  1  0.50263663  0.13332832  0.18993423  1  0  0.086878  0  0.982346  0  0  0.089613  0  1.061089  0  0  0.092878  0  1.058966  0  0  0.091555  0.086929  0  1.063307  0
C  C42  1  0.87664882  0.86496130  0.15899758  1  0  0.112114  0  3.709471  0  0  0.084846  0  3.956286  0  0  0.090521  0  3.974442  0  0  0.044121  0.080895  0  3.944526  0
C  C43  1  0.12335228  0.13503739  0.84100236  1  0  0.1121  0  3.709575  0  0  0.084799  0  3.956389  0  0  0.090467  0  3.974549  0  0  0.044104  0.080854  0  3.944621  0
C  C44  1  0.92507130  0.84882080  0.26418416  1  0  -0.134091  0  3.741278  0  0  -0.143769  0  3.986899  0  0  -0.150919  0  4.008808  0  0  -0.088183  -0.13837  0  3.972624  0
C  C45  1  0.07492953  0.15117899  0.73581475  1  0  -0.134141  0  3.741267  0  0  -0.1438  0  3.986912  0  0  -0.15095  0  4.008822  0  0  -0.088202  -0.138402  0  3.972628  0
C  C46  1  0.81225631  0.82674012  0.38916522  1  0  -0.015184  0  3.722114  0  0  -0.031085  0  3.964587  0  0  -0.027804  0  3.98334  0  0  -0.069096  -0.033098  0  3.952177  0
C  C47  1  0.18774360  0.17325857  0.61083510  1  0  -0.015181  0  3.722205  0  0  -0.031076  0  3.964674  0  0  -0.027796  0  3.983429  0  0  -0.0691  -0.033074  0  3.952272  0
C  C48  1  0.65478241  0.82483782  0.40375655  1  0  -0.121345  0  3.738926  0  0  -0.127338  0  3.974132  0  0  -0.134017  0  3.996212  0  0  -0.08486  -0.122997  0  3.959344  0
C  C49  1  0.34522082  0.17515215  0.59624372  1  0  -0.121339  0  3.738917  0  0  -0.127339  0  3.974154  0  0  -0.134022  0  3.996227  0  0  -0.084861  -0.122998  0  3.95936  0
C  C50  1  0.61675521  0.84270298  0.29313853  1  0  0.106516  0  3.710487  0  0  0.082225  0  3.950433  0  0  0.087257  0  3.969449  0  0  0.039938  0.079256  0  3.937534  0
C  C51  1  0.38324562  0.15729680  0.70686126  1  0  0.106518  0  3.710445  0  0  0.082219  0  3.950406  0  0  0.087252  0  3.969421  0  0  0.039952  0.07925  0  3.937506  0
C  C52  1  0.82702610  0.47247894  0.95421269  1  0  -0.279362  0  3.653487  0  0  -0.297775  0  3.895486  0  0  -0.302271  0  3.908164  0  0  -0.169983  -0.294605  0  3.886044  0
C  C53  1  0.17297154  0.52752412  0.04578390  1  0  -0.27928  0  3.653424  0  0  -0.297851  0  3.895591  0  0  -0.302374  0  3.908305  0  0  -0.170025  -0.294678  0  3.886145  0
C  C54  1  0.92162739  0.47327837  0.03794043  1  0  -0.086767  0  3.715125  0  0  -0.126169  0  3.971068  0  0  -0.127182  0  3.98719  0  0  -0.170246  -0.125335  0  3.960385  0
C  C55  1  0.07837278  0.52671923  0.96205741  1  0  -0.086939  0  3.715218  0  0  -0.126248  0  3.971119  0  0  -0.127247  0  3.987257  0  0  -0.170226  -0.125412  0  3.960438  0
C  C56  1  0.92801914  0.68113441  0.72072841  1  0  -0.098869  0  3.75764  0  0  -0.057041  0  3.989379  0  0  -0.062751  0  4.016287  0  0  -0.026537  -0.053288  0  3.969234  0
C  C57  1  0.07198036  0.31887082  0.27927063  1  0  -0.098828  0  3.757727  0  0  -0.056982  0  3.989364  0  0  -0.062691  0  4.016277  0  0  -0.026516  -0.053234  0  3.969234  0
C  C58  1  0.97401549  0.81567714  0.67762829  1  0  -0.091523  0  3.760879  0  0  -0.109042  0  4.001529  0  0  -0.110614  0  4.023205  0  0  -0.090168  -0.106846  0  3.986484  0
C  C59  1  0.02598255  0.18432918  0.32237185  1  0  -0.091459  0  3.76099  0  0  -0.108934  0  4.001633  0  0  -0.110521  0  4.023286  0  0  -0.090107  -0.106728  0  3.986586  0
C  C60  1  0.09829517  0.83861136  0.55886814  1  0  -0.070914  0  3.76913  0  0  -0.079782  0  4.010681  0  0  -0.082367  0  4.032647  0  0  -0.091741  -0.078122  0  3.996885  0
C  C61  1  0.90170249  0.16139169  0.44113196  1  0  -0.070814  0  3.769188  0  0  -0.079729  0  4.010739  0  0  -0.082313  0  4.032707  0  0  -0.091696  -0.078068  0  3.996947  0
C  C62  1  0.17730925  0.72836251  0.48228129  1  0  -0.067511  0  3.753615  0  0  -0.08045  0  3.997557  0  0  -0.081569  0  4.018096  0  0  -0.090657  -0.080558  0  3.984578  0
C  C63  1  0.82268722  0.27164055  0.51771832  1  0  -0.067548  0  3.753647  0  0  -0.080496  0  3.997618  0  0  -0.081624  0  4.018163  0  0  -0.090679  -0.080634  0  3.984621  0
C  C64  1  0.13385080  0.59317901  0.52600984  1  0  -0.077242  0  3.771124  0  0  -0.087252  0  4.016111  0  0  -0.089784  0  4.037553  0  0  -0.092986  -0.085481  0  4.002851  0
C  C65  1  0.86614831  0.40682295  0.47399091  1  0  -0.077252  0  3.771151  0  0  -0.087251  0  4.01615  0  0  -0.089782  0  4.037592  0  0  -0.093007  -0.08548  0  4.002897  0
C  C66  1  0.00969366  0.56984210  0.64427999  1  0  -0.076668  0  3.749958  0  0  -0.097048  0  3.991882  0  0  -0.097869  0  4.013878  0  0  -0.088227  -0.096616  0  3.977775  0
C  C67  1  0.99030545  0.43015986  0.35572076  1  0  -0.076711  0  3.750011  0  0  -0.097101  0  3.991937  0  0  -0.097924  0  4.013934  0  0  -0.088239  -0.09667  0  3.977823  0
C  C68  1  0.60827894  0.63675618  0.81655048  1  0  -0.098312  0  3.754428  0  0  -0.059756  0  3.991294  0  0  -0.065584  0  4.018118  0  0  -0.028185  -0.055729  0  3.972234  0
C  C69  1  0.39171269  0.36324251  0.18345778  1  0  -0.09817  0  3.754336  0  0  -0.059644  0  3.991221  0  0  -0.065465  0  4.018028  0  0  -0.028088  -0.055619  0  3.97217  0
C  C70  1  0.60242122  0.50249729  0.79610392  1  0  -0.073912  0  3.728952  0  0  -0.092876  0  3.970201  0  0  -0.093808  0  3.992161  0  0  -0.087233  -0.092857  0  3.955743  0
C  C71  1  0.39757660  0.49750031  0.20389994  1  0  -0.073922  0  3.729006  0  0  -0.092878  0  3.970283  0  0  -0.09379  0  3.992251  0  0  -0.087257  -0.092857  0  3.95582  0
C  C72  1  0.49034248  0.49679758  0.74427054  1  0  -0.073785  0  3.765483  0  0  -0.082586  0  4.009766  0  0  -0.085367  0  4.030486  0  0  -0.092332  -0.081425  0  3.997073  0
C  C73  1  0.50966125  0.50320003  0.25572703  1  0  -0.073755  0  3.765396  0  0  -0.082582  0  4.009712  0  0  -0.085364  0  4.030424  0  0  -0.092298  -0.081421  0  3.997019  0
C  C74  1  0.38392453  0.62373168  0.71249523  1  0  -0.067101  0  3.766259  0  0  -0.077363  0  4.003714  0  0  -0.077624  0  4.024132  0  0  -0.090458  -0.077914  0  3.988232  0
C  C75  1  0.61607657  0.37626701  0.28750559  1  0  -0.067091  0  3.766163  0  0  -0.077379  0  4.003627  0  0  -0.077639  0  4.024042  0  0  -0.090449  -0.077927  0  3.988136  0
C  C76  1  0.38601640  0.75702130  0.73645820  1  0  -0.081314  0  3.779478  0  0  -0.088631  0  4.018863  0  0  -0.091207  0  4.040241  0  0  -0.096322  -0.086593  0  4.004198  0
C  C77  1  0.61398469  0.24297739  0.26354086  1  0  -0.081375  0  3.779546  0  0  -0.088696  0  4.018927  0  0  -0.09127  0  4.040302  0  0  -0.096392  -0.08665  0  4.004261  0
C  C78  1  0.49723037  0.76353076  0.78875738  1  0  -0.077508  0  3.75156  0  0  -0.09659  0  3.99327  0  0  -0.097786  0  4.014974  0  0  -0.089012  -0.09536  0  3.97821  0
C  C79  1  0.50276927  0.23646903  0.21124279  1  0  -0.077647  0  3.751667  0  0  -0.096709  0  3.993383  0  0  -0.097902  0  4.015093  0  0  -0.089068  -0.095478  0  3.978318  0
N  N80  1  0.72576830  0.86080140  0.17238624  1  0  -0.274286  0  3.271226  0  0  -0.200264  0  3.546428  0  0  -0.214649  0  3.561537  0  0  -0.336332  -0.189743  0  3.536696  0
N  N81  1  0.27423199  0.13920056  0.82761413  1  0  -0.274201  0  3.271219  0  0  -0.200197  0  3.546458  0  0  -0.214585  0  3.56157  0  0  -0.336306  -0.189679  0  3.536725  0
Cl  Cl82  1  0.66048776  0.11384044  0.87135346  1  0  -0.588862  0  0.994254  0  0  -0.512047  0  1.302043  0  0  -0.528409  0  1.276799  0  0  -0.347394  -0.499726  0  1.320712  0
Cl  Cl83  1  0.33951254  0.88616151  0.12865042  1  0  -0.588854  0  0.994223  0  0  -0.512043  0  1.302015  0  0  -0.528403  0  1.276773  0  0  -0.347391  -0.499722  0  1.320677  0
