# generated using pymatgen
data_CuH9C7BrN
_symmetry_space_group_name_H-M   'P 1'
_cell_length_a   3.93394805
_cell_length_b   14.48934669
_cell_length_c   14.08715317
_cell_angle_alpha   89.99927137
_cell_angle_beta   89.99903617
_cell_angle_gamma   89.99814531
_symmetry_Int_Tables_number   1
_chemical_formula_structural   CuH9C7BrN
_chemical_formula_sum   'Cu4 H36 C28 Br4 N4'
_cell_volume   802.97247950
_cell_formula_units_Z   4
loop_
 _symmetry_equiv_pos_site_id
 _symmetry_equiv_pos_as_xyz
  1  'x, y, z'
loop_
 _atom_site_type_symbol
 _atom_site_label
 _atom_site_symmetry_multiplicity
 _atom_site_fract_x
 _atom_site_fract_y
 _atom_site_fract_z
 _atom_site_occupancy
 _atom_site_hle17_bader_spin_density
 _atom_site_hle17_ddec_charge
 _atom_site_hle17_ddec_spin_density
 _atom_site_hle17_ddec_sum_bond_order
 _atom_site_hle17_magmom
 _atom_site_hse06_10hf_bader_spin_density
 _atom_site_hse06_10hf_ddec_charge
 _atom_site_hse06_10hf_ddec_spin_density
 _atom_site_hse06_10hf_ddec_sum_bond_order
 _atom_site_hse06_10hf_magmom
 _atom_site_hse06_bader_spin_density
 _atom_site_hse06_ddec_charge
 _atom_site_hse06_ddec_spin_density
 _atom_site_hse06_ddec_sum_bond_order
 _atom_site_hse06_magmom
 _atom_site_pbe_bader_spin_density
 _atom_site_pbe_cm5_charge
 _atom_site_pbe_ddec_charge
 _atom_site_pbe_ddec_spin_density
 _atom_site_pbe_ddec_sum_bond_order
 _atom_site_pbe_magmom
Cu  Cu0  1  0.38650247  0.92690861  0.83844671  1  0  0.406897  0  1.857373  0  0  0.302832  0  2.333684  0  0  0.31714  0  2.282048  0  0  0.338935  0.294841  0  2.368042  0
Cu  Cu1  1  0.38652304  0.42689268  0.66153345  1  0  0.407004  0  1.857288  0  0  0.302994  0  2.333561  0  0  0.31732  0  2.281947  0  0  0.339025  0.295002  0  2.367897  0
Cu  Cu2  1  0.61344647  0.92690589  0.33846702  1  0  0.406955  0  1.857151  0  0  0.302943  0  2.333471  0  0  0.317241  0  2.281832  0  0  0.339002  0.294987  0  2.367731  0
Cu  Cu3  1  0.61350009  0.42690170  0.16154169  1  0  0.406891  0  1.857268  0  0  0.302878  0  2.333544  0  0  0.317184  0  2.281921  0  0  0.338938  0.294851  0  2.36795  0
H  H4  1  0.23557534  0.72791371  0.78987090  1  0  0.120958  0  0.959259  0  0  0.143553  0  1.022007  0  0  0.144828  0  1.021844  0  0  0.092409  0.142581  0  1.02211  0
H  H5  1  0.23557634  0.22792478  0.71012135  1  0  0.121006  0  0.959272  0  0  0.143586  0  1.022036  0  0  0.144861  0  1.021876  0  0  0.092426  0.14261  0  1.022137  0
H  H6  1  0.76442979  0.72791313  0.28986467  1  0  0.121007  0  0.959179  0  0  0.143577  0  1.021972  0  0  0.144855  0  1.021813  0  0  0.092423  0.142601  0  1.022073  0
H  H7  1  0.76439012  0.22792835  0.21015487  1  0  0.120919  0  0.959134  0  0  0.143538  0  1.021895  0  0  0.144816  0  1.021732  0  0  0.092395  0.142566  0  1.021996  0
H  H8  1  0.60066352  0.65834941  0.76912005  1  0  0.12885  0  0.978874  0  0  0.147627  0  1.039218  0  0  0.149343  0  1.03971  0  0  0.080962  0.146245  0  1.039122  0
H  H9  1  0.60066376  0.15835954  0.73089911  1  0  0.128826  0  0.97877  0  0  0.147688  0  1.039024  0  0  0.149409  0  1.03951  0  0  0.08095  0.146301  0  1.038932  0
H  H10  1  0.39935073  0.65834994  0.26910769  1  0  0.128835  0  0.978946  0  0  0.147648  0  1.039264  0  0  0.149361  0  1.039756  0  0  0.080963  0.146263  0  1.039163  0
H  H11  1  0.39931538  0.15836352  0.23091160  1  0  0.128791  0  0.978857  0  0  0.14766  0  1.039123  0  0  0.149377  0  1.039628  0  0  0.080933  0.146276  0  1.039024  0
H  H12  1  0.60707270  0.77900302  0.74249143  1  0  0.107912  0  0.966067  0  0  0.125807  0  1.038567  0  0  0.12834  0  1.035721  0  0  0.086268  0.123834  0  1.040741  0
H  H13  1  0.60706180  0.27902455  0.75750482  1  0  0.107872  0  0.966026  0  0  0.125769  0  1.038547  0  0  0.128298  0  1.035711  0  0  0.086283  0.123799  0  1.040715  0
H  H14  1  0.39292293  0.77900568  0.24248550  1  0  0.107938  0  0.966013  0  0  0.125845  0  1.038515  0  0  0.128387  0  1.035663  0  0  0.086299  0.123872  0  1.040677  0
H  H15  1  0.39286628  0.27901962  0.25752515  1  0  0.107922  0  0.965943  0  0  0.125902  0  1.038397  0  0  0.128456  0  1.035531  0  0  0.086292  0.123932  0  1.040556  0
H  H16  1  0.85555743  0.61563944  0.91832068  1  0  0.106707  0  0.966122  0  0  0.11933  0  1.023017  0  0  0.121982  0  1.023657  0  0  0.100807  0.117368  0  1.022823  0
H  H17  1  0.85560888  0.11562106  0.58170234  1  0  0.10667  0  0.966319  0  0  0.119244  0  1.023239  0  0  0.121894  0  1.023888  0  0  0.10072  0.117281  0  1.023043  0
H  H18  1  0.14447684  0.61562701  0.41829934  1  0  0.106713  0  0.966324  0  0  0.119261  0  1.023277  0  0  0.121913  0  1.02392  0  0  0.100733  0.117302  0  1.023082  0
H  H19  1  0.14443424  0.11564176  0.08172359  1  0  0.106812  0  0.966275  0  0  0.119309  0  1.023279  0  0  0.121954  0  1.023936  0  0  0.100751  0.117352  0  1.023073  0
H  H20  1  0.04783952  0.65930160  0.08280646  1  0  0.091162  0  0.952103  0  0  0.102151  0  1.012788  0  0  0.104935  0  1.010558  0  0  0.09928  0.100018  0  1.014499  0
H  H21  1  0.04789142  0.15926663  0.41720446  1  0  0.091332  0  0.951867  0  0  0.102367  0  1.012496  0  0  0.105115  0  1.010303  0  0  0.099336  0.100228  0  1.014215  0
H  H22  1  0.95216617  0.65926764  0.58279239  1  0  0.091095  0  0.952105  0  0  0.102112  0  1.01277  0  0  0.104877  0  1.01056  0  0  0.099265  0.099987  0  1.014483  0
H  H23  1  0.95220536  0.15927132  0.91721665  1  0  0.091175  0  0.951945  0  0  0.10216  0  1.012631  0  0  0.104939  0  1.010411  0  0  0.099273  0.100032  0  1.014337  0
H  H24  1  0.92695069  0.82078296  0.14034290  1  0  0.100268  0  0.968284  0  0  0.110798  0  1.032432  0  0  0.113881  0  1.031868  0  0  0.098654  0.108496  0  1.033115  0
H  H25  1  0.92697928  0.32073628  0.35964668  1  0  0.100006  0  0.968543  0  0  0.110648  0  1.032612  0  0  0.113728  0  1.032049  0  0  0.098555  0.108336  0  1.03331  0
H  H26  1  0.07301570  0.82074147  0.64035162  1  0  0.099955  0  0.968581  0  0  0.110598  0  1.032642  0  0  0.113676  0  1.032082  0  0  0.098555  0.108295  0  1.033341  0
H  H27  1  0.07308749  0.32074586  0.85965539  1  0  0.100044  0  0.96849  0  0  0.110656  0  1.032624  0  0  0.113735  0  1.032062  0  0  0.098611  0.108361  0  1.033308  0
H  H28  1  0.38150417  0.95378953  0.09659332  1  0  0.117842  0  0.977202  0  0  0.137717  0  1.04286  0  0  0.139487  0  1.042883  0  0  0.084096  0.136344  0  1.043018  0
H  H29  1  0.38150828  0.45373886  0.40337183  1  0  0.117955  0  0.976934  0  0  0.137636  0  1.042816  0  0  0.139401  0  1.042845  0  0  0.084097  0.136265  0  1.042978  0
H  H30  1  0.61851901  0.95374399  0.59658853  1  0  0.117979  0  0.977241  0  0  0.137833  0  1.04288  0  0  0.139599  0  1.04291  0  0  0.084213  0.136462  0  1.043055  0
H  H31  1  0.61854345  0.45374507  0.90339472  1  0  0.117901  0  0.97705  0  0  0.1377  0  1.042784  0  0  0.139468  0  1.042811  0  0  0.084159  0.136328  0  1.042953  0
H  H32  1  0.80583443  0.98751601  0.08023497  1  0  0.119998  0  0.971611  0  0  0.140422  0  1.033054  0  0  0.142191  0  1.033063  0  0  0.085864  0.139116  0  1.033059  0
H  H33  1  0.80581760  0.48748584  0.41971987  1  0  0.119901  0  0.971973  0  0  0.140423  0  1.033243  0  0  0.142196  0  1.033262  0  0  0.085781  0.139105  0  1.033281  0
H  H34  1  0.19419292  0.98749349  0.58026348  1  0  0.120022  0  0.971821  0  0  0.140478  0  1.033186  0  0  0.142251  0  1.033196  0  0  0.085811  0.139166  0  1.033211  0
H  H35  1  0.19419643  0.48749713  0.91973205  1  0  0.119935  0  0.971721  0  0  0.14039  0  1.033106  0  0  0.14216  0  1.033113  0  0  0.085817  0.139078  0  1.033134  0
H  H36  1  0.51075743  0.99864262  0.98397630  1  0  0.104951  0  0.983516  0  0  0.121019  0  1.058469  0  0  0.125202  0  1.053251  0  0  0.079162  0.11786  0  1.06226  0
H  H37  1  0.51070706  0.49861608  0.51597300  1  0  0.10506  0  0.983197  0  0  0.12111  0  1.058178  0  0  0.125331  0  1.052921  0  0  0.079125  0.117944  0  1.061986  0
H  H38  1  0.48922841  0.99861339  0.48399529  1  0  0.105218  0  0.983405  0  0  0.121248  0  1.058342  0  0  0.12546  0  1.053098  0  0  0.079247  0.118084  0  1.062144  0
H  H39  1  0.48926700  0.49862273  0.01599413  1  0  0.105107  0  0.983228  0  0  0.12109  0  1.058255  0  0  0.1253  0  1.053012  0  0  0.079176  0.117938  0  1.062046  0
C  C40  1  0.63400154  0.74809169  0.89108935  1  0  0.306383  0  3.731921  0  0  0.311223  0  3.975987  0  0  0.321947  0  3.994419  0  0  0.111044  0.303921  0  3.963723  0
C  C41  1  0.63401386  0.24808332  0.60890642  1  0  0.306617  0  3.731759  0  0  0.311326  0  3.975953  0  0  0.322052  0  3.994382  0  0  0.111004  0.304027  0  3.963678  0
C  C42  1  0.36599747  0.74808699  0.39108785  1  0  0.306472  0  3.731302  0  0  0.311401  0  3.975318  0  0  0.322125  0  3.993748  0  0  0.111142  0.304105  0  3.963044  0
C  C43  1  0.36595387  0.24809242  0.10893332  1  0  0.306674  0  3.731129  0  0  0.31129  0  3.975587  0  0  0.322015  0  3.994023  0  0  0.111053  0.303998  0  3.963304  0
C  C44  1  0.51480885  0.72651420  0.79282943  1  0  -0.388879  0  3.717475  0  0  -0.470714  0  3.95148  0  0  -0.473605  0  3.956643  0  0  -0.249653  -0.468363  0  3.948037  0
C  C45  1  0.51481504  0.22652325  0.70717166  1  0  -0.388935  0  3.717171  0  0  -0.470788  0  3.951203  0  0  -0.473689  0  3.956382  0  0  -0.249608  -0.468436  0  3.947746  0
C  C46  1  0.48519634  0.72651053  0.29281935  1  0  -0.388978  0  3.717049  0  0  -0.470811  0  3.950946  0  0  -0.473714  0  3.956111  0  0  -0.249687  -0.468459  0  3.947483  0
C  C47  1  0.48515678  0.22652924  0.20719352  1  0  -0.388928  0  3.717037  0  0  -0.470835  0  3.950972  0  0  -0.473755  0  3.956132  0  0  -0.249628  -0.468483  0  3.947511  0
C  C48  1  0.80456330  0.68393173  0.94730568  1  0  -0.179255  0  3.703055  0  0  -0.193909  0  3.942931  0  0  -0.203922  0  3.964805  0  0  -0.092091  -0.187669  0  3.928763  0
C  C49  1  0.80460310  0.18391164  0.55271111  1  0  -0.179227  0  3.703021  0  0  -0.193772  0  3.942892  0  0  -0.203778  0  3.964741  0  0  -0.091998  -0.187532  0  3.928725  0
C  C50  1  0.19542865  0.68391333  0.44729110  1  0  -0.179266  0  3.702928  0  0  -0.19385  0  3.942739  0  0  -0.203857  0  3.964594  0  0  -0.092009  -0.18761  0  3.928585  0
C  C51  1  0.19540490  0.18391878  0.05272706  1  0  -0.179466  0  3.702856  0  0  -0.193967  0  3.942821  0  0  -0.203974  0  3.964677  0  0  -0.092043  -0.187728  0  3.928652  0
C  C52  1  0.91251834  0.70866473  0.03815128  1  0  0.012084  0  3.739417  0  0  -0.007037  0  3.989888  0  0  8e-05  0  4.006498  0  0  -0.072892  -0.011703  0  3.97895  0
C  C53  1  0.91255335  0.20863748  0.46185405  1  0  0.011498  0  3.738929  0  0  -0.007656  0  3.989455  0  0  -0.000507  0  4.006071  0  0  -0.073085  -0.012324  0  3.97852  0
C  C54  1  0.08747797  0.70863899  0.53814641  1  0  0.011745  0  3.73898  0  0  -0.007403  0  3.989463  0  0  -0.000269  0  4.006076  0  0  -0.073092  -0.012082  0  3.97856  0
C  C55  1  0.08747232  0.20864418  0.96187403  1  0  0.011924  0  3.738763  0  0  -0.007133  0  3.989164  0  0  -1.1e-05  0  4.005766  0  0  -0.072835  -0.011805  0  3.978243  0
C  C56  1  0.84547034  0.79759913  0.07034976  1  0  -0.177735  0  3.701247  0  0  -0.193349  0  3.941727  0  0  -0.203615  0  3.964099  0  0  -0.093082  -0.186942  0  3.927236  0
C  C57  1  0.84552179  0.29757228  0.42964846  1  0  -0.17709  0  3.701094  0  0  -0.192843  0  3.941516  0  0  -0.203075  0  3.963908  0  0  -0.092854  -0.186448  0  3.927005  0
C  C58  1  0.15450902  0.79757488  0.57035014  1  0  -0.177051  0  3.700761  0  0  -0.192746  0  3.941209  0  0  -0.202983  0  3.963611  0  0  -0.092722  -0.18634  0  3.926754  0
C  C59  1  0.15453505  0.29757771  0.92965878  1  0  -0.177237  0  3.700926  0  0  -0.192971  0  3.941358  0  0  -0.203205  0  3.963763  0  0  -0.092961  -0.186587  0  3.926876  0
C  C60  1  0.67228288  0.85964859  0.01178735  1  0  0.314519  0  3.711542  0  0  0.321631  0  3.951384  0  0  0.332839  0  3.969763  0  0  0.115219  0.314015  0  3.939125  0
C  C61  1  0.67229660  0.35962309  0.48819559  1  0  0.314502  0  3.71201  0  0  0.321708  0  3.951694  0  0  0.332821  0  3.97022  0  0  0.115323  0.314158  0  3.939345  0
C  C62  1  0.32769624  0.85962559  0.51179298  1  0  0.314657  0  3.711477  0  0  0.321713  0  3.951438  0  0  0.33284  0  3.969937  0  0  0.115163  0.314091  0  3.939209  0
C  C63  1  0.32768963  0.35963322  0.98820974  1  0  0.314503  0  3.711813  0  0  0.32164  0  3.951624  0  0  0.332756  0  3.970139  0  0  0.115171  0.314062  0  3.93933  0
C  C64  1  0.58915140  0.95524727  0.04421441  1  0  -0.375979  0  3.700612  0  0  -0.45676  0  3.930928  0  0  -0.461207  0  3.936452  0  0  -0.247109  -0.453369  0  3.92728  0
C  C65  1  0.58915614  0.45521043  0.45575220  1  0  -0.376172  0  3.701011  0  0  -0.4569  0  3.93129  0  0  -0.461357  0  3.936811  0  0  -0.247011  -0.453493  0  3.927598  0
C  C66  1  0.41083285  0.95521871  0.54422376  1  0  -0.376544  0  3.701164  0  0  -0.457296  0  3.93148  0  0  -0.461749  0  3.936999  0  0  -0.247268  -0.453868  0  3.927775  0
C  C67  1  0.41086046  0.45521639  0.95577361  1  0  -0.376221  0  3.700922  0  0  -0.456882  0  3.931307  0  0  -0.461327  0  3.936826  0  0  -0.247175  -0.45347  0  3.927582  0
Br  Br68  1  0.92288668  0.99929297  0.77235873  1  0  -0.515942  0  1.431656  0  0  -0.434113  0  1.840994  0  0  -0.454347  0  1.79952  0  0  -0.24396  -0.419518  0  1.86965  0
Br  Br69  1  0.92291246  0.49927829  0.72762974  1  0  -0.516073  0  1.431476  0  0  -0.434259  0  1.840776  0  0  -0.45451  0  1.799337  0  0  -0.244036  -0.419666  0  1.869422  0
Br  Br70  1  0.07701784  0.99932943  0.27240314  1  0  -0.516007  0  1.43121  0  0  -0.434215  0  1.840534  0  0  -0.454447  0  1.799065  0  0  -0.244019  -0.419635  0  1.869161  0
Br  Br71  1  0.07707667  0.49929958  0.22762446  1  0  -0.515965  0  1.431565  0  0  -0.434131  0  1.84086  0  0  -0.45437  0  1.799405  0  0  -0.243949  -0.419517  0  1.869502  0
N  N72  1  0.56934059  0.83467124  0.92357675  1  0  -0.400688  0  3.341021  0  0  -0.328178  0  3.622482  0  0  -0.345437  0  3.630234  0  0  -0.373851  -0.317041  0  3.616797  0
N  N73  1  0.56937698  0.33466051  0.57640695  1  0  -0.400787  0  3.341177  0  0  -0.328311  0  3.622738  0  0  -0.345545  0  3.630528  0  0  -0.374073  -0.317197  0  3.617032  0
N  N74  1  0.43062395  0.83466529  0.42358335  1  0  -0.400766  0  3.341111  0  0  -0.32837  0  3.622668  0  0  -0.345597  0  3.630427  0  0  -0.374034  -0.317239  0  3.616994  0
N  N75  1  0.43064254  0.33466629  0.07642349  1  0  -0.400776  0  3.340544  0  0  -0.328285  0  3.622196  0  0  -0.345514  0  3.629967  0  0  -0.373983  -0.317161  0  3.616497  0
