# generated using pymatgen
data_ZnH12C18S2N3O4
_symmetry_space_group_name_H-M   'P 1'
_cell_length_a   8.10212058
_cell_length_b   10.47221916
_cell_length_c   12.05322538
_cell_angle_alpha   70.17132836
_cell_angle_beta   76.39367767
_cell_angle_gamma   81.55795298
_symmetry_Int_Tables_number   1
_chemical_formula_structural   ZnH12C18S2N3O4
_chemical_formula_sum   'Zn2 H24 C36 S4 N6 O8'
_cell_volume   932.53400983
_cell_formula_units_Z   2
loop_
 _symmetry_equiv_pos_site_id
 _symmetry_equiv_pos_as_xyz
  1  'x, y, z'
loop_
 _atom_site_type_symbol
 _atom_site_label
 _atom_site_symmetry_multiplicity
 _atom_site_fract_x
 _atom_site_fract_y
 _atom_site_fract_z
 _atom_site_occupancy
 _atom_site_hle17_bader_spin_density
 _atom_site_hle17_ddec_charge
 _atom_site_hle17_ddec_spin_density
 _atom_site_hle17_ddec_sum_bond_order
 _atom_site_hle17_magmom
 _atom_site_hse06_10hf_bader_spin_density
 _atom_site_hse06_10hf_ddec_charge
 _atom_site_hse06_10hf_ddec_spin_density
 _atom_site_hse06_10hf_ddec_sum_bond_order
 _atom_site_hse06_10hf_magmom
 _atom_site_hse06_bader_spin_density
 _atom_site_hse06_ddec_charge
 _atom_site_hse06_ddec_spin_density
 _atom_site_hse06_ddec_sum_bond_order
 _atom_site_hse06_magmom
 _atom_site_pbe_bader_spin_density
 _atom_site_pbe_cm5_charge
 _atom_site_pbe_ddec_charge
 _atom_site_pbe_ddec_spin_density
 _atom_site_pbe_ddec_sum_bond_order
 _atom_site_pbe_magmom
Zn  Zn0  1  0.38874879  0.45574077  0.44284259  1  0  1.052376  0  1.859553  0  0  0.886139  0  2.320231  0  0  0.937925  0  2.256316  0  0  0.676764  0.849852  0  2.364117  0
Zn  Zn1  1  0.61125010  0.54424907  0.55716455  1  0  1.052321  0  1.859761  0  0  0.886137  0  2.320423  0  0  0.937914  0  2.256521  0  0  0.676701  0.849848  0  2.364297  0
H  H2  1  0.04912588  0.24807122  0.51415248  1  0  0.112457  0  0.930957  0  0  0.122692  0  0.994116  0  0  0.12634  0  0.99009  0  0  0.111374  0.119987  0  0.997208  0
H  H3  1  0.95088624  0.75193698  0.48583541  1  0  0.112545  0  0.930859  0  0  0.122694  0  0.994105  0  0  0.126349  0  0.990069  0  0  0.111386  0.11999  0  0.997198  0
H  H4  1  0.27848077  0.08855883  0.44561258  1  0  0.118965  0  0.919484  0  0  0.134146  0  0.96745  0  0  0.138048  0  0.966042  0  0  0.110534  0.131313  0  0.968585  0
H  H5  1  0.72153064  0.91144429  0.55437861  1  0  0.118925  0  0.919647  0  0  0.134113  0  0.967597  0  0  0.138007  0  0.9662  0  0  0.110561  0.131283  0  0.968722  0
H  H6  1  0.75971448  0.19572603  0.27701701  1  0  0.075622  0  0.929607  0  0  0.084257  0  0.992045  0  0  0.087797  0  0.988112  0  0  0.111394  0.08167  0  0.994967  0
H  H7  1  0.24030242  0.80429646  0.72296331  1  0  0.075692  0  0.929511  0  0  0.084332  0  0.991952  0  0  0.087873  0  0.988017  0  0  0.11142  0.08174  0  0.994873  0
H  H8  1  0.42380034  0.29676640  0.89393499  1  0  0.07153  0  0.949276  0  0  0.076069  0  1.021235  0  0  0.079989  0  1.016628  0  0  0.105024  0.073335  0  1.024388  0
H  H9  1  0.57618877  0.70323148  0.10607208  1  0  0.071483  0  0.949277  0  0  0.076012  0  1.021248  0  0  0.07993  0  1.01664  0  0  0.105009  0.073284  0  1.024405  0
H  H10  1  0.18762233  0.06870280  0.74400794  1  0  0.104128  0  0.962637  0  0  0.108012  0  1.034722  0  0  0.111719  0  1.031061  0  0  0.103973  0.105274  0  1.03738  0
H  H11  1  0.81235469  0.93130109  0.25600254  1  0  0.104082  0  0.962652  0  0  0.108056  0  1.034646  0  0  0.111763  0  1.030985  0  0  0.103965  0.10531  0  1.037316  0
H  H12  1  0.13531842  0.89346152  0.94600057  1  0  0.113303  0  0.94045  0  0  0.123534  0  0.999079  0  0  0.127344  0  0.997837  0  0  0.102669  0.120972  0  0.999875  0
H  H13  1  0.86465905  0.10653829  0.05400942  1  0  0.113255  0  0.94046  0  0  0.123528  0  0.999062  0  0  0.127339  0  0.997818  0  0  0.102693  0.120965  0  0.999861  0
H  H14  1  0.46842246  0.34105292  0.24133160  1  0  0.085767  0  0.933732  0  0  0.095995  0  0.993824  0  0  0.098817  0  0.990817  0  0  0.1199  0.093749  0  0.996356  0
H  H15  1  0.53158698  0.65894507  0.75866063  1  0  0.085714  0  0.933758  0  0  0.095965  0  0.993851  0  0  0.098788  0  0.990843  0  0  0.119884  0.093715  0  0.996379  0
H  H16  1  0.36242966  0.37943412  0.05272360  1  0  0.110277  0  0.955723  0  0  0.121281  0  1.015464  0  0  0.123999  0  1.015202  0  0  0.108708  0.11917  0  1.016173  0
H  H17  1  0.63758022  0.62055982  0.94727145  1  0  0.110305  0  0.955761  0  0  0.121314  0  1.015502  0  0  0.124036  0  1.015231  0  0  0.108726  0.1192  0  1.01622  0
H  H18  1  0.94406976  0.63369226  0.18153919  1  0  0.104918  0  0.973638  0  0  0.114757  0  1.035528  0  0  0.116601  0  1.03717  0  0  0.103822  0.113396  0  1.034486  0
H  H19  1  0.05594128  0.36630272  0.81845619  1  0  0.104965  0  0.97367  0  0  0.114734  0  1.035628  0  0  0.116578  0  1.037271  0  0  0.103813  0.113372  0  1.034595  0
H  H20  1  0.06328502  0.58055490  0.36594906  1  0  0.09842  0  0.93014  0  0  0.105885  0  0.994205  0  0  0.108905  0  0.990786  0  0  0.122234  0.103561  0  0.997053  0
H  H21  1  0.93672348  0.41944007  0.63404838  1  0  0.098312  0  0.930151  0  0  0.105789  0  0.994226  0  0  0.108806  0  0.990813  0  0  0.122161  0.103464  0  0.997082  0
H  H22  1  0.03090357  0.65172628  0.95663663  1  0  0.091062  0  0.921061  0  0  0.109447  0  0.978123  0  0  0.110496  0  0.97826  0  0  0.09978  0.108551  0  0.978219  0
H  H23  1  0.96909465  0.34826965  0.04336712  1  0  0.091158  0  0.921035  0  0  0.109532  0  0.97808  0  0  0.110578  0  0.978215  0  0  0.099818  0.108623  0  0.978197  0
H  H24  1  0.17524693  0.52321979  0.91523119  1  0  0.086422  0  0.920777  0  0  0.104521  0  0.978501  0  0  0.105588  0  0.978474  0  0  0.099141  0.10372  0  0.978538  0
H  H25  1  0.82474579  0.47678003  0.08476311  1  0  0.086425  0  0.920829  0  0  0.104538  0  0.978517  0  0  0.105606  0  0.978486  0  0  0.099135  0.103737  0  0.978556  0
C  C26  1  0.74293852  0.32866848  0.43798597  1  0  0.664182  0  3.91568  0  0  0.60844  0  4.21416  0  0  0.64481  0  4.206663  0  0  0.208959  0.583723  0  4.218571  0
C  C27  1  0.25705836  0.67132827  0.56200280  1  0  0.663957  0  3.915959  0  0  0.608196  0  4.21452  0  0  0.644566  0  4.207025  0  0  0.208819  0.583477  0  4.218932  0
C  C28  1  0.88548846  0.23473889  0.40018761  1  0  -0.139923  0  3.770032  0  0  -0.118179  0  4.014034  0  0  -0.131211  0  4.038019  0  0  -0.026882  -0.109985  0  3.997991  0
C  C29  1  0.11452772  0.76527854  0.59979767  1  0  -0.139711  0  3.769784  0  0  -0.117999  0  4.013787  0  0  -0.131025  0  4.037767  0  0  -0.026929  -0.109809  0  3.997753  0
C  C30  1  0.03451372  0.20399767  0.44742882  1  0  0.006251  0  3.695672  0  0  -0.027325  0  3.95405  0  0  -0.020716  0  3.970567  0  0  -0.06462  -0.031296  0  3.942486  0
C  C31  1  0.96549646  0.79601660  0.55255588  1  0  0.005959  0  3.695422  0  0  -0.027539  0  3.953815  0  0  -0.020934  0  3.970332  0  0  -0.064633  -0.031513  0  3.942258  0
C  C32  1  0.16225364  0.11569537  0.40927171  1  0  -0.161869  0  3.714532  0  0  -0.177306  0  3.966189  0  0  -0.186776  0  3.987431  0  0  -0.089372  -0.170981  0  3.951646  0
C  C33  1  0.83775837  0.88431385  0.59071588  1  0  -0.161683  0  3.714774  0  0  -0.177112  0  3.966379  0  0  -0.186577  0  3.98762  0  0  -0.089344  -0.170794  0  3.951842  0
C  C34  1  0.13740101  0.06171665  0.32280177  1  0  0.196821  0  3.814995  0  0  0.198527  0  4.088457  0  0  0.209377  0  4.106254  0  0  0.117998  0.191298  0  4.076488  0
C  C35  1  0.86261294  0.93828648  0.67718736  1  0  0.196736  0  3.815144  0  0  0.198444  0  4.088599  0  0  0.209296  0  4.106394  0  0  0.117936  0.191216  0  4.076625  0
C  C36  1  0.87444290  0.17468479  0.31505369  1  0  0.124755  0  3.719659  0  0  0.091811  0  3.9775  0  0  0.100244  0  3.993051  0  0  0.046742  0.086342  0  3.966941  0
C  C37  1  0.12557434  0.82533465  0.68492750  1  0  0.124761  0  3.719623  0  0  0.091842  0  3.977467  0  0  0.100273  0  3.993018  0  0  0.046795  0.086377  0  3.966906  0
C  C38  1  0.25081986  0.00678073  0.02676108  1  0  0.21186  0  3.783446  0  0  0.214096  0  4.053219  0  0  0.225294  0  4.069912  0  0  0.121887  0.206519  0  4.041879  0
C  C39  1  0.74916462  0.99321307  0.97325210  1  0  0.211929  0  3.78333  0  0  0.214198  0  4.05309  0  0  0.225397  0  4.069782  0  0  0.121838  0.206625  0  4.041738  0
C  C40  1  0.35775833  0.20840896  0.90455087  1  0  0.120052  0  3.739887  0  0  0.083765  0  4.005911  0  0  0.092904  0  4.019314  0  0  0.041759  0.07798  0  3.99659  0
C  C41  1  0.64221947  0.79158783  0.09546329  1  0  0.12006  0  3.739913  0  0  0.083772  0  4.005905  0  0  0.092921  0  4.019305  0  0  0.041737  0.077973  0  3.996588  0
C  C42  1  0.31313619  0.19606631  0.80342669  1  0  -0.14593  0  3.786262  0  0  -0.120114  0  4.022861  0  0  -0.132416  0  4.044307  0  0  -0.032151  -0.112396  0  4.008659  0
C  C43  1  0.68683286  0.80394061  0.19658911  1  0  -0.145871  0  3.786229  0  0  -0.11997  0  4.022759  0  0  -0.132284  0  4.044219  0  0  -0.032061  -0.11222  0  4.008511  0
C  C44  1  0.22912231  0.08150781  0.81901753  1  0  -0.010252  0  3.731136  0  0  -0.042823  0  3.988761  0  0  -0.036308  0  4.004557  0  0  -0.069292  -0.046707  0  3.977956  0
C  C45  1  0.77084675  0.91849909  0.18099744  1  0  -0.010229  0  3.731257  0  0  -0.042925  0  3.988915  0  0  -0.036412  0  4.004721  0  0  -0.069323  -0.046817  0  3.978109  0
C  C46  1  0.19926673  0.98395499  0.93186116  1  0  -0.171314  0  3.726968  0  0  -0.185884  0  3.977798  0  0  -0.195224  0  3.998428  0  0  -0.09641  -0.179919  0  3.963911  0
C  C47  1  0.80070913  0.01604791  0.06815312  1  0  -0.171302  0  3.7271  0  0  -0.185868  0  3.977882  0  0  -0.195205  0  3.998507  0  0  -0.096401  -0.1799  0  3.963996  0
C  C48  1  0.36024352  0.30187396  0.68404001  1  0  0.657948  0  3.915722  0  0  0.605709  0  4.208087  0  0  0.64155  0  4.200592  0  0  0.202732  0.5814  0  4.212439  0
C  C49  1  0.63973704  0.69812083  0.31597515  1  0  0.657829  0  3.915267  0  0  0.605597  0  4.207638  0  0  0.641441  0  4.200135  0  0  0.202788  0.581273  0  4.212007  0
C  C50  1  0.35222350  0.40468908  0.22366568  1  0  0.139039  0  3.703584  0  0  0.107031  0  3.95371  0  0  0.114611  0  3.972448  0  0  0.050047  0.102052  0  3.941227  0
C  C51  1  0.64778615  0.59530692  0.77633044  1  0  0.139123  0  3.703472  0  0  0.107045  0  3.953656  0  0  0.114624  0  3.972391  0  0  0.050117  0.102072  0  3.941164  0
C  C52  1  0.29314690  0.42785459  0.11880976  1  0  -0.172839  0  3.709373  0  0  -0.189955  0  3.952781  0  0  -0.198828  0  3.97568  0  0  -0.083445  -0.18437  0  3.938041  0
C  C53  1  0.70685514  0.57214131  0.88118758  1  0  -0.17286  0  3.709455  0  0  -0.189993  0  3.952878  0  0  -0.198866  0  3.97578  0  0  -0.083465  -0.184412  0  3.938136  0
C  C54  1  0.14519412  0.51319033  0.09981456  1  0  0.15466  0  3.728365  0  0  0.171796  0  3.963966  0  0  0.177015  0  3.98667  0  0  0.013043  0.168192  0  3.948368  0
C  C55  1  0.85480794  0.48680554  0.90017947  1  0  0.154747  0  3.72846  0  0  0.171914  0  3.963937  0  0  0.177131  0  3.986644  0  0  0.013013  0.168312  0  3.94833  0
C  C56  1  0.06007224  0.56712909  0.19109418  1  0  -0.174283  0  3.703993  0  0  -0.19262  0  3.953026  0  0  -0.201839  0  3.976209  0  0  -0.088299  -0.186228  0  3.937043  0
C  C57  1  0.93993395  0.43286378  0.80890177  1  0  -0.174468  0  3.70421  0  0  -0.192731  0  3.953221  0  0  -0.201951  0  3.976408  0  0  -0.088329  -0.186339  0  3.937245  0
C  C58  1  0.12560578  0.53865237  0.29406652  1  0  0.152411  0  3.679715  0  0  0.116569  0  3.938007  0  0  0.125208  0  3.954686  0  0  0.055823  0.110752  0  3.927167  0
C  C59  1  0.87440675  0.46134059  0.70592923  1  0  0.152639  0  3.679554  0  0  0.116729  0  3.937893  0  0  0.12537  0  3.954569  0  0  0.055896  0.110905  0  3.927061  0
C  C60  1  0.07552433  0.54344841  0.98799001  1  0  -0.150705  0  3.679325  0  0  -0.193802  0  3.930469  0  0  -0.195151  0  3.941456  0  0  -0.150702  -0.192674  0  3.922845  0
C  C61  1  0.92447390  0.45654748  0.01201043  1  0  -0.150857  0  3.679358  0  0  -0.193885  0  3.930379  0  0  -0.195226  0  3.941358  0  0  -0.150687  -0.192748  0  3.922764  0
S  S62  1  0.30479638  0.94902400  0.27766370  1  0  0.031034  0  2.472162  0  0  0.020504  0  2.838413  0  0  0.01756  0  2.837611  0  0  0.055691  0.022525  0  2.83962  0
S  S63  1  0.69520103  0.05096782  0.72233975  1  0  0.031098  0  2.472084  0  0  0.020566  0  2.838308  0  0  0.017626  0  2.837506  0  0  0.055697  0.022587  0  2.839505  0
S  S64  1  0.21227167  0.87890786  0.16964066  1  0  0.023562  0  2.468249  0  0  0.018534  0  2.838969  0  0  0.015544  0  2.838424  0  0  0.062548  0.02116  0  2.83937  0
S  S65  1  0.78771939  0.12108392  0.83036713  1  0  0.023476  0  2.468351  0  0  0.018437  0  2.839054  0  0  0.015445  0  2.838508  0  0  0.062524  0.021056  0  2.839452  0
N  N66  1  0.27085128  0.46007639  0.30947240  1  0  -0.325544  0  3.291362  0  0  -0.242756  0  3.563643  0  0  -0.263475  0  3.578849  0  0  -0.331649  -0.228714  0  3.553252  0
N  N67  1  0.72915975  0.53991862  0.69052546  1  0  -0.325608  0  3.291143  0  0  -0.242746  0  3.563377  0  0  -0.263463  0  3.578578  0  0  -0.331676  -0.228707  0  3.552988  0
N  N68  1  0.99785811  0.09120218  0.27534814  1  0  -0.353199  0  3.131883  0  0  -0.316818  0  3.402196  0  0  -0.331206  0  3.418227  0  0  -0.321978  -0.307015  0  3.391232  0
N  N69  1  0.00215473  0.90881109  0.72463478  1  0  -0.353322  0  3.132052  0  0  -0.316937  0  3.402345  0  0  -0.331329  0  3.418377  0  0  -0.322041  -0.307139  0  3.391381  0
N  N70  1  0.32487405  0.11774159  0.01468498  1  0  -0.350135  0  3.121609  0  0  -0.319987  0  3.397614  0  0  -0.333378  0  3.412503  0  0  -0.328815  -0.310653  0  3.387593  0
N  N71  1  0.67511815  0.88225128  0.98532645  1  0  -0.350163  0  3.121437  0  0  -0.320035  0  3.397429  0  0  -0.333426  0  3.412314  0  0  -0.328802  -0.3107  0  3.38741  0
O  O72  1  0.60069864  0.32786000  0.41031608  1  0  -0.640607  0  2.071471  0  0  -0.576721  0  2.333748  0  0  -0.605343  0  2.319611  0  0  -0.31936  -0.556731  0  2.342773  0
O  O73  1  0.39931063  0.67212792  0.58968918  1  0  -0.64066  0  2.071148  0  0  -0.576746  0  2.333393  0  0  -0.605374  0  2.319266  0  0  -0.319348  -0.556754  0  2.342415  0
O  O74  1  0.77554902  0.40266778  0.49387800  1  0  -0.636944  0  2.088888  0  0  -0.571843  0  2.358466  0  0  -0.601175  0  2.346084  0  0  -0.312018  -0.551451  0  2.366474  0
O  O75  1  0.22444633  0.59733116  0.50612446  1  0  -0.63676  0  2.089452  0  0  -0.57164  0  2.358985  0  0  -0.60097  0  2.346601  0  0  -0.311902  -0.551253  0  2.366995  0
O  O76  1  0.46419890  0.38473769  0.67844607  1  0  -0.659271  0  2.110078  0  0  -0.597902  0  2.37895  0  0  -0.626649  0  2.366682  0  0  -0.320258  -0.577845  0  2.386711  0
O  O77  1  0.53581723  0.61524541  0.32157533  1  0  -0.659151  0  2.110391  0  0  -0.597749  0  2.379218  0  0  -0.62649  0  2.36694  0  0  -0.320273  -0.577698  0  2.386997  0
O  O78  1  0.29474689  0.30263056  0.59717664  1  0  -0.614989  0  2.002161  0  0  -0.549545  0  2.25426  0  0  -0.578053  0  2.241395  0  0  -0.317232  -0.529568  0  2.26235  0
O  O79  1  0.70525132  0.69737679  0.40284107  1  0  -0.614865  0  2.001366  0  0  -0.549547  0  2.253572  0  0  -0.578063  0  2.240721  0  0  -0.31728  -0.529562  0  2.261663  0
