# generated using pymatgen
data_ZnH13C21N4
_symmetry_space_group_name_H-M   'P 1'
_cell_length_a   18.94807647
_cell_length_b   18.94980589
_cell_length_c   20.31485702
_cell_angle_alpha   105.91800734
_cell_angle_beta   107.53867614
_cell_angle_gamma   111.69755364
_symmetry_Int_Tables_number   1
_chemical_formula_structural   ZnH13C21N4
_chemical_formula_sum   'Zn4 H52 C84 N16'
_cell_volume   5817.97318051
_cell_formula_units_Z   4
loop_
 _symmetry_equiv_pos_site_id
 _symmetry_equiv_pos_as_xyz
  1  'x, y, z'
loop_
 _atom_site_type_symbol
 _atom_site_label
 _atom_site_symmetry_multiplicity
 _atom_site_fract_x
 _atom_site_fract_y
 _atom_site_fract_z
 _atom_site_occupancy
 _atom_site_pbe_bader_charge
 _atom_site_pbe_bader_spin_density
 _atom_site_pbe_cm5_charge
 _atom_site_pbe_ddec_charge
 _atom_site_pbe_ddec_spin_density
 _atom_site_pbe_ddec_sum_bond_order
 _atom_site_pbe_magmom
Zn  Zn0  1  0.89517188  0.89603859  0.50286111  1  1.18671  0  0.740499  0.602382  0  2.456393  0
Zn  Zn1  1  0.10865492  0.11094547  0.49890825  1  1.18996  0  0.740187  0.604022  0  2.450823  0
Zn  Zn2  1  0.10278315  0.00802745  0.60314436  1  1.189321  0  0.742339  0.606623  0  2.453027  0
Zn  Zn3  1  0.90228617  0.99884820  0.39545303  1  1.190632  0  0.741005  0.60717  0  2.442995  0
H  H4  1  0.85230468  0.80053199  0.61623807  1  0.038983  0  0.116125  0.103203  0  1.003747  0
H  H5  1  0.43862603  0.06433759  0.68508001  1  0.037267  0  0.096417  0.098731  0  1.016195  0
H  H6  1  0.55586679  0.03436999  0.73162281  1  0.048608  0  0.098064  0.099043  0  0.998412  0
H  H7  1  0.14506631  0.27884851  0.46531629  1  0.096935  0  0.11568  0.102058  0  1.004527  0
H  H8  1  0.68328070  0.03117723  0.72633477  1  0.064016  0  0.099789  0.101056  0  0.997599  0
H  H9  1  0.78144384  0.05178920  0.66763768  1  0.024085  0  0.09787  0.100139  0  1.014984  0
H  H10  1  0.78764715  0.19393196  0.53383394  1  0.051259  0  0.098373  0.101749  0  1.010444  0
H  H11  1  0.69355205  0.25683378  0.51690045  1  0.048473  0  0.100655  0.102635  0  0.994338  0
H  H12  1  0.56692794  0.26108359  0.52315223  1  0.031079  0  0.098561  0.099263  0  0.997803  0
H  H13  1  0.15698760  0.75268454  0.47209794  1  0.028114  0  0.098345  0.101217  0  1.010072  0
H  H14  1  0.88564891  0.61684376  0.32850627  1  0.040699  0  0.097996  0.100198  0  1.012733  0
H  H15  1  0.31086286  0.18049022  0.52876222  1  0.076826  0  0.116403  0.103468  0  1.003004  0
H  H16  1  0.80762292  0.46086388  0.26536225  1  0.057032  0  0.099656  0.101406  0  0.997232  0
H  H17  1  0.80422194  0.32709971  0.25718388  1  0.012689  0  0.098397  0.099647  0  0.997849  0
H  H18  1  0.87728068  0.25347907  0.30456022  1  0.029248  0  0.096205  0.098629  0  1.013903  0
H  H19  1  0.10080308  0.13460311  0.74619490  1  0.072086  0  0.116411  0.10328  0  1.004182  0
H  H20  1  0.14932002  0.38976936  0.44540077  1  0.024931  0  0.096016  0.096831  0  1.01936  0
H  H21  1  0.23261140  0.54092561  0.48019996  1  0.066281  0  0.098384  0.099895  0  0.997893  0
H  H22  1  0.23581092  0.67488730  0.48915231  1  0.013524  0  0.100117  0.101428  0  0.99573  0
H  H23  1  0.55558718  0.80471796  0.19341114  1  0.053158  0  0.096397  0.093681  0  1.009412  0
H  H24  1  0.10093827  0.24529090  0.83869938  1  0.064394  0  0.098682  0.097787  0  1.003135  0
H  H25  1  0.18790263  0.40075767  0.72891193  1  0.038396  0  0.097242  0.096794  0  1.006322  0
H  H26  1  0.15240865  0.87791927  0.51375592  1  0.094517  0  0.115461  0.101378  0  1.009054  0
H  H27  1  0.32258769  0.59056418  0.98447667  1  0.014476  0  0.095259  0.09039  0  1.015999  0
H  H28  1  0.40888949  0.52254602  0.18469725  1  0.056197  0  0.098283  0.09685  0  1.001023  0
H  H29  1  0.17698354  0.37087878  0.96154011  1  0.040912  0  0.099583  0.098223  0  1.003504  0
H  H30  1  0.55304552  0.62660527  0.28810086  1  0.041861  0  0.096397  0.095308  0  1.006578  0
H  H31  1  0.86203926  0.13795160  0.48353670  1  0.064395  0  0.11557  0.101408  0  1.010739  0
H  H32  1  0.29642488  0.47328896  0.06436691  1  0.041236  0  0.096297  0.093426  0  1.010128  0
H  H33  1  0.41299372  0.70063349  0.08979750  1  0.028305  0  0.098822  0.097658  0  1.00616  0
H  H34  1  0.26276061  0.52681602  0.85188814  1  0.02844  0  0.097159  0.094758  0  1.001332  0
H  H35  1  0.12166261  0.86896777  0.81218163  1  0.061575  0  0.096244  0.093584  0  1.009057  0
H  H36  1  0.91035490  0.76527279  0.16512989  1  0.04896  0  0.098297  0.097262  0  1.005064  0
H  H37  1  0.89108102  0.85267687  0.25618961  1  0.043347  0  0.116856  0.103219  0  1.00356  0
H  H38  1  0.17940206  0.94324986  0.28249065  1  0.040151  0  0.097864  0.098084  0  1.00485  0
H  H39  1  0.12219117  0.82934168  0.02534968  1  0.03763  0  0.096261  0.093018  0  1.010123  0
H  H40  1  0.85508235  0.73321154  0.83252529  1  0.044432  0  0.097835  0.095394  0  1.000529  0
H  H41  1  0.91941746  0.71790684  0.04467784  1  0.068336  0  0.099476  0.098009  0  1.005352  0
H  H42  1  0.85152016  0.77474399  0.72744023  1  0.038502  0  0.096417  0.094723  0  1.007515  0
H  H43  1  0.10761665  0.27409431  0.60869969  1  0.069393  0  0.115689  0.102157  0  1.005895  0
H  H44  1  0.92674097  0.74260376  0.95048860  1  0.035168  0  0.0953  0.090823  0  1.017905  0
H  H45  1  0.12547317  0.82947096  0.91767880  1  0.03191  0  0.099342  0.098395  0  1.003945  0
H  H46  1  0.18837866  0.89512587  0.16143905  1  0.0267  0  0.097478  0.094793  0  1.001457  0
H  H47  1  0.86071624  0.00475653  0.62640009  1  0.084564  0  0.11592  0.101811  0  1.004676  0
H  H48  1  0.16481847  0.99784556  0.39624776  1  0.075649  0  0.115999  0.103166  0  1.009317  0
H  H49  1  0.87210340  0.13489422  0.32547864  1  0.062698  0  0.115306  0.102129  0  1.002501  0
H  H50  1  0.12562892  0.95603148  0.74915671  1  0.119637  0  0.116249  0.103247  0  1.00214  0
H  H51  1  0.68931909  0.74121228  0.39661360  1  0.082037  0  0.116005  0.10372  0  1.001176  0
H  H52  1  0.87780432  0.73483469  0.38024335  1  0.083952  0  0.116396  0.10294  0  1.006081  0
H  H53  1  0.70430867  0.87297449  0.25355262  1  0.091646  0  0.115925  0.102906  0  1.002122  0
H  H54  1  0.30557205  0.04542396  0.66947996  1  0.057432  0  0.115145  0.101498  0  1.002585  0
H  H55  1  0.44630341  0.20910910  0.55360302  1  0.043509  0  0.095857  0.097366  0  1.016624  0
C  C56  1  0.91978019  0.84441825  0.64028746  1  0.470325  0  0.003389  -0.059412  0  4.002154  0
C  C57  1  0.94436102  0.78105715  0.41819422  1  0.415039  0  0.007686  -0.048972  0  3.967408  0
C  C58  1  0.71451575  0.85057799  0.29753407  1  0.379601  0  0.003006  -0.061636  0  4.007888  0
C  C59  1  0.07774945  0.23251678  0.43325779  1  0.389338  0  0.004418  -0.059333  0  4.006786  0
C  C60  1  0.29352243  0.07581295  0.63249173  1  0.424461  0  0.004305  -0.057273  0  4.001877  0
C  C61  1  0.65678812  0.78180242  0.30218440  1  -0.006413  0  -0.039081  -0.040991  0  4.098962  0
C  C62  1  0.34679720  0.12084018  0.60603027  1  -0.023527  0  -0.04033  -0.041692  0  4.095003  0
C  C63  1  0.01756799  0.77281840  0.43121957  1  0.022112  0  -0.034755  -0.036153  0  4.063427  0
C  C64  1  0.03296411  0.90360934  0.29865174  1  0.021751  0  -0.034888  -0.041388  0  4.069694  0
C  C65  1  0.47433441  0.17973572  0.58434914  1  -0.049313  0  -0.096676  -0.194074  0  3.95127  0
C  C66  1  0.43161996  0.13448009  0.61744781  1  0.035086  0  -0.014356  0.08948  0  4.096549  0
C  C67  1  0.00954265  0.23851894  0.38811063  1  0.000417  0  -0.039582  -0.039906  0  4.089784  0
C  C68  1  0.47014979  0.09894271  0.65809767  1  -0.038158  0  -0.096988  -0.195765  0  3.950219  0
C  C69  1  0.54716420  0.10364342  0.66264431  1  -0.023502  0  -0.011957  0.081396  0  4.061387  0
C  C70  1  0.58749371  0.14558238  0.62488411  1  -0.039511  0  -0.00148  -0.002456  0  3.924359  0
C  C71  1  0.09999782  0.15771460  0.70275707  1  0.415376  0  0.008952  -0.045702  0  3.966168  0
C  C72  1  0.55122714  0.18591169  0.58702274  1  0.011389  0  -0.011558  0.081857  0  4.063578  0
C  C73  1  0.58546943  0.06449246  0.70105473  1  -0.025837  0  -0.096251  -0.140359  0  4.03332  0
C  C74  1  0.65592248  0.06272315  0.69814312  1  -0.094022  0  -0.094336  -0.135995  0  4.030052  0
C  C75  1  0.69408053  0.09942304  0.65613671  1  0.00475  0  -0.011587  0.079942  0  4.062151  0
C  C76  1  0.66039909  0.14341737  0.62157968  1  0.020202  0  -0.001529  -0.003223  0  3.925494  0
C  C77  1  0.69771530  0.18085889  0.57985507  1  0.000987  0  -0.010506  0.080764  0  4.057728  0
C  C78  1  0.11256160  0.23697734  0.70626733  1  -0.004044  0  -0.035529  -0.043725  0  4.074216  0
C  C79  1  0.66344090  0.22585504  0.54671255  1  -0.082748  0  -0.094383  -0.137452  0  4.021759  0
C  C80  1  0.59336725  0.22820293  0.55012675  1  -0.014698  0  -0.096435  -0.139546  0  4.026527  0
C  C81  1  0.75892096  0.08865635  0.64363144  1  -0.020825  0  -0.092879  -0.188076  0  3.940044  0
C  C82  1  0.79077368  0.11864033  0.59689831  1  0.007574  0  -0.010938  0.092373  0  4.078379  0
C  C83  1  0.86750974  0.09904523  0.51316003  1  0.433869  0  0.009299  -0.043281  0  3.958527  0
C  C84  1  0.76233195  0.16802596  0.56866048  1  -0.033498  0  -0.091618  -0.1872  0  3.936208  0
C  C85  1  0.09735050  0.69348882  0.43440561  1  -0.016197  0  -0.092279  -0.187354  0  3.936185  0
C  C86  1  0.02079215  0.69464535  0.40422593  1  -0.030149  0  -0.010748  0.092134  0  4.083199  0
C  C87  1  0.94549215  0.61741385  0.35432743  1  -0.035658  0  -0.092876  -0.187618  0  3.939018  0
C  C88  1  0.94367091  0.54000813  0.34045536  1  0.00485  0  -0.011307  0.079803  0  4.065058  0
C  C89  1  0.84328869  0.08953625  0.57064507  1  0.016597  0  -0.035891  -0.039033  0  4.061704  0
C  C90  1  0.02071665  0.53954909  0.37675127  1  0.010277  0  -0.001248  -0.002465  0  3.924534  0
C  C91  1  0.09891563  0.61766996  0.42180240  1  0.001902  0  -0.011153  0.079625  0  4.057753  0
C  C92  1  0.86609344  0.46065669  0.29500073  1  -0.081174  0  -0.094979  -0.13851  0  4.029883  0
C  C93  1  0.86423013  0.38665649  0.29053401  1  0.035616  0  -0.095655  -0.138922  0  4.030122  0
C  C94  1  0.93987560  0.38516300  0.33085878  1  -0.057535  0  -0.011728  0.078948  0  4.059204  0
C  C95  1  0.10469174  0.22936355  0.63307149  1  0.447657  0  0.008218  -0.04495  0  3.956471  0
C  C96  1  0.01880630  0.46271569  0.37190011  1  -0.009478  0  -0.001147  0.001662  0  3.919887  0
C  C97  1  0.09530517  0.46297622  0.41159974  1  -0.005944  0  -0.011812  0.078927  0  4.067057  0
C  C98  1  0.17393539  0.54140887  0.45184988  1  -0.053254  0  -0.09668  -0.141205  0  4.031419  0
C  C99  1  0.17568902  0.61544363  0.45676718  1  -0.015264  0  -0.093617  -0.135078  0  4.023626  0
C  C100  1  0.70709716  0.78273333  0.36977521  1  0.428261  0  0.002962  -0.06147  0  3.999354  0
C  C101  1  0.93843318  0.31170122  0.33421806  1  0.010982  0  -0.096746  -0.193672  0  3.947359  0
C  C102  1  0.01266853  0.31247661  0.37693011  1  0.002117  0  -0.014778  0.086442  0  4.095982  0
C  C103  1  0.09059258  0.38797008  0.41300337  1  -0.032138  0  -0.096975  -0.192056  0  3.952813  0
C  C104  1  0.56769459  0.72276848  0.24702668  1  0.077987  0  -0.0138  0.08078  0  4.052906  0
C  C105  1  0.52440065  0.74218542  0.19107172  1  -0.057108  0  -0.097584  -0.136161  0  4.014595  0
C  C106  1  0.44341040  0.68333964  0.13257975  1  -0.006686  0  -0.093769  -0.126269  0  3.990568  0
C  C107  1  0.86676703  0.03132303  0.58604436  1  0.413064  0  0.008651  -0.045782  0  3.963609  0
C  C108  1  0.40084199  0.60136883  0.12670517  1  -0.034264  0  -0.017903  0.105666  0  4.058784  0
C  C109  1  0.44118043  0.58468742  0.18649015  1  -0.002018  0  -0.095555  -0.135145  0  4.000337  0
C  C110  1  0.52269793  0.64357164  0.24491632  1  -0.13158  0  -0.099363  -0.137834  0  4.014121  0
C  C111  1  0.29629889  0.14480819  0.56109668  1  0.424105  0  0.003276  -0.061771  0  4.002694  0
C  C112  1  0.18018631  0.37803433  0.91084461  1  -0.048591  0  -0.092783  -0.125169  0  3.987089  0
C  C113  1  0.13718618  0.30693855  0.84128451  1  -0.055349  0  -0.096408  -0.136009  0  4.003041  0
C  C114  1  0.18413363  0.39355720  0.77942247  1  -0.037686  0  -0.097996  -0.136902  0  4.008484  0
C  C115  1  0.22666617  0.46482791  0.84894686  1  0.005063  0  -0.094679  -0.132236  0  3.998911  0
C  C116  1  0.23009373  0.45868892  0.91736453  1  -0.018937  0  -0.019225  0.101008  0  4.060024  0
C  C117  1  0.32383335  0.53234853  0.05932201  1  -0.07499  0  -0.098655  -0.141442  0  4.01355  0
C  C118  1  0.29212787  0.53227668  0.98987367  1  0.011626  0  -0.09579  -0.134114  0  4.015904  0
C  C119  1  0.93884557  0.15928043  0.36217850  1  0.428202  0  0.003314  -0.05944  0  4.000045  0
C  C120  1  0.14170745  0.31227032  0.77455343  1  -0.007291  0  -0.009619  0.088166  0  4.042789  0
C  C121  1  0.98697317  0.82822646  0.76306903  1  0.02429  0  -0.012761  0.080622  0  4.054475  0
C  C122  1  0.08423496  0.85394476  0.48661452  1  0.399846  0  0.008411  -0.045995  0  3.957885  0
C  C123  1  0.06288889  0.84015312  0.81690138  1  -0.090016  0  -0.097262  -0.135117  0  4.011324  0
C  C124  1  0.06492234  0.81719702  0.87636056  1  0.003562  0  -0.093944  -0.127227  0  3.987879  0
C  C125  1  0.99061634  0.78068666  0.88516910  1  -0.015096  0  -0.017895  0.105817  0  4.059046  0
C  C126  1  0.91377925  0.76294825  0.82786091  1  -0.067441  0  -0.095109  -0.132524  0  4.00008  0
C  C127  1  0.91185675  0.78640641  0.76857080  1  -0.057879  0  -0.099105  -0.136599  0  4.017071  0
C  C128  1  0.97672606  0.76815624  0.09647006  1  -0.04843  0  -0.093069  -0.125436  0  3.991941  0
C  C129  1  0.97164174  0.79497508  0.16472523  1  -0.012822  0  -0.096951  -0.1367  0  4.007921  0
C  C130  1  0.12186820  0.89349270  0.23062599  1  -0.015987  0  -0.097675  -0.136367  0  4.005033  0
C  C131  1  0.05910543  0.92272849  0.70738388  1  0.353993  0  0.003234  -0.061698  0  4.00858  0
C  C132  1  0.12706783  0.86630986  0.16218160  1  -0.103121  0  -0.09499  -0.132667  0  4.00169  0
C  C133  1  0.95643145  0.89562164  0.29982210  1  0.459312  0  0.008875  -0.045384  0  3.964626  0
C  C134  1  0.05371249  0.80726944  0.09233005  1  -0.024342  0  -0.019118  0.10075  0  4.060621  0
C  C135  1  0.98998513  0.76944763  0.95292047  1  0.034161  0  -0.099251  -0.142161  0  4.023218  0
C  C136  1  0.05802568  0.79898079  0.02048448  1  -0.083172  0  -0.095994  -0.134188  0  4.010992  0
C  C137  1  0.04299821  0.86222134  0.23266837  1  -0.008821  0  -0.00986  0.086822  0  4.038459  0
C  C138  1  0.98792510  0.86158207  0.70639146  1  0.021783  0  -0.039823  -0.042397  0  4.105016  0
C  C139  1  0.09607275  0.97018048  0.37087277  1  0.426336  0  0.008068  -0.045541  0  3.955775  0
N  N140  1  0.94835675  0.89112306  0.60502008  1  -0.800837  0  -0.268353  -0.174351  0  3.53514  0
N  N141  1  0.08758206  0.10859495  0.63377216  1  -0.779124  0  -0.283706  -0.182209  0  3.656583  0
N  N142  1  0.90083258  0.04913225  0.49540917  1  -0.789886  0  -0.281913  -0.182156  0  3.631322  0
N  N143  1  0.09025039  0.15240987  0.59085609  1  -0.80932  0  -0.280579  -0.177148  0  3.631388  0
N  N144  1  0.90033773  0.00754088  0.54028583  1  -0.794355  0  -0.28455  -0.181861  0  3.647913  0
N  N145  1  0.96325547  0.11068637  0.38970599  1  -0.791563  0  -0.267868  -0.17319  0  3.533183  0
N  N146  1  0.03530724  0.93998356  0.64707218  1  -0.80222  0  -0.271652  -0.172448  0  3.552102  0
N  N147  1  0.78752105  0.84680335  0.40243822  1  -0.802741  0  -0.26858  -0.172899  0  3.537579  0
N  N148  1  0.21987702  0.11649639  0.56106302  1  -0.807917  0  -0.271101  -0.171986  0  3.548258  0
N  N149  1  0.05232819  0.90497715  0.50527385  1  -0.802313  0  -0.28095  -0.180459  0  3.632144  0
N  N150  1  0.97361203  0.95378462  0.36658230  1  -0.81214  0  -0.283924  -0.180266  0  3.656024  0
N  N151  1  0.05931623  0.99953242  0.41029980  1  -0.771934  0  -0.281202  -0.180566  0  3.635881  0
N  N152  1  0.96636133  0.86010479  0.46317351  1  -0.788486  0  -0.284691  -0.180197  0  3.646715  0
N  N153  1  0.79204844  0.88900972  0.35720217  1  -0.801009  0  -0.26997  -0.173003  0  3.548742  0
N  N154  1  0.21806737  0.07341012  0.60551492  1  -0.775996  0  -0.269657  -0.173837  0  3.545118  0
N  N155  1  0.04992816  0.15653478  0.43399436  1  -0.80178  0  -0.272673  -0.172165  0  3.555142  0
