# generated using pymatgen
data_AgH9C14SN2
_symmetry_space_group_name_H-M   'P 1'
_cell_length_a   5.87546389
_cell_length_b   7.70078542
_cell_length_c   14.05347980
_cell_angle_alpha   89.99762470
_cell_angle_beta   99.14218209
_cell_angle_gamma   90.00027648
_symmetry_Int_Tables_number   1
_chemical_formula_structural   AgH9C14SN2
_chemical_formula_sum   'Ag2 H18 C28 S2 N4'
_cell_volume   627.78208554
_cell_formula_units_Z   2
loop_
 _symmetry_equiv_pos_site_id
 _symmetry_equiv_pos_as_xyz
  1  'x, y, z'
loop_
 _atom_site_type_symbol
 _atom_site_label
 _atom_site_symmetry_multiplicity
 _atom_site_fract_x
 _atom_site_fract_y
 _atom_site_fract_z
 _atom_site_occupancy
 _atom_site_hle17_bader_spin_density
 _atom_site_hle17_ddec_charge
 _atom_site_hle17_ddec_spin_density
 _atom_site_hle17_ddec_sum_bond_order
 _atom_site_hle17_magmom
 _atom_site_hse06_10hf_bader_spin_density
 _atom_site_hse06_10hf_ddec_charge
 _atom_site_hse06_10hf_ddec_spin_density
 _atom_site_hse06_10hf_ddec_sum_bond_order
 _atom_site_hse06_10hf_magmom
 _atom_site_hse06_bader_spin_density
 _atom_site_hse06_ddec_charge
 _atom_site_hse06_ddec_spin_density
 _atom_site_hse06_ddec_sum_bond_order
 _atom_site_hse06_magmom
 _atom_site_pbe_bader_spin_density
 _atom_site_pbe_cm5_charge
 _atom_site_pbe_ddec_charge
 _atom_site_pbe_ddec_spin_density
 _atom_site_pbe_ddec_sum_bond_order
 _atom_site_pbe_magmom
Ag  Ag0  1  0.24622590  0.44886662  0.92202036  1  0  0.467881  0  1.798255  0  0  0.352634  0  2.295954  0  0  0.3693  0  2.256521  0  0  0.439643  0.342109  0  2.322224  0
Ag  Ag1  1  0.75375925  0.94887471  0.07797635  1  0  0.467863  0  1.798088  0  0  0.352597  0  2.295783  0  0  0.369283  0  2.256327  0  0  0.439631  0.342074  0  2.32205  0
H  H2  1  0.12670760  0.52628800  0.70268130  1  0  0.07286  0  0.96066  0  0  0.081208  0  1.028335  0  0  0.082884  0  1.027824  0  0  0.109561  0.079947  0  1.028815  0
H  H3  1  0.87327857  0.02627591  0.29731191  1  0  0.072813  0  0.960705  0  0  0.08118  0  1.028348  0  0  0.08285  0  1.027837  0  0  0.109541  0.079917  0  1.028828  0
H  H4  1  0.30711239  0.52527356  0.55416934  1  0  0.109803  0  0.960237  0  0  0.119124  0  1.021792  0  0  0.121855  0  1.022164  0  0  0.106355  0.117221  0  1.021627  0
H  H5  1  0.69288086  0.02525808  0.44582784  1  0  0.109743  0  0.960186  0  0  0.119067  0  1.021741  0  0  0.121799  0  1.02211  0  0  0.106333  0.117161  0  1.021582  0
H  H6  1  0.86827986  0.22656426  0.71238747  1  0  0.110321  0  0.972925  0  0  0.119348  0  1.03521  0  0  0.121774  0  1.036252  0  0  0.105215  0.117581  0  1.034683  0
H  H7  1  0.13170945  0.72655229  0.28761861  1  0  0.110231  0  0.97303  0  0  0.119375  0  1.035176  0  0  0.121824  0  1.036193  0  0  0.105222  0.117603  0  1.034647  0
H  H8  1  0.66126652  0.23860411  0.85416169  1  0  0.079459  0  0.946946  0  0  0.086675  0  1.014362  0  0  0.088917  0  1.012613  0  0  0.111179  0.08496  0  1.015761  0
H  H9  1  0.33870954  0.73859051  0.14584340  1  0  0.079402  0  0.946975  0  0  0.086668  0  1.014371  0  0  0.088912  0  1.012617  0  0  0.111165  0.084949  0  1.015774  0
H  H10  1  0.61559758  0.52817281  0.30535198  1  0  0.089426  0  0.980132  0  0  0.099223  0  1.043857  0  0  0.101228  0  1.044635  0  0  0.096752  0.097841  0  1.043242  0
H  H11  1  0.38440522  0.02818422  0.69463143  1  0  0.089481  0  0.980332  0  0  0.099239  0  1.044074  0  0  0.101245  0  1.04485  0  0  0.096751  0.097858  0  1.043467  0
H  H12  1  0.76364637  0.52995876  0.14895692  1  0  0.091143  0  0.97334  0  0  0.09802  0  1.042183  0  0  0.100172  0  1.041865  0  0  0.094622  0.09639  0  1.042604  0
H  H13  1  0.23639148  0.02996674  0.85103622  1  0  0.091077  0  0.973399  0  0  0.097987  0  1.042206  0  0  0.100162  0  1.041855  0  0  0.094638  0.096359  0  1.042629  0
H  H14  1  0.13629062  0.38576947  0.13561589  1  0  0.08884  0  0.97988  0  0  0.094984  0  1.050044  0  0  0.09748  0  1.049207  0  0  0.093346  0.093076  0  1.050842  0
H  H15  1  0.86376284  0.88577825  0.86439311  1  0  0.088844  0  0.979749  0  0  0.094985  0  1.049947  0  0  0.097482  0  1.04911  0  0  0.093267  0.093076  0  1.050751  0
H  H16  1  0.36179834  0.24212929  0.27869794  1  0  0.090323  0  0.965908  0  0  0.099907  0  1.0281  0  0  0.101697  0  1.029498  0  0  0.09722  0.098609  0  1.027239  0
H  H17  1  0.63821485  0.74214123  0.72132123  1  0  0.09021  0  0.965625  0  0  0.099756  0  1.027895  0  0  0.101544  0  1.029296  0  0  0.09705  0.09842  0  1.027082  0
H  H18  1  0.21518518  0.24077961  0.43581314  1  0  0.094145  0  0.964663  0  0  0.10344  0  1.028608  0  0  0.105859  0  1.028573  0  0  0.098487  0.101752  0  1.028645  0
H  H19  1  0.78481533  0.74079508  0.56419681  1  0  0.094122  0  0.96493  0  0  0.103426  0  1.028846  0  0  0.105858  0  1.028767  0  0  0.098501  0.10174  0  1.028877  0
C  C20  1  0.28997596  0.45966050  0.70153124  1  0  0.117073  0  3.729358  0  0  0.087645  0  3.983709  0  0  0.094775  0  4.000833  0  0  0.039035  0.082952  0  3.972198  0
C  C21  1  0.71002006  0.95964356  0.29846656  1  0  0.117197  0  3.729053  0  0  0.087769  0  3.983448  0  0  0.094906  0  4.000564  0  0  0.039117  0.083074  0  3.971933  0
C  C22  1  0.39088672  0.45908726  0.61879367  1  0  -0.164209  0  3.682841  0  0  -0.179224  0  3.922737  0  0  -0.18648  0  3.941906  0  0  -0.080175  -0.174592  0  3.909981  0
C  C23  1  0.60910946  0.95907147  0.38120699  1  0  -0.164058  0  3.68253  0  0  -0.179054  0  3.92244  0  0  -0.186297  0  3.941618  0  0  -0.08012  -0.174422  0  3.909689  0
C  C24  1  0.60502934  0.37507384  0.62048992  1  0  0.167521  0  3.890334  0  0  0.177715  0  4.115012  0  0  0.185803  0  4.132695  0  0  0.014307  0.172336  0  4.103045  0
C  C25  1  0.39496305  0.87505788  0.37951167  1  0  0.167587  0  3.890311  0  0  0.177717  0  4.115087  0  0  0.185763  0  4.132839  0  0  0.014312  0.172331  0  4.103125  0
C  C26  1  0.70386089  0.29382442  0.70709587  1  0  -0.163718  0  3.671772  0  0  -0.17675  0  3.908641  0  0  -0.184002  0  3.927773  0  0  -0.078907  -0.172122  0  3.896077  0
C  C27  1  0.29613495  0.79380439  0.29291053  1  0  -0.163834  0  3.672065  0  0  -0.176928  0  3.908916  0  0  -0.18419  0  3.928047  0  0  -0.078999  -0.172294  0  3.896345  0
C  C28  1  0.58910843  0.30037397  0.78618530  1  0  0.12915  0  3.715654  0  0  0.101679  0  3.963577  0  0  0.108273  0  3.981196  0  0  0.045055  0.097271  0  3.951851  0
C  C29  1  0.41087887  0.80035869  0.21381692  1  0  0.129383  0  3.715573  0  0  0.101849  0  3.963536  0  0  0.108445  0  3.981157  0  0  0.04516  0.097442  0  3.951803  0
C  C30  1  0.71661356  0.37543022  0.53857482  1  0  -0.125776  0  3.851613  0  0  -0.121797  0  4.101502  0  0  -0.126927  0  4.128488  0  0  -0.043366  -0.118257  0  4.083081  0
C  C31  1  0.28338593  0.87541571  0.46142999  1  0  -0.125659  0  3.851733  0  0  -0.121647  0  4.101624  0  0  -0.126762  0  4.128623  0  0  -0.043298  -0.118101  0  4.083202  0
C  C32  1  0.81107706  0.38019243  0.46720526  1  0  -0.073185  0  3.850034  0  0  -0.071383  0  4.097497  0  0  -0.07137  0  4.125546  0  0  -0.027921  -0.07141  0  4.078418  0
C  C33  1  0.18891361  0.88017980  0.53279256  1  0  -0.07332  0  3.850495  0  0  -0.071559  0  4.097965  0  0  -0.071546  0  4.126013  0  0  -0.028005  -0.071592  0  4.078885  0
C  C34  1  0.90573283  0.38526299  0.38069449  1  0  0.09435  0  3.917662  0  0  0.111323  0  4.143264  0  0  0.111481  0  4.165694  0  0  -0.008539  0.111182  0  4.127988  0
C  C35  1  0.09426673  0.88527444  0.61930442  1  0  0.094423  0  3.917812  0  0  0.11145  0  4.143316  0  0  0.111603  0  4.165753  0  0  -0.008421  0.111317  0  4.128034  0
C  C36  1  0.77959775  0.46702416  0.29901620  1  0  -0.103196  0  3.703643  0  0  -0.121358  0  3.941927  0  0  -0.123139  0  3.96245  0  0  -0.08373  -0.119949  0  3.92794  0
C  C37  1  0.22041198  0.96702775  0.70097579  1  0  -0.103347  0  3.703987  0  0  -0.121473  0  3.942221  0  0  -0.123253  0  3.962748  0  0  -0.083818  -0.120067  0  3.928234  0
C  C38  1  0.86262585  0.46692658  0.21166574  1  0  -0.069559  0  3.768029  0  0  -0.080064  0  4.014469  0  0  -0.08287  0  4.036707  0  0  -0.091599  -0.078269  0  3.999559  0
C  C39  1  0.13739947  0.96694094  0.78832853  1  0  -0.06928  0  3.767676  0  0  -0.079814  0  4.014074  0  0  -0.082627  0  4.036324  0  0  -0.091485  -0.078021  0  3.999171  0
C  C40  1  0.07209759  0.38596235  0.20426072  1  0  -0.052647  0  3.725052  0  0  -0.064419  0  3.966546  0  0  -0.066032  0  3.988546  0  0  -0.082711  -0.063224  0  3.9517  0
C  C41  1  0.92792077  0.88596714  0.79573637  1  0  -0.052901  0  3.725228  0  0  -0.064694  0  3.96673  0  0  -0.066315  0  3.988736  0  0  -0.082732  -0.063494  0  3.951873  0
C  C42  1  0.19909994  0.30562573  0.28498265  1  0  -0.075006  0  3.774277  0  0  -0.086326  0  4.022061  0  0  -0.089366  0  4.045025  0  0  -0.092465  -0.084262  0  4.00648  0
C  C43  1  0.80092424  0.80563444  0.71502862  1  0  -0.074732  0  3.774354  0  0  -0.085969  0  4.022025  0  0  -0.089005  0  4.044992  0  0  -0.09227  -0.083877  0  4.006453  0
C  C44  1  0.11833736  0.30514799  0.37303515  1  0  -0.115325  0  3.716452  0  0  -0.133741  0  3.958019  0  0  -0.135426  0  3.977925  0  0  -0.086201  -0.132398  0  3.944332  0
C  C45  1  0.88166053  0.80515253  0.62696826  1  0  -0.115399  0  3.716511  0  0  -0.133865  0  3.95805  0  0  -0.135542  0  3.977963  0  0  -0.086261  -0.132519  0  3.944348  0
C  C46  1  0.75171877  0.59506400  0.95868300  1  0  0.271844  0  4.002851  0  0  0.258929  0  4.292432  0  0  0.278311  0  4.307057  0  0  0.138107  0.245712  0  4.28222  0
C  C47  1  0.24826339  0.09505601  0.04130563  1  0  0.271751  0  4.002998  0  0  0.258828  0  4.292591  0  0  0.278204  0  4.307235  0  0  0.137978  0.24561  0  4.282382  0
S  S48  1  0.52385243  0.71528793  0.96345840  1  0  -0.327353  0  2.476177  0  0  -0.282605  0  2.886923  0  0  -0.297396  0  2.87112  0  0  -0.155014  -0.272294  0  2.897411  0
S  S49  1  0.47612725  0.21529457  0.03653957  1  0  -0.327323  0  2.476164  0  0  -0.282567  0  2.886909  0  0  -0.297344  0  2.871081  0  0  -0.154997  -0.272258  0  2.897398  0
N  N50  1  0.38545212  0.38200961  0.78435519  1  0  -0.309162  0  3.300417  0  0  -0.236055  0  3.583004  0  0  -0.251396  0  3.597341  0  0  -0.342517  -0.225794  0  3.573167  0
N  N51  1  0.61453522  0.88200251  0.21564311  1  0  -0.30937  0  3.300255  0  0  -0.236293  0  3.582908  0  0  -0.251636  0  3.597236  0  0  -0.34261  -0.226031  0  3.573068  0
N  N52  1  0.91383640  0.50616228  0.95455668  1  0  -0.495019  0  3.024607  0  0  -0.438151  0  3.338294  0  0  -0.455455  0  3.340765  0  0  -0.415748  -0.42638  0  3.33622  0
N  N53  1  0.08616443  0.00614729  0.04543849  1  0  -0.494889  0  3.024774  0  0  -0.43801  0  3.338436  0  0  -0.455316  0  3.340927  0  0  -0.415642  -0.426239  0  3.336363  0
