# generated using pymatgen
data_CsLiH8(CO2)4
_symmetry_space_group_name_H-M   'P 1'
_cell_length_a   4.98680387
_cell_length_b   10.74356315
_cell_length_c   16.91660534
_cell_angle_alpha   89.99971111
_cell_angle_beta   90.00010144
_cell_angle_gamma   97.71049331
_symmetry_Int_Tables_number   1
_chemical_formula_structural   CsLiH8(CO2)4
_chemical_formula_sum   'Cs4 Li4 H32 C16 O32'
_cell_volume   898.13035836
_cell_formula_units_Z   4
loop_
 _symmetry_equiv_pos_site_id
 _symmetry_equiv_pos_as_xyz
  1  'x, y, z'
loop_
 _atom_site_type_symbol
 _atom_site_label
 _atom_site_symmetry_multiplicity
 _atom_site_fract_x
 _atom_site_fract_y
 _atom_site_fract_z
 _atom_site_occupancy
 _atom_site_hle17_bader_spin_density
 _atom_site_hle17_ddec_charge
 _atom_site_hle17_ddec_spin_density
 _atom_site_hle17_ddec_sum_bond_order
 _atom_site_hle17_magmom
 _atom_site_hse06_10hf_bader_spin_density
 _atom_site_hse06_10hf_ddec_charge
 _atom_site_hse06_10hf_ddec_spin_density
 _atom_site_hse06_10hf_ddec_sum_bond_order
 _atom_site_hse06_10hf_magmom
 _atom_site_hse06_bader_spin_density
 _atom_site_hse06_ddec_charge
 _atom_site_hse06_ddec_spin_density
 _atom_site_hse06_ddec_sum_bond_order
 _atom_site_hse06_magmom
 _atom_site_pbe_bader_spin_density
 _atom_site_pbe_cm5_charge
 _atom_site_pbe_ddec_charge
 _atom_site_pbe_ddec_spin_density
 _atom_site_pbe_ddec_sum_bond_order
 _atom_site_pbe_magmom
Cs  Cs0  1  0.63405701  0.64788823  0.27472241  1  0  0.971305  0  0.56578  0  0  0.926292  0  0.795953  0  0  0.941745  0  0.769831  0  0  0.971859  0.914845  0  0.814436  0
Cs  Cs1  1  0.36594089  0.85211300  0.77472113  1  0  0.97132  0  0.565826  0  0  0.926302  0  0.796015  0  0  0.94177  0  0.769868  0  0  0.971908  0.914853  0  0.814499  0
Cs  Cs2  1  0.36593551  0.35211406  0.72527862  1  0  0.97132  0  0.565802  0  0  0.926323  0  0.79596  0  0  0.941779  0  0.769835  0  0  0.971891  0.914871  0  0.81444  0
Cs  Cs3  1  0.63406162  0.14788921  0.22527931  1  0  0.971337  0  0.565794  0  0  0.926319  0  0.795985  0  0  0.941783  0  0.769844  0  0  0.971876  0.91487  0  0.81447  0
Li  Li4  1  0.89607607  0.04153723  0.66815062  1  0  0.856634  0  0.414421  0  0  0.822905  0  0.512368  0  0  0.831315  0  0.496558  0  0  0.476998  0.816691  0  0.523949  0
Li  Li5  1  0.10392765  0.45846510  0.16814739  1  0  0.856625  0  0.41443  0  0  0.822899  0  0.512372  0  0  0.831309  0  0.496563  0  0  0.476995  0.816685  0  0.523951  0
Li  Li6  1  0.10393183  0.95846305  0.33185041  1  0  0.856609  0  0.414451  0  0  0.822873  0  0.512412  0  0  0.831285  0  0.496599  0  0  0.476972  0.816658  0  0.523994  0
Li  Li7  1  0.89605917  0.54153818  0.83185069  1  0  0.85659  0  0.414454  0  0  0.822855  0  0.512419  0  0  0.831265  0  0.496607  0  0  0.476976  0.816639  0  0.524001  0
H  H8  1  0.31277715  0.33354704  0.51336271  1  0  0.07402  0  0.910984  0  0  0.079081  0  0.978684  0  0  0.082015  0  0.975929  0  0  0.114346  0.076886  0  0.980945  0
H  H9  1  0.68724336  0.16645464  0.01336137  1  0  0.073956  0  0.911032  0  0  0.079031  0  0.978712  0  0  0.08195  0  0.97597  0  0  0.114359  0.076842  0  0.980966  0
H  H10  1  0.68724106  0.66645410  0.48664009  1  0  0.073992  0  0.911018  0  0  0.079067  0  0.978705  0  0  0.081989  0  0.97596  0  0  0.114368  0.076877  0  0.980959  0
H  H11  1  0.31274516  0.83354769  0.98663670  1  0  0.073971  0  0.910874  0  0  0.079116  0  0.978539  0  0  0.081971  0  0.975867  0  0  0.114367  0.076923  0  0.980798  0
H  H12  1  0.37293186  0.12353117  0.46565343  1  0  0.080237  0  0.93615  0  0  0.087174  0  1.002527  0  0  0.089518  0  1.000637  0  0  0.127359  0.085358  0  1.004242  0
H  H13  1  0.62707446  0.37646728  0.96564812  1  0  0.080241  0  0.936244  0  0  0.087177  0  1.002617  0  0  0.089519  0  1.000731  0  0  0.127391  0.085359  0  1.004336  0
H  H14  1  0.62707835  0.87647004  0.53434997  1  0  0.080285  0  0.936206  0  0  0.087202  0  1.00258  0  0  0.089551  0  1.000688  0  0  0.127394  0.085385  0  1.004295  0
H  H15  1  0.37290883  0.62353131  0.03434818  1  0  0.080198  0  0.936209  0  0  0.087118  0  1.002593  0  0  0.089471  0  1.000696  0  0  0.127383  0.085306  0  1.004296  0
H  H16  1  0.83542363  0.42884143  0.53776342  1  0  0.379554  0  0.876274  0  0  0.35172  0  0.959639  0  0  0.3626  0  0.94564  0  0  0.304619  0.343922  0  0.969729  0
H  H17  1  0.16459795  0.07115591  0.03775768  1  0  0.379524  0  0.876341  0  0  0.351674  0  0.959741  0  0  0.362556  0  0.94574  0  0  0.304586  0.343872  0  0.969833  0
H  H18  1  0.16459536  0.57115594  0.46224056  1  0  0.379531  0  0.876314  0  0  0.351693  0  0.959685  0  0  0.362572  0  0.945691  0  0  0.304597  0.343892  0  0.969776  0
H  H19  1  0.83539273  0.92884074  0.96223980  1  0  0.379578  0  0.876201  0  0  0.35174  0  0.95958  0  0  0.36262  0  0.945583  0  0  0.304622  0.34394  0  0.969671  0
H  H20  1  0.90285643  0.14890488  0.53752921  1  0  0.384009  0  0.905328  0  0  0.354772  0  0.985142  0  0  0.366375  0  0.971123  0  0  0.307184  0.346602  0  0.994981  0
H  H21  1  0.09715884  0.35109156  0.03752726  1  0  0.384024  0  0.905325  0  0  0.354786  0  0.985143  0  0  0.366386  0  0.971125  0  0  0.307185  0.346617  0  0.99498  0
H  H22  1  0.09715886  0.85109346  0.46247064  1  0  0.384009  0  0.905306  0  0  0.354762  0  0.985144  0  0  0.366362  0  0.971124  0  0  0.307202  0.346597  0  0.994976  0
H  H23  1  0.90282475  0.64890797  0.96247022  1  0  0.384004  0  0.905342  0  0  0.354748  0  0.985191  0  0  0.366348  0  0.971168  0  0  0.307192  0.346583  0  0.995023  0
H  H24  1  0.80773169  0.79963990  0.63505023  1  0  0.417559  0  0.894895  0  0  0.386973  0  0.959418  0  0  0.39768  0  0.943698  0  0  0.290584  0.379425  0  0.970484  0
H  H25  1  0.19225337  0.70036116  0.13504884  1  0  0.417571  0  0.894867  0  0  0.386976  0  0.959407  0  0  0.397683  0  0.943687  0  0  0.290551  0.379427  0  0.970475  0
H  H26  1  0.19228083  0.20036223  0.36495257  1  0  0.417427  0  0.895082  0  0  0.386845  0  0.959596  0  0  0.397551  0  0.943876  0  0  0.290514  0.379296  0  0.970663  0
H  H27  1  0.80773054  0.29963932  0.86494982  1  0  0.417542  0  0.894914  0  0  0.38696  0  0.959433  0  0  0.397667  0  0.943711  0  0  0.29058  0.379412  0  0.970497  0
H  H28  1  0.07121721  0.86907788  0.59356776  1  0  0.425484  0  0.881009  0  0  0.396074  0  0.942275  0  0  0.406167  0  0.927534  0  0  0.296464  0.388925  0  0.952707  0
H  H29  1  0.92876682  0.63092254  0.09356727  1  0  0.425517  0  0.880975  0  0  0.39612  0  0.942214  0  0  0.406204  0  0.927483  0  0  0.296491  0.38897  0  0.952651  0
H  H30  1  0.92879531  0.13092425  0.40643385  1  0  0.425539  0  0.880944  0  0  0.396126  0  0.942207  0  0  0.406223  0  0.927462  0  0  0.296476  0.388973  0  0.952647  0
H  H31  1  0.07121338  0.36907891  0.90643199  1  0  0.425537  0  0.880937  0  0  0.396133  0  0.942191  0  0  0.406228  0  0.927448  0  0  0.296485  0.38898  0  0.95263  0
H  H32  1  0.02394409  0.06158894  0.82816932  1  0  0.420296  0  0.890822  0  0  0.387763  0  0.958437  0  0  0.398709  0  0.94248  0  0  0.290168  0.380055  0  0.969651  0
H  H33  1  0.97607745  0.43840913  0.32816689  1  0  0.420237  0  0.890913  0  0  0.387669  0  0.958573  0  0  0.398612  0  0.942621  0  0  0.290109  0.379962  0  0.969786  0
H  H34  1  0.97605320  0.93840954  0.17183052  1  0  0.420339  0  0.890755  0  0  0.387819  0  0.958346  0  0  0.398767  0  0.942387  0  0  0.290209  0.380112  0  0.969559  0
H  H35  1  0.02393277  0.56159207  0.67183473  1  0  0.420324  0  0.890793  0  0  0.38777  0  0.958431  0  0  0.398714  0  0.942479  0  0  0.290121  0.380063  0  0.969646  0
H  H36  1  0.75167869  0.10684277  0.80569502  1  0  0.421332  0  0.887334  0  0  0.392494  0  0.948918  0  0  0.402569  0  0.934078  0  0  0.298335  0.385413  0  0.959336  0
H  H37  1  0.24833968  0.39315310  0.30569542  1  0  0.421279  0  0.887396  0  0  0.392495  0  0.94891  0  0  0.402569  0  0.934071  0  0  0.298331  0.385416  0  0.959327  0
H  H38  1  0.24831891  0.89315665  0.19430424  1  0  0.421332  0  0.887336  0  0  0.392476  0  0.948953  0  0  0.402553  0  0.93411  0  0  0.298331  0.385395  0  0.959373  0
H  H39  1  0.75166853  0.60684812  0.69430443  1  0  0.421305  0  0.887375  0  0  0.392521  0  0.94889  0  0  0.402595  0  0.934051  0  0  0.298345  0.385442  0  0.959308  0
C  C40  1  0.60743558  0.35999431  0.42151600  1  0  0.657093  0  3.862541  0  0  0.598856  0  4.175489  0  0  0.631783  0  4.167522  0  0  0.212117  0.576393  0  4.180363  0
C  C41  1  0.39257504  0.14000154  0.92151310  1  0  0.656959  0  3.862704  0  0  0.598886  0  4.175418  0  0  0.631805  0  4.167453  0  0  0.212068  0.576424  0  4.18029  0
C  C42  1  0.39257602  0.64000500  0.57848562  1  0  0.657003  0  3.862718  0  0  0.598898  0  4.175477  0  0  0.63182  0  4.16751  0  0  0.212092  0.576436  0  4.180352  0
C  C43  1  0.60741764  0.85999510  0.07848379  1  0  0.657089  0  3.862787  0  0  0.598994  0  4.175554  0  0  0.631915  0  4.167579  0  0  0.212142  0.576531  0  4.180425  0
C  C44  1  0.52130889  0.31206961  0.50420667  1  0  0.050744  0  3.657521  0  0  0.027773  0  3.914938  0  0  0.028728  0  3.921942  0  0  -0.014285  0.026988  0  3.910264  0
C  C45  1  0.47871247  0.18792909  0.00420345  1  0  0.050914  0  3.65744  0  0  0.027934  0  3.914774  0  0  0.02892  0  3.92175  0  0  -0.014291  0.027146  0  3.910097  0
C  C46  1  0.47871132  0.68793152  0.49579613  1  0  0.050824  0  3.657398  0  0  0.027827  0  3.914749  0  0  0.028807  0  3.921732  0  0  -0.014325  0.027041  0  3.910069  0
C  C47  1  0.52127312  0.81207043  0.99579462  1  0  0.050886  0  3.657239  0  0  0.027778  0  3.914718  0  0  0.028803  0  3.921696  0  0  -0.014346  0.026993  0  3.91004  0
C  C48  1  0.51464455  0.16813354  0.51019632  1  0  0.065004  0  3.625745  0  0  0.037447  0  3.873485  0  0  0.038487  0  3.881412  0  0  -0.000294  0.036498  0  3.868584  0
C  C49  1  0.48536235  0.33186348  0.01019197  1  0  0.064982  0  3.625984  0  0  0.037409  0  3.873685  0  0  0.038445  0  3.881599  0  0  -0.000307  0.03646  0  3.868782  0
C  C50  1  0.48536535  0.83186672  0.48980707  1  0  0.064845  0  3.626011  0  0  0.037366  0  3.873677  0  0  0.03839  0  3.881612  0  0  -0.000296  0.036426  0  3.868774  0
C  C51  1  0.51461894  0.66813513  0.98980551  1  0  0.065086  0  3.625823  0  0  0.037568  0  3.873554  0  0  0.038591  0  3.881466  0  0  -0.000243  0.036629  0  3.868655  0
C  C52  1  0.39820822  0.12434718  0.59103791  1  0  0.677575  0  3.871315  0  0  0.627815  0  4.178817  0  0  0.659956  0  4.169995  0  0  0.197962  0.605961  0  4.184294  0
C  C53  1  0.60179098  0.37565210  0.09103412  1  0  0.677664  0  3.871226  0  0  0.627989  0  4.178594  0  0  0.660132  0  4.169771  0  0  0.198063  0.606142  0  4.184056  0
C  C54  1  0.60180108  0.87565120  0.40896489  1  0  0.677581  0  3.871204  0  0  0.627737  0  4.17882  0  0  0.659879  0  4.170003  0  0  0.197989  0.605887  0  4.184284  0
C  C55  1  0.39819383  0.62435119  0.90896099  1  0  0.677484  0  3.871452  0  0  0.627656  0  4.179053  0  0  0.659797  0  4.170238  0  0  0.197918  0.605794  0  4.184535  0
O  O56  1  0.81441569  0.44185904  0.41644646  1  0  -0.640089  0  1.979885  0  0  -0.578453  0  2.208941  0  0  -0.603965  0  2.19814  0  0  -0.326028  -0.56069  0  2.216189  0
O  O57  1  0.18559172  0.05813958  0.91644468  1  0  -0.640036  0  1.979978  0  0  -0.578468  0  2.208991  0  0  -0.60398  0  2.198185  0  0  -0.326011  -0.560702  0  2.216237  0
O  O58  1  0.18559621  0.55814121  0.58355457  1  0  -0.640058  0  1.980058  0  0  -0.578484  0  2.209078  0  0  -0.603994  0  2.198277  0  0  -0.326016  -0.560722  0  2.216326  0
O  O59  1  0.81440096  0.94185706  0.08355398  1  0  -0.640098  0  1.980183  0  0  -0.578532  0  2.209207  0  0  -0.604047  0  2.198407  0  0  -0.326014  -0.560765  0  2.216453  0
O  O60  1  0.46477479  0.31469132  0.36292478  1  0  -0.699373  0  2.038929  0  0  -0.633432  0  2.270688  0  0  -0.659674  0  2.260132  0  0  -0.380533  -0.615088  0  2.277505  0
O  O61  1  0.53523577  0.18530173  0.86292242  1  0  -0.699293  0  2.038952  0  0  -0.633419  0  2.270657  0  0  -0.659657  0  2.260098  0  0  -0.380492  -0.615076  0  2.277474  0
O  O62  1  0.53523820  0.68530610  0.63707684  1  0  -0.699318  0  2.038929  0  0  -0.633432  0  2.270638  0  0  -0.659671  0  2.260081  0  0  -0.38051  -0.615088  0  2.277455  0
O  O63  1  0.46475521  0.81469586  0.13707447  1  0  -0.699368  0  2.038892  0  0  -0.633444  0  2.270595  0  0  -0.659682  0  2.260038  0  0  -0.380513  -0.6151  0  2.277412  0
O  O64  1  0.69282327  0.37153527  0.56419760  1  0  -0.578637  0  2.076187  0  0  -0.538393  0  2.307662  0  0  -0.55217  0  2.294859  0  0  -0.453716  -0.528406  0  2.316475  0
O  O65  1  0.30719866  0.12846153  0.06419462  1  0  -0.578668  0  2.076113  0  0  -0.538435  0  2.307579  0  0  -0.552214  0  2.294763  0  0  -0.453715  -0.528471  0  2.316453  0
O  O66  1  0.30719772  0.62846209  0.43580520  1  0  -0.578666  0  2.076113  0  0  -0.538437  0  2.307607  0  0  -0.552212  0  2.294792  0  0  -0.453729  -0.528474  0  2.316481  0
O  O67  1  0.69278493  0.87153800  0.93580404  1  0  -0.578768  0  2.076206  0  0  -0.538526  0  2.307725  0  0  -0.552305  0  2.294895  0  0  -0.453762  -0.528555  0  2.316579  0
O  O68  1  0.76897811  0.12889257  0.49372449  1  0  -0.551123  0  2.13868  0  0  -0.49138  0  2.355569  0  0  -0.508173  0  2.343757  0  0  -0.376584  -0.47936  0  2.363758  0
O  O69  1  0.23102616  0.37109786  0.99371893  1  0  -0.551113  0  2.138703  0  0  -0.491423  0  2.355656  0  0  -0.508247  0  2.343912  0  0  -0.376619  -0.479408  0  2.36385  0
O  O70  1  0.23102997  0.87110207  0.50627891  1  0  -0.55102  0  2.138693  0  0  -0.491327  0  2.355637  0  0  -0.508141  0  2.343889  0  0  -0.376632  -0.479331  0  2.363838  0
O  O71  1  0.76895483  0.62889981  0.00627855  1  0  -0.551142  0  2.138874  0  0  -0.491367  0  2.355717  0  0  -0.508153  0  2.343928  0  0  -0.376622  -0.479371  0  2.363921  0
O  O72  1  0.54179414  0.07687099  0.64107359  1  0  -0.724902  0  1.959491  0  0  -0.681314  0  2.202799  0  0  -0.702527  0  2.190845  0  0  -0.428506  -0.666548  0  2.210723  0
O  O73  1  0.45820030  0.42312910  0.14106816  1  0  -0.724958  0  1.959395  0  0  -0.681395  0  2.202653  0  0  -0.702605  0  2.190698  0  0  -0.428564  -0.666632  0  2.210573  0
O  O74  1  0.45820885  0.92312650  0.35893039  1  0  -0.724924  0  1.959372  0  0  -0.681308  0  2.202723  0  0  -0.702519  0  2.190771  0  0  -0.428567  -0.666541  0  2.210641  0
O  O75  1  0.54178405  0.57687890  0.85892577  1  0  -0.724904  0  1.959549  0  0  -0.681276  0  2.20286  0  0  -0.702488  0  2.190911  0  0  -0.428551  -0.666504  0  2.210782  0
O  O76  1  0.15472531  0.14485712  0.60401151  1  0  -0.764247  0  2.047677  0  0  -0.715023  0  2.295029  0  0  -0.738531  0  2.28174  0  0  -0.455172  -0.698549  0  2.303808  0
O  O77  1  0.84527082  0.35514428  0.10401076  1  0  -0.764292  0  2.047728  0  0  -0.715095  0  2.295051  0  0  -0.738602  0  2.281763  0  0  -0.455194  -0.698621  0  2.303821  0
O  O78  1  0.84528259  0.85514317  0.39598951  1  0  -0.764152  0  2.047529  0  0  -0.71489  0  2.294913  0  0  -0.738397  0  2.28163  0  0  -0.455122  -0.698417  0  2.303682  0
O  O79  1  0.15471508  0.64485618  0.89598791  1  0  -0.764129  0  2.04762  0  0  -0.714884  0  2.295022  0  0  -0.738387  0  2.281731  0  0  -0.455103  -0.698406  0  2.303798  0
O  O80  1  0.95681814  0.87045054  0.64197254  1  0  -0.954505  0  1.822203  0  0  -0.911863  0  2.005721  0  0  -0.928606  0  1.973823  0  0  -0.738734  -0.899945  0  2.028127  0
O  O81  1  0.04317248  0.62954869  0.14197151  1  0  -0.954518  0  1.822122  0  0  -0.911894  0  2.00564  0  0  -0.928628  0  1.973763  0  0  -0.73873  -0.899977  0  2.028049  0
O  O82  1  0.04319469  0.12955253  0.35802908  1  0  -0.954417  0  1.82228  0  0  -0.911786  0  2.005836  0  0  -0.928534  0  1.973932  0  0  -0.738665  -0.899869  0  2.02825  0
O  O83  1  0.95681342  0.37045177  0.85802715  1  0  -0.954517  0  1.822143  0  0  -0.911889  0  2.005675  0  0  -0.928629  0  1.973774  0  0  -0.738738  -0.89997  0  2.028086  0
O  O84  1  0.90096280  0.06721665  0.78194043  1  0  -0.968027  0  1.808548  0  0  -0.927315  0  1.98772  0  0  -0.944031  0  1.954801  0  0  -0.714166  -0.915387  0  2.010668  0
O  O85  1  0.09905868  0.43277789  0.28193928  1  0  -0.967882  0  1.808653  0  0  -0.927198  0  1.987781  0  0  -0.943909  0  1.954876  0  0  -0.714086  -0.91527  0  2.010725  0
O  O86  1  0.09903680  0.93278276  0.21805941  1  0  -0.968071  0  1.808517  0  0  -0.927357  0  1.987682  0  0  -0.944075  0  1.954762  0  0  -0.714178  -0.915428  0  2.010629  0
O  O87  1  0.90094692  0.56722147  0.71806115  1  0  -0.968007  0  1.808576  0  0  -0.927339  0  1.987708  0  0  -0.94405  0  1.954794  0  0  -0.71411  -0.915413  0  2.010652  0
