# generated using pymatgen
data_CdH11C19NO4
_symmetry_space_group_name_H-M   'P 1'
_cell_length_a   10.67459282
_cell_length_b   12.51421646
_cell_length_c   12.51420576
_cell_angle_alpha   92.19811269
_cell_angle_beta   92.73741002
_cell_angle_gamma   92.73752527
_symmetry_Int_Tables_number   1
_chemical_formula_structural   CdH11C19NO4
_chemical_formula_sum   'Cd4 H44 C76 N4 O16'
_cell_volume   1666.50266217
_cell_formula_units_Z   4
loop_
 _symmetry_equiv_pos_site_id
 _symmetry_equiv_pos_as_xyz
  1  'x, y, z'
loop_
 _atom_site_type_symbol
 _atom_site_label
 _atom_site_symmetry_multiplicity
 _atom_site_fract_x
 _atom_site_fract_y
 _atom_site_fract_z
 _atom_site_occupancy
 _atom_site_pbe_bader_charge
 _atom_site_pbe_bader_spin_density
 _atom_site_pbe_cm5_charge
 _atom_site_pbe_ddec_charge
 _atom_site_pbe_ddec_spin_density
 _atom_site_pbe_ddec_sum_bond_order
 _atom_site_pbe_magmom
Cd  Cd0  1  0.74999994  0.85938257  0.14061776  1  1.297197  0  0.776077  0.915256  0  2.247545  0
Cd  Cd1  1  0.25000031  0.14061769  0.85938164  1  1.297193  0  0.776077  0.915245  0  2.247569  0
Cd  Cd2  1  0.00000000  0.00000000  0.00000000  1  1.369642  0  0.793162  1.083917  0  2.064258  0
Cd  Cd3  1  0.50000006  0.00000000  0.00000006  1  1.369621  0  0.793159  1.083931  0  2.064314  0
H  H4  1  0.95987708  0.77377531  0.85062139  1  0.115775  0  0.100185  0.099596  0  1.058503  0
H  H5  1  0.54012019  0.14937805  0.22622519  1  0.11581  0  0.100174  0.099587  0  1.058531  0
H  H6  1  0.04012312  0.22622414  0.14937878  1  0.115799  0  0.100193  0.099614  0  1.058493  0
H  H7  1  0.45987813  0.85062141  0.77377329  1  0.115826  0  0.100194  0.099621  0  1.058494  0
H  H8  1  0.63130506  0.89053569  0.69645532  1  0.081182  0  0.103441  0.101925  0  1.040171  0
H  H9  1  0.86869366  0.30354443  0.10946475  1  0.08128  0  0.103458  0.101937  0  1.040176  0
H  H10  1  0.36869514  0.10946377  0.30354484  1  0.081173  0  0.103433  0.101917  0  1.040178  0
H  H11  1  0.13130560  0.69645503  0.89053538  1  0.081184  0  0.103444  0.101952  0  1.040157  0
H  H12  1  0.02388526  0.69684738  0.67532111  1  0.067758  0  0.100017  0.098559  0  1.009669  0
H  H13  1  0.47611340  0.32467952  0.30315365  1  0.067733  0  0.10001  0.098565  0  1.009631  0
H  H14  1  0.97611494  0.30315208  0.32467826  1  0.067757  0  0.100022  0.098572  0  1.009674  0
H  H15  1  0.52388591  0.67532074  0.69684650  1  0.067737  0  0.100014  0.098547  0  1.009677  0
H  H16  1  0.88930272  0.71369702  0.51124558  1  0.064115  0  0.103552  0.102791  0  1.000458  0
H  H17  1  0.61069759  0.48875527  0.28630283  1  0.064108  0  0.103552  0.102794  0  1.000457  0
H  H18  1  0.11069852  0.28630403  0.48875469  1  0.064117  0  0.103537  0.102752  0  1.00045  0
H  H19  1  0.38930168  0.51124418  0.71369650  1  0.064097  0  0.103545  0.102773  0  1.000454  0
H  H20  1  0.49793909  0.82702765  0.57585327  1  0.077126  0  0.104281  0.098899  0  1.05746  0
H  H21  1  0.00206029  0.42414607  0.17297219  1  0.077119  0  0.104282  0.098891  0  1.057463  0
H  H22  1  0.50206116  0.17297260  0.42414612  1  0.077157  0  0.104282  0.098884  0  1.057464  0
H  H23  1  0.99793996  0.57585419  0.82702721  1  0.07712  0  0.104284  0.098883  0  1.057455  0
H  H24  1  0.81849031  0.81477108  0.38070106  1  0.100266  0  0.113813  0.084933  0  1.040213  0
H  H25  1  0.68151049  0.61929906  0.18522836  1  0.100284  0  0.113853  0.084991  0  1.04017  0
H  H26  1  0.18150989  0.18522838  0.61929911  1  0.100274  0  0.11382  0.084921  0  1.040184  0
H  H27  1  0.31848976  0.38070120  0.81477184  1  0.100275  0  0.113852  0.084982  0  1.040172  0
H  H28  1  0.48335618  0.90479305  0.24292602  1  0.160203  0  0.116118  0.093465  0  1.043656  0
H  H29  1  0.01664525  0.75707293  0.09520752  1  0.160209  0  0.116087  0.093477  0  1.043693  0
H  H30  1  0.51664407  0.09520721  0.75707338  1  0.160209  0  0.116105  0.093455  0  1.04366  0
H  H31  1  0.98335495  0.24292652  0.90479264  1  0.160202  0  0.1161  0.093463  0  1.043658  0
H  H32  1  0.33778295  0.88896894  0.59161114  1  0.065788  0  0.097264  0.094622  0  1.040535  0
H  H33  1  0.16221610  0.40838863  0.11103115  1  0.065777  0  0.097269  0.094641  0  1.040519  0
H  H34  1  0.66221730  0.11103132  0.40838906  1  0.065791  0  0.097268  0.094632  0  1.04053  0
H  H35  1  0.83778321  0.59161163  0.88896901  1  0.065779  0  0.097274  0.094648  0  1.040506  0
H  H36  1  0.29047845  0.89116010  0.24513214  1  0.115418  0  0.106405  0.116867  0  1.035647  0
H  H37  1  0.20952236  0.75486740  0.10883929  1  0.115729  0  0.106411  0.11688  0  1.035631  0
H  H38  1  0.70952273  0.10884016  0.75486730  1  0.115731  0  0.106405  0.116883  0  1.03561  0
H  H39  1  0.79047789  0.24513285  0.89115931  1  0.115427  0  0.106413  0.116888  0  1.035631  0
H  H40  1  0.11227759  0.90803831  0.60543237  1  0.070174  0  0.102852  0.111883  0  1.002565  0
H  H41  1  0.38772163  0.39456727  0.09196219  1  0.069644  0  0.102861  0.1119  0  1.002525  0
H  H42  1  0.88772266  0.09196195  0.39456702  1  0.070162  0  0.102858  0.111904  0  1.002514  0
H  H43  1  0.61227768  0.60543298  0.90803877  1  0.070173  0  0.10287  0.111916  0  1.002496  0
H  H44  1  0.97424150  0.92012278  0.43953008  1  0.083481  0  0.099648  0.095017  0  1.062719  0
H  H45  1  0.52575892  0.56046971  0.07987734  1  0.083485  0  0.099637  0.095018  0  1.062709  0
H  H46  1  0.02575968  0.07987748  0.56046936  1  0.083467  0  0.099639  0.095005  0  1.062708  0
H  H47  1  0.47424133  0.43953055  0.92012366  1  0.083478  0  0.099648  0.095019  0  1.062683  0
C  C48  1  0.74568245  0.87600567  0.88900314  1  1.583361  0  0.220199  0.618704  0  4.139512  0
C  C49  1  0.75431826  0.11099618  0.12399599  1  1.583379  0  0.220245  0.61885  0  4.139327  0
C  C50  1  0.25431775  0.12399379  0.11099623  1  1.583372  0  0.220216  0.618732  0  4.139449  0
C  C51  1  0.24568001  0.88900247  0.87600486  1  1.583383  0  0.220269  0.618864  0  4.139214  0
C  C52  1  0.78797878  0.83179966  0.78408478  1  -0.009937  0  -0.017661  -0.030446  0  3.96059  0
C  C53  1  0.71201766  0.21591532  0.16820135  1  -0.010016  0  -0.017643  -0.030418  0  3.960489  0
C  C54  1  0.21202142  0.16819980  0.21591539  1  -0.009508  0  -0.017659  -0.030422  0  3.960572  0
C  C55  1  0.28798067  0.78408413  0.83179794  1  -0.01003  0  -0.017646  -0.030399  0  3.960501  0
C  C56  1  0.90013295  0.77883891  0.77826739  1  -0.075706  0  -0.084884  -0.093196  0  3.960745  0
C  C57  1  0.59986556  0.22173353  0.22116386  1  -0.075986  0  -0.084878  -0.09324  0  3.960762  0
C  C58  1  0.09986725  0.22116055  0.22173278  1  -0.076144  0  -0.084896  -0.09327  0  3.960763  0
C  C59  1  0.40013370  0.77826592  0.77883786  1  -0.075952  0  -0.084897  -0.093281  0  3.960796  0
C  C60  1  0.71447588  0.84414717  0.69057725  1  -0.022136  0  -0.078452  -0.130652  0  3.936573  0
C  C61  1  0.78552385  0.30942205  0.15585324  1  -0.0222  0  -0.078441  -0.130657  0  3.936511  0
C  C62  1  0.28552432  0.15585229  0.30942292  1  -0.022149  0  -0.078453  -0.130671  0  3.936569  0
C  C63  1  0.21447541  0.69057740  0.84414689  1  -0.022131  0  -0.078463  -0.130743  0  3.936554  0
C  C64  1  0.93581707  0.73713601  0.67994765  1  -0.030715  0  -0.091291  -0.078981  0  4.015673  0
C  C65  1  0.56418135  0.32005309  0.26286332  1  -0.030416  0  -0.091313  -0.078967  0  4.015608  0
C  C66  1  0.06418313  0.26286345  0.32005251  1  -0.030711  0  -0.091282  -0.078962  0  4.015655  0
C  C67  1  0.43581791  0.67994637  0.73713521  1  -0.030419  0  -0.091292  -0.078935  0  4.01564  0
C  C68  1  0.74868786  0.80258512  0.59113953  1  -0.074862  0  -0.010757  0.058659  0  4.012216  0
C  C69  1  0.75131051  0.40886035  0.19741485  1  -0.075006  0  -0.010772  0.058666  0  4.012153  0
C  C70  1  0.25131333  0.19741513  0.40885991  1  -0.074864  0  -0.010784  0.058603  0  4.012134  0
C  C71  1  0.24868781  0.59113910  0.80258524  1  -0.074812  0  -0.010761  0.058693  0  4.012209  0
C  C72  1  0.86049508  0.74780574  0.58716247  1  -0.01373  0  -0.082494  -0.116372  0  3.959449  0
C  C73  1  0.63950423  0.41283766  0.25219375  1  -0.013594  0  -0.082485  -0.116406  0  3.959465  0
C  C74  1  0.13950512  0.25219372  0.41283690  1  -0.013714  0  -0.082464  -0.1163  0  3.959419  0
C  C75  1  0.36049504  0.58716179  0.74780557  1  -0.013774  0  -0.082484  -0.116371  0  3.959476  0
C  C76  1  0.66979858  0.82171599  0.49429077  1  -0.072076  0  -0.003015  0.035313  0  4.014125  0
C  C77  1  0.83020147  0.50570846  0.17828279  1  -0.072024  0  -0.003067  0.035283  0  4.014115  0
C  C78  1  0.33020162  0.17828347  0.50570940  1  -0.072083  0  -0.00305  0.035319  0  4.01401  0
C  C79  1  0.16979873  0.49429100  0.82171657  1  -0.072042  0  -0.003069  0.035251  0  4.014112  0
C  C80  1  0.54166375  0.83852570  0.50016699  1  -0.019417  0  -0.069239  -0.135446  0  3.906883  0
C  C81  1  0.95833609  0.49983331  0.16147377  1  -0.019414  0  -0.069225  -0.135421  0  3.906926  0
C  C82  1  0.45833743  0.16147456  0.49983405  1  -0.019415  0  -0.069201  -0.135369  0  3.906868  0
C  C83  1  0.04166317  0.50016614  0.83852635  1  -0.019392  0  -0.069224  -0.135371  0  3.906851  0
C  C84  1  0.72023422  0.82857533  0.39327534  1  0.551809  0  0.042583  0.031494  0  3.925502  0
C  C85  1  0.77976539  0.60672478  0.17142510  1  0.551755  0  0.042607  0.031499  0  3.925467  0
C  C86  1  0.27976603  0.17142493  0.60672486  1  0.551806  0  0.042619  0.031541  0  3.925443  0
C  C87  1  0.22023486  0.39327547  0.82857510  1  0.551748  0  0.042623  0.031539  0  3.925464  0
C  C88  1  0.46887611  0.86810827  0.41092371  1  0.023765  0  -0.001625  0.03886  0  3.990836  0
C  C89  1  0.03112390  0.58907619  0.13189164  1  0.023739  0  -0.001581  0.038922  0  3.990987  0
C  C90  1  0.53112507  0.13189199  0.58907653  1  0.023642  0  -0.001607  0.038837  0  3.99098  0
C  C91  1  0.96887536  0.41092327  0.86810848  1  0.023579  0  -0.001615  0.038834  0  3.99098  0
C  C92  1  0.53141515  0.87888618  0.31541309  1  0.403371  0  0.042548  0.03593  0  3.892346  0
C  C93  1  0.96858555  0.68458626  0.12111391  1  0.40336  0  0.042519  0.035814  0  3.892493  0
C  C94  1  0.46858603  0.12111407  0.68458634  1  0.403453  0  0.042542  0.035919  0  3.89238  0
C  C95  1  0.03141465  0.31541320  0.87888625  1  0.403523  0  0.042531  0.035875  0  3.892397  0
C  C96  1  0.33297983  0.88499110  0.41739605  1  0.047039  0  -0.013035  0.055581  0  3.994761  0
C  C97  1  0.16701910  0.58260457  0.11500930  1  0.047035  0  -0.013034  0.055596  0  3.994815  0
C  C98  1  0.66702041  0.11500916  0.58260415  1  0.047021  0  -0.013028  0.055616  0  3.994801  0
C  C99  1  0.83298021  0.41739568  0.88499086  1  0.047033  0  -0.013024  0.055639  0  3.994794  0
C  C100  1  0.27947613  0.89150996  0.51805830  1  -0.074474  0  -0.086284  -0.112246  0  3.951868  0
C  C101  1  0.22052332  0.48194148  0.10849065  1  -0.074461  0  -0.086301  -0.112291  0  3.951806  0
C  C102  1  0.72052412  0.10849030  0.48194190  1  -0.07447  0  -0.08629  -0.112281  0  3.951851  0
C  C103  1  0.77947599  0.51805878  0.89151031  1  -0.074471  0  -0.08629  -0.112295  0  3.951871  0
C  C104  1  0.25413794  0.89409818  0.32510530  1  -0.060559  0  -0.078763  -0.133916  0  3.899737  0
C  C105  1  0.24586248  0.67489436  0.10590203  1  -0.060576  0  -0.078786  -0.133934  0  3.899842  0
C  C106  1  0.74586231  0.10590208  0.67489409  1  -0.060561  0  -0.078774  -0.133943  0  3.899782  0
C  C107  1  0.75413777  0.32510589  0.89409817  1  -0.060559  0  -0.078792  -0.134009  0  3.89983  0
C  C108  1  0.15136665  0.90278433  0.52658740  1  -0.023902  0  -0.091399  -0.078923  0  4.008846  0
C  C109  1  0.34863277  0.47341275  0.09721642  1  -0.023375  0  -0.091404  -0.078934  0  4.00883  0
C  C110  1  0.84863359  0.09721592  0.47341200  1  -0.023897  0  -0.091407  -0.078934  0  4.00878  0
C  C111  1  0.65136748  0.52658751  0.90278458  1  -0.023899  0  -0.091428  -0.078942  0  4.00878  0
C  C112  1  0.12539537  0.90749569  0.33348281  1  -0.079222  0  -0.020857  -0.030772  0  3.964339  0
C  C113  1  0.37460354  0.66651680  0.09250466  1  -0.079216  0  -0.020903  -0.030873  0  3.964395  0
C  C114  1  0.87460488  0.09250457  0.66651659  1  -0.07923  0  -0.020876  -0.030816  0  3.964378  0
C  C115  1  0.62539572  0.33348266  0.90749547  1  -0.07923  0  -0.020852  -0.030701  0  3.964313  0
C  C116  1  0.07422405  0.90959032  0.43439483  1  -0.008939  0  -0.086433  -0.096898  0  3.970496  0
C  C117  1  0.42577543  0.56560450  0.09041032  1  -0.008915  0  -0.086414  -0.096863  0  3.970487  0
C  C118  1  0.92577619  0.09040994  0.56560536  1  -0.008915  0  -0.086423  -0.096861  0  3.970491  0
C  C119  1  0.57422383  0.43439496  0.90959060  1  -0.008927  0  -0.086383  -0.096878  0  3.97038  0
C  C120  1  0.03998026  0.92083758  0.23602473  1  1.547739  0  0.206179  0.57573  0  4.214137  0
C  C121  1  0.46002059  0.76397468  0.07916274  1  1.547733  0  0.20618  0.57574  0  4.214178  0
C  C122  1  0.96001994  0.07916188  0.76397464  1  1.547735  0  0.206152  0.575746  0  4.214134  0
C  C123  1  0.53997966  0.23602558  0.92083746  1  1.547716  0  0.206118  0.575636  0  4.214273  0
N  N124  1  0.65241334  0.85637972  0.30674405  1  -1.254925  0  -0.327365  -0.222567  0  3.530452  0
N  N125  1  0.84758645  0.69325486  0.14362030  1  -1.254901  0  -0.327378  -0.222563  0  3.530443  0
N  N126  1  0.34758691  0.14362054  0.69325535  1  -1.254906  0  -0.327391  -0.22259  0  3.530447  0
N  N127  1  0.15241375  0.30674460  0.85637986  1  -1.254903  0  -0.327379  -0.22257  0  3.53042  0
O  O128  1  0.82424818  0.87281328  0.97074186  1  -1.183047  0  -0.341125  -0.607379  0  2.385989  0
O  O129  1  0.67574948  0.02925759  0.12718973  1  -1.183086  0  -0.34115  -0.607447  0  2.385865  0
O  O130  1  0.17575117  0.12718778  0.02925833  1  -1.183052  0  -0.341128  -0.607379  0  2.385913  0
O  O131  1  0.32424884  0.97074187  0.87281275  1  -1.18302  0  -0.341174  -0.607472  0  2.385833  0
O  O132  1  0.92327296  0.92367335  0.25020640  1  -1.160117  0  -0.328371  -0.572532  0  2.320688  0
O  O133  1  0.57672670  0.74979382  0.07632674  1  -1.160124  0  -0.328332  -0.572475  0  2.320741  0
O  O134  1  0.07672724  0.07632610  0.74979456  1  -1.160127  0  -0.328362  -0.57256  0  2.320682  0
O  O135  1  0.42327350  0.25020564  0.92367342  1  -1.160113  0  -0.32834  -0.572479  0  2.320772  0
O  O136  1  0.63642054  0.90940772  0.89069391  1  -1.165447  0  -0.308734  -0.547053  0  2.292091  0
O  O137  1  0.86357693  0.10930552  0.09059460  1  -1.165408  0  -0.308742  -0.547107  0  2.292123  0
O  O138  1  0.36357966  0.09059174  0.10930705  1  -1.165454  0  -0.308757  -0.547069  0  2.292079  0
O  O139  1  0.13642129  0.89069234  0.90940622  1  -1.165458  0  -0.308761  -0.54712  0  2.292099  0
O  O140  1  0.09097359  0.92763524  0.14590345  1  -1.162741  0  -0.321918  -0.561031  0  2.299742  0
O  O141  1  0.40902670  0.85409731  0.07236448  1  -1.162712  0  -0.32192  -0.561053  0  2.299726  0
O  O142  1  0.90902755  0.07236422  0.85409596  1  -1.162733  0  -0.32188  -0.561  0  2.299727  0
O  O143  1  0.59097261  0.14590294  0.92763488  1  -1.162705  0  -0.32192  -0.561048  0  2.299734  0
