# generated using pymatgen
data_MnH8C12(NO2)2
_symmetry_space_group_name_H-M   'P 1'
_cell_length_a   8.50561252
_cell_length_b   8.52817398
_cell_length_c   8.84925492
_cell_angle_alpha   69.33350335
_cell_angle_beta   69.29372760
_cell_angle_gamma   64.56905852
_symmetry_Int_Tables_number   1
_chemical_formula_structural   MnH8C12(NO2)2
_chemical_formula_sum   'Mn2 H16 C24 N4 O8'
_cell_volume   526.66989377
_cell_formula_units_Z   2
loop_
 _symmetry_equiv_pos_site_id
 _symmetry_equiv_pos_as_xyz
  1  'x, y, z'
loop_
 _atom_site_type_symbol
 _atom_site_label
 _atom_site_symmetry_multiplicity
 _atom_site_fract_x
 _atom_site_fract_y
 _atom_site_fract_z
 _atom_site_occupancy
 _atom_site_hle17_ddec_charge
 _atom_site_hle17_ddec_spin_density
 _atom_site_hle17_ddec_sum_bond_order
 _atom_site_hle17_magmom
 _atom_site_hse06_10hf_bader_charge
 _atom_site_hse06_10hf_bader_spin_density
 _atom_site_hse06_10hf_ddec_charge
 _atom_site_hse06_10hf_ddec_spin_density
 _atom_site_hse06_10hf_ddec_sum_bond_order
 _atom_site_hse06_10hf_magmom
 _atom_site_hse06_ddec_charge
 _atom_site_hse06_ddec_spin_density
 _atom_site_hse06_ddec_sum_bond_order
 _atom_site_hse06_magmom
 _atom_site_pbe_cm5_charge
 _atom_site_pbe_ddec_charge
 _atom_site_pbe_ddec_spin_density
 _atom_site_pbe_ddec_sum_bond_order
 _atom_site_pbe_magmom
Mn  Mn0  1  0.85861837  0.14213094  0.75031756  1  1.164847  4.8768  1.819235  4.674  1.559313  4.592084  0.989537  4.758091  2.339809  4.521  1.048591  4.79893  2.265576  4.592  0.61853  0.946274  4.704936  2.394006  4.44
Mn  Mn1  1  0.11286188  0.88674931  0.24970911  1  0.9304  -1.208619  2.626159  -1.154  1.514121  -1.145735  0.841842  -1.181592  3.173514  -1.146  0.872005  -1.106198  3.114214  -1.063  0.686657  0.823144  -1.233514  3.206788  -1.198
H  H2  1  0.42201905  0.00256695  0.11503425  1  0.079101  -0.000449  1.035648  -0.001  0.148074  0.000452  0.084523  0.000162  1.106166  0.0  0.087612  -0.0  1.101172  0.0  0.117831  0.08248  0.000274  1.109401  0.0
H  H3  1  0.93501661  0.48760591  0.59767418  1  0.079273  -9.4e-05  1.020451  0.0  0.136293  0.000549  0.083712  0.000269  1.091503  0.0  0.08741  0.000131  1.087359  0.0  0.115691  0.080725  0.000416  1.094693  0.0
H  H4  1  0.50957984  0.07052102  0.90402251  1  0.077881  -0.000106  1.021613  0.0  0.129754  0.000538  0.082864  0.000266  1.092545  0.0  0.086427  0.000131  1.088585  0.0  0.115415  0.079965  0.00041  1.095607  0.0
H  H5  1  0.00104334  0.57609883  0.38698809  1  0.07867  -0.00042  1.037294  -0.001  0.117167  0.00051  0.084193  0.000177  1.107438  0.0  0.087281  4e-06  1.102512  0.0  0.118175  0.082162  0.000297  1.11064  0.0
H  H6  1  0.71317497  0.29221280  0.08647872  1  0.082214  -0.000407  0.970307  0.0  0.117212  0.000514  0.087927  1.7e-05  1.038554  0.0  0.09125  -0.000104  1.034907  0.0  0.117545  0.085057  0.000193  1.042111  0.0
H  H7  1  0.29614423  0.61337126  0.52372147  1  0.082031  -0.00044  0.949157  -0.001  0.12396  0.000629  0.091371  0.000558  1.01057  0.0  0.093389  0.000372  1.008095  0.0  0.120019  0.090158  0.000766  1.012263  0.0
H  H8  1  0.38564865  0.70478146  0.97342243  1  0.081302  -0.000404  0.950388  -0.001  0.109402  0.000669  0.091366  0.000569  1.010936  0.0  0.093455  0.000375  1.00832  0.0  0.120074  0.090153  0.000781  1.012689  0.0
H  H9  1  0.70720185  0.28898504  0.41477778  1  0.08292  -0.000428  0.970685  0.0  0.111018  0.00051  0.088488  2.4e-05  1.039107  0.0  0.091821  -0.000101  1.035449  0.0  0.117639  0.085559  0.000205  1.042754  0.0
H  H10  1  0.75467558  0.74865353  0.46231045  1  0.104422  -0.000546  0.993036  -0.001  0.120965  0.000243  0.11096  0.000306  1.060951  0.0  0.114896  0.000165  1.056677  0.0  0.10953  0.108305  0.000375  1.063582  0.0
H  H11  1  0.82989567  0.77619197  0.95626354  1  0.108802  -0.000397  0.969196  0.0  0.128738  0.00011  0.116784  -0.0  1.032813  0.0  0.120588  -0.00014  1.029109  0.0  0.113326  0.113495  0.000166  1.036262  0.0
H  H12  1  0.22933382  0.16020960  0.54341393  1  0.110014  -0.000429  0.965312  0.0  0.136508  9.6e-05  0.117648  -1.7e-05  1.028929  0.0  0.121511  -0.000152  1.025208  0.0  0.114028  0.11431  0.000145  1.032385  0.0
H  H13  1  0.24740872  0.24875415  0.03605844  1  0.102826  -0.000503  0.992941  -0.001  0.13728  0.000235  0.109359  0.00033  1.061141  0.0  0.113283  0.000174  1.056813  0.0  0.108357  0.106728  0.000413  1.063831  0.0
H  H14  1  0.55440328  0.56471796  0.62670133  1  0.096354  0.000157  0.97075  0.0  0.100081  0.000601  0.1052  0.000401  1.034727  0.0  0.107439  0.0003  1.034927  0.0  0.105383  0.103879  0.000556  1.034534  0.0
H  H15  1  0.71118476  0.54233008  0.17471997  1  0.100563  0.000291  0.959175  0.0  0.059138  0.000583  0.109456  0.000326  1.021888  0.0  0.111587  0.00025  1.023496  0.0  0.104356  0.107634  0.000377  1.021453  0.0
H  H16  1  0.46140940  0.28265460  0.32545650  1  0.100493  0.000297  0.957585  0.0  0.099118  0.000593  0.109573  0.000322  1.019983  0.0  0.111865  0.000246  1.021287  0.0  0.104674  0.10764  0.000371  1.019726  0.0
H  H17  1  0.43142329  0.44878115  0.86991697  1  0.096178  0.000127  0.971244  0.0  0.06094  0.000596  0.105018  0.000388  1.035132  0.0  0.107171  0.00029  1.035469  0.0  0.104626  0.103786  0.000539  1.034827  0.0
C  C18  1  0.73922112  0.97388495  0.15170739  1  0.650573  0.007694  3.891225  0.008  1.631243  0.012365  0.601124  0.011442  4.185388  0.011  0.635962  0.008684  4.179794  0.009  0.224468  0.577223  0.013289  4.187554  0.013
C  C19  1  0.96086157  0.78944879  0.62573652  1  0.654501  0.013061  3.871903  0.011  1.613741  0.02064  0.596015  0.019893  4.174496  0.016  0.636492  0.012777  4.164587  0.011  0.221056  0.566516  0.027927  4.181943  0.022
C  C20  1  0.21149736  0.03713323  0.87470323  1  0.649806  0.013892  3.873747  0.011  1.604955  0.022173  0.590554  0.021247  4.177699  0.017  0.631683  0.01351  4.167086  0.012  0.218918  0.560727  0.029599  4.185511  0.023
C  C21  1  0.02604207  0.26174041  0.34877637  1  0.649233  0.006503  3.894526  0.007  1.632927  0.011592  0.600023  0.010774  4.188635  0.011  0.63445  0.008266  4.18327  0.009  0.223245  0.576456  0.012575  4.190559  0.012
C  C22  1  0.60990561  0.88054192  0.26986270  1  -0.123907  -0.008521  3.763326  -0.008  -0.024428  -0.003516  -0.09605  -0.0027  4.000808  -0.004  -0.109799  -0.004455  4.022237  -0.005  -0.017985  -0.087314  7.3e-05  3.986066  -0.002
C  C23  1  0.88844193  0.65371101  0.75849959  1  -0.125761  -0.001326  3.759319  -0.001  -0.03863  0.001176  -0.096606  0.000589  3.992223  0.0  -0.110112  -0.000825  4.01397  -0.001  -0.0168  -0.089276  0.003796  3.980336  0.002
C  C24  1  0.34720274  0.10991264  0.74220768  1  -0.125774  -0.001681  3.757103  -0.002  -0.011893  0.001032  -0.096863  0.000497  3.991394  0.0  -0.110324  -0.000968  4.01259  -0.001  -0.018071  -0.08971  0.003883  3.98003  0.001
C  C25  1  0.11929212  0.39098142  0.23016517  1  -0.12267  -0.008069  3.761701  -0.008  -0.014553  -0.003391  -0.095314  -0.002602  3.999357  -0.004  -0.108968  -0.004346  4.02087  -0.005  -0.018967  -0.086663  8.8e-05  3.984686  -0.002
C  C26  1  0.64230482  0.76217451  0.42111033  1  -0.022049  0.027719  3.697975  0.023  -0.050303  0.028533  -0.056922  0.022568  3.9507  0.017  -0.045955  0.015841  3.962893  0.012  -0.072822  -0.063111  0.024381  3.941205  0.018
C  C27  1  0.82594230  0.66600920  0.92461604  1  -0.004838  0.007277  3.683565  0.006  -0.006145  0.011718  -0.036799  0.009  3.931209  0.007  -0.029266  0.005357  3.946807  0.004  -0.062344  -0.042997  0.0141  3.923264  0.011
C  C28  1  0.33716313  0.16850543  0.57559239  1  -0.006546  0.007966  3.680069  0.007  -0.034641  0.012588  -0.038228  0.009676  3.928378  0.007  -0.030377  0.005672  3.943537  0.005  -0.063323  -0.044654  0.015056  3.92084  0.011
C  C29  1  0.23548570  0.35997670  0.07756776  1  -0.022044  0.027029  3.69984  0.022  -0.043715  0.028005  -0.056768  0.022168  3.952555  0.017  -0.046005  0.015624  3.964932  0.012  -0.071885  -0.062876  0.02413  3.942951  0.018
C  C30  1  0.45685293  0.90616559  0.22657822  1  0.108416  0.020587  3.641612  0.017  0.443422  0.016902  0.06254  0.012835  3.898125  0.01  0.075578  0.009789  3.909365  0.007  0.044327  0.054252  0.012545  3.890183  0.009
C  C31  1  0.88415737  0.50890174  0.72256085  1  0.111017  0.006016  3.694375  0.005  0.50574  0.009442  0.072722  0.008029  3.940543  0.006  0.082245  0.00582  3.956113  0.005  0.047397  0.065993  0.010304  3.931631  0.008
C  C32  1  0.48980896  0.11860079  0.77872552  1  0.114118  0.006496  3.692901  0.006  0.515076  0.009913  0.07524  0.008406  3.939282  0.007  0.084681  0.006058  3.955273  0.005  0.048973  0.068317  0.010731  3.930654  0.008
C  C33  1  0.09551805  0.54258089  0.27405928  1  0.108278  0.020283  3.643547  0.017  0.446141  0.016768  0.062896  0.012754  3.899832  0.01  0.075733  0.009682  3.910905  0.007  0.044863  0.054598  0.012633  3.891946  0.009
C  C34  1  0.52895897  0.66456612  0.51234209  1  -0.123866  -0.014122  3.751661  -0.013  -0.033839  -0.004971  -0.132962  -0.003814  4.007687  -0.004  -0.142363  -0.004601  4.026833  -0.004  -0.087627  -0.126786  -0.001815  3.993867  -0.003
C  C35  1  0.76098025  0.53640840  0.04448609  1  -0.1252  -0.00399  3.735499  -0.004  -0.006292  -0.002388  -0.135397  -0.001964  3.993678  -0.002  -0.14442  -0.001727  4.013803  -0.002  -0.08599  -0.130257  -0.001958  3.982881  -0.003
C  C36  1  0.46594056  0.23528813  0.45599527  1  -0.122469  -0.004435  3.731759  -0.004  -0.080527  -0.002613  -0.132833  -0.002155  3.990182  -0.002  -0.141764  -0.001846  4.009807  -0.002  -0.08579  -0.127771  -0.00214  3.979778  -0.003
C  C37  1  0.33305702  0.47315767  0.98546917  1  -0.122527  -0.013783  3.750905  -0.012  0.040794  -0.004919  -0.131679  -0.003745  4.006481  -0.004  -0.141091  -0.004553  4.025901  -0.004  -0.086536  -0.125469  -0.001801  3.992506  -0.003
C  C38  1  0.76033959  0.39756556  0.99674305  1  0.149352  0.007636  3.667364  0.007  0.458185  0.012573  0.113643  0.0098  3.925392  0.008  0.12589  0.005483  3.937261  0.005  0.052959  0.103406  0.016263  3.919812  0.013
C  C39  1  0.38385290  0.69093294  0.45637867  1  0.126912  0.020359  3.652616  0.016  0.426706  0.02203  0.092055  0.017984  3.908431  0.013  0.105077  0.013609  3.92106  0.01  0.045647  0.083656  0.018991  3.899131  0.013
C  C40  1  0.30824307  0.61710402  0.04176834  1  0.127481  0.019425  3.653191  0.015  0.401119  0.021589  0.092613  0.017596  3.90855  0.013  0.105302  0.013474  3.921338  0.01  0.045996  0.084275  0.018607  3.899052  0.013
C  C41  1  0.60237365  0.24051044  0.50432179  1  0.146784  0.008368  3.669639  0.008  0.496593  0.013406  0.110886  0.010522  3.928015  0.009  0.123513  0.0058  3.939364  0.005  0.05103  0.100374  0.017316  3.922795  0.014
N  N42  1  0.82045294  0.38387053  0.83720472  1  -0.339903  0.021674  3.214698  0.009  -1.320048  0.039989  -0.269823  0.027283  3.494563  0.01  -0.289379  0.024666  3.50632  0.008  -0.31528  -0.256419  0.030332  3.488013  0.012
N  N43  1  0.34230770  0.81574001  0.31634715  1  -0.275535  0.006965  3.299911  0.011  -1.225004  0.012696  -0.211708  0.010575  3.587232  0.014  -0.232649  0.003546  3.602008  0.007  -0.332873  -0.19672  0.015703  3.574552  0.02
N  N44  1  0.18512883  0.65754398  0.18316353  1  -0.274599  0.007789  3.301594  0.011  -1.220141  0.013622  -0.211548  0.011232  3.58988  0.014  -0.232358  0.004004  3.604281  0.007  -0.333018  -0.19627  0.016457  3.576782  0.02
N  N45  1  0.61455373  0.18312715  0.66422000  1  -0.341879  0.021211  3.218539  0.008  -1.325305  0.039666  -0.271777  0.027011  3.49925  0.01  -0.291111  0.02446  3.510494  0.008  -0.315493  -0.258499  0.030089  3.492998  0.012
O  O46  1  0.70815879  0.06077603  0.00807413  1  -0.662805  0.029278  2.074514  0.017  -1.236427  0.048968  -0.595685  0.037362  2.345282  0.021  -0.628089  0.0337  2.332663  0.018  -0.308241  -0.57063  0.040554  2.35227  0.024
O  O47  1  0.00615949  0.77128408  0.47595294  1  -0.592584  0.002383  2.23177  0.011  -1.182298  -0.002334  -0.536251  -0.002598  2.519047  0.006  -0.572643  -0.00298  2.510726  0.006  -0.296509  -0.509559  -0.002087  2.521702  0.006
O  O48  1  0.22846368  0.99340001  0.02473140  1  -0.590427  0.001702  2.235462  0.011  -1.179749  -0.002878  -0.534008  -0.003127  2.524245  0.005  -0.570502  -0.003284  2.515486  0.005  -0.297371  -0.507278  -0.002575  2.527068  0.006
O  O49  1  0.94134612  0.29161228  0.49329923  1  -0.664403  0.029386  2.073321  0.017  -1.241377  0.049536  -0.596797  0.03772  2.344134  0.022  -0.62949  0.034057  2.33189  0.019  -0.308802  -0.571587  0.04103  2.350918  0.025
O  O50  1  0.86674121  0.95961439  0.20327782  1  -0.572783  -0.007763  2.153712  -0.005  -1.205585  -0.00866  -0.522366  -0.007987  2.432336  -0.006  -0.549918  -0.00644  2.423191  -0.004  -0.291957  -0.502014  -0.009744  2.436547  -0.007
O  O51  1  0.97859995  0.90627027  0.66731255  1  -0.609786  0.032001  2.131503  0.02  -1.219065  0.054958  -0.550401  0.039107  2.415102  0.024  -0.579096  0.033079  2.398131  0.018  -0.30184  -0.529075  0.044991  2.426626  0.029
O  O52  1  0.09554486  0.01763063  0.83284588  1  -0.608624  0.032125  2.129961  0.02  -1.218166  0.055725  -0.549479  0.039634  2.413463  0.024  -0.577878  0.033228  2.396244  0.018  -0.301193  -0.52831  0.045742  2.425081  0.03
O  O53  1  0.03804659  0.13602997  0.29659899  1  -0.573781  -0.005566  2.137291  -0.003  -1.207591  -0.005713  -0.523867  -0.005611  2.413123  -0.003  -0.550628  -0.004832  2.403784  -0.003  -0.290018  -0.504003  -0.006774  2.41732  -0.004
