# generated using pymatgen
data_Zn2H41C48N7O10
_symmetry_space_group_name_H-M   'P 1'
_cell_length_a   10.88648725
_cell_length_b   14.62706151
_cell_length_c   15.11173371
_cell_angle_alpha   97.65749214
_cell_angle_beta   92.89273141
_cell_angle_gamma   106.74222618
_symmetry_Int_Tables_number   1
_chemical_formula_structural   Zn2H41C48N7O10
_chemical_formula_sum   'Zn2 H41 C48 N7 O10'
_cell_volume   2273.76809115
_cell_formula_units_Z   1
loop_
 _symmetry_equiv_pos_site_id
 _symmetry_equiv_pos_as_xyz
  1  'x, y, z'
loop_
 _atom_site_type_symbol
 _atom_site_label
 _atom_site_symmetry_multiplicity
 _atom_site_fract_x
 _atom_site_fract_y
 _atom_site_fract_z
 _atom_site_occupancy
 _atom_site_pbe_bader_charge
 _atom_site_pbe_bader_spin_density
 _atom_site_pbe_cm5_charge
 _atom_site_pbe_ddec_charge
 _atom_site_pbe_ddec_spin_density
 _atom_site_pbe_ddec_sum_bond_order
 _atom_site_pbe_magmom
Zn  Zn0  1  0.55193505  0.58812335  0.47855498  1  1.293689  0  0.667433  0.817117  0  2.458563  0
Zn  Zn1  1  0.47801996  0.40019372  0.51871299  1  1.286338  0  0.666813  0.823829  0  2.41066  0
H  H2  1  0.15102247  0.61164227  0.43734606  1  0.012691  0  0.087933  0.091815  0  0.995076  0
H  H3  1  0.39508323  0.46802377  0.77725646  1  0.072164  0  0.10671  0.116023  0  1.020394  0
H  H4  1  0.19190376  0.64141166  0.55388442  1  0.032346  0  0.092486  0.09493  0  1.005929  0
H  H5  1  0.22154471  0.20705377  0.08484955  1  0.030375  0  0.09185  0.092363  0  1.008716  0
H  H6  1  0.23094243  0.94273928  0.61930520  1  0.08064  0  0.109396  0.109604  0  1.016192  0
H  H7  1  0.46267223  0.75264538  0.52148809  1  0.12486  0  0.125954  0.100315  0  1.008909  0
H  H8  1  0.72642659  0.69725702  0.35256791  1  0.119308  0  0.130391  0.110421  0  0.967197  0
H  H9  1  0.76710586  0.03502094  0.34528615  1  0.073428  0  0.110514  0.114436  0  0.980855  0
H  H10  1  0.27372475  0.28100923  0.61320916  1  0.123037  0  0.124296  0.115655  0  1.021821  0
H  H11  1  0.58000664  0.23905571  0.48293410  1  0.131896  0  0.122347  0.098909  0  1.020125  0
H  H12  1  0.35210917  0.83469041  0.55983051  1  0.055888  0  0.109995  0.111991  0  1.007993  0
H  H13  1  0.86752312  0.36710828  0.57492305  1  0.032228  0  0.088617  0.089031  0  0.998351  0
H  H14  1  0.65927759  0.14645497  0.41721996  1  0.065584  0  0.112112  0.113036  0  1.000106  0
H  H15  1  0.79161741  0.86741147  0.31726796  1  0.06792  0  0.114455  0.122897  0  0.982801  0
H  H16  1  0.95069289  0.63394029  0.46991616  1  0.027262  0  0.102406  0.045082  0  0.992129  0
H  H17  1  0.08759142  0.43781058  0.35984145  1  0.040911  0  0.09228  0.094501  0  0.993228  0
H  H18  1  0.08388299  0.37416487  0.58385682  1  0.028498  0  0.094416  0.038461  0  0.987093  0
H  H19  1  0.90985164  0.47693631  0.64945732  1  0.071599  0  0.101951  0.114864  0  0.975413  0
H  H20  1  0.40175323  0.83590960  0.00980217  1  0.405236  0  0.297447  0.28482  0  0.959959  0
H  H21  1  0.36643799  0.79980148  0.10919999  1  0.427839  0  0.291774  0.278243  0  0.97897  0
H  H22  1  0.33989272  0.60941943  0.20491774  1  0.438216  0  0.295653  0.292587  0  0.973538  0
H  H23  1  0.44293383  0.71692470  0.19727744  1  0.413833  0  0.294938  0.282262  0  0.958937  0
H  H24  1  0.04075350  0.34515473  0.42631325  1  0.022609  0  0.090305  0.09374  0  0.990565  0
H  H25  1  0.18088147  0.43138258  0.79068078  1  0.461887  0  0.279564  0.273505  0  1.034606  0
H  H26  1  0.11206412  0.32110666  0.81687761  1  0.400984  0  0.298545  0.283961  0  0.951546  0
H  H27  1  0.06151550  0.18210688  0.61423883  1  0.053552  0  0.104877  0.104734  0  0.982613  0
H  H28  1  0.15605493  0.21845839  0.72083029  1  0.077526  0  0.102128  0.101602  0  1.033749  0
H  H29  1  0.01787094  0.11214738  0.70314107  1  0.086693  0  0.113559  0.120549  0  0.964698  0
H  H30  1  0.90304963  0.74716247  0.56868660  1  0.051141  0  0.08988  0.08947  0  1.012261  0
H  H31  1  0.07647271  0.78427142  0.58326829  1  0.000662  0  0.079636  0.067461  0  1.026885  0
H  H32  1  0.98547001  0.77226703  0.67901611  1  0.051391  0  0.100886  0.104684  0  0.97843  0
H  H33  1  0.94626355  0.53285546  0.33086559  1  0.359245  0  0.277182  0.257022  0  0.98881  0
H  H34  1  0.85310576  0.42632709  0.28487392  1  0.383474  0  0.283918  0.269316  0  0.970456  0
H  H35  1  0.83444970  0.36234979  0.41443833  1  0.039205  0  0.103789  0.052748  0  0.959859  0
H  H36  1  0.23968006  0.51662732  0.67222892  1  0.408686  0  0.274339  0.257389  0  1.010377  0
H  H37  1  0.12323288  0.56630282  0.68699959  1  0.413347  0  0.279861  0.268163  0  0.988686  0
H  H38  1  0.46686903  0.54408249  0.21301737  1  0.095648  0  0.100978  0.100019  0  1.049402  0
H  H39  1  0.32629542  0.24698242  0.24190873  1  0.092234  0  0.097798  0.102562  0  1.007331  0
H  H40  1  0.16509415  0.25963170  0.94324340  1  0.018716  0  0.09212  0.104938  0  1.01841  0
H  H41  1  0.50593702  0.81709389  0.89913638  1  0.066237  0  0.094935  0.090866  0  1.018632  0
H  H42  1  0.54903066  0.76443951  0.74425735  1  0.089098  0  0.09802  0.103304  0  1.009167  0
C  C43  1  0.51134258  0.57937083  0.66226251  1  1.537972  0  0.203526  0.580312  0  4.192409  0
C  C44  1  0.38152122  0.57078944  0.89106357  1  0.011828  0  -0.01006  0.042762  0  3.987398  0
C  C45  1  0.42039475  0.67142208  0.92764277  1  -0.032656  0  -0.015517  -0.009125  0  4.016273  0
C  C46  1  0.26771861  0.48199897  0.49769757  1  1.564713  0  0.213866  0.583763  0  4.122269  0
C  C47  1  0.32736400  0.49982271  0.94721661  1  0.011107  0  -0.013052  -0.066502  0  3.944489  0
C  C48  1  0.35033929  0.52822868  0.04157973  1  -0.004493  0  -0.005496  -0.032049  0  3.966453  0
C  C49  1  0.37763446  0.62905369  0.07638786  1  0.442363  0  0.072148  0.123822  0  4.042334  0
C  C50  1  0.40224999  0.69837398  0.01922966  1  0.327689  0  0.075512  0.132567  0  4.080714  0
C  C51  1  0.24859346  0.40249064  0.91284411  1  0.35558  0  0.094271  0.26895  0  4.084652  0
C  C52  1  0.22420313  0.33334412  0.96946716  1  -0.009861  0  -0.132774  -0.311099  0  4.021597  0
C  C53  1  0.27806764  0.35498592  0.05964627  1  0.012375  0  -0.01227  0.105306  0  4.061184  0
C  C54  1  0.89277002  0.49246239  0.50892580  1  0.026647  0  -0.01587  -0.078654  0  3.76665  0
C  C55  1  0.34206935  0.45376416  0.09754074  1  -0.026292  0  -0.018561  0.018069  0  3.972475  0
C  C56  1  0.27218731  0.28183050  0.11390747  1  -0.035153  0  -0.106865  -0.15879  0  4.021567  0
C  C57  1  0.33097668  0.30316221  0.20036965  1  -0.059797  0  -0.097032  -0.101722  0  4.034565  0
C  C58  1  0.46543358  0.42749370  0.32894171  1  1.540275  0  0.206219  0.59136  0  4.180885  0
C  C59  1  0.40598323  0.47220301  0.18423950  1  -0.096283  0  -0.094193  -0.151441  0  3.982582  0
C  C60  1  0.28078224  0.13238266  0.60322232  1  0.472181  0  0.09478  0.17284  0  4.054703  0
C  C61  1  0.32312341  0.22835376  0.59105060  1  0.533504  0  0.023645  -0.06587  0  3.939758  0
C  C62  1  0.49599152  0.20421978  0.51564075  1  0.518351  0  0.053845  0.037844  0  3.904401  0
C  C63  1  0.46017763  0.10511764  0.52337993  1  -0.019932  0  0.001243  -0.000827  0  3.979141  0
C  C64  1  0.35100821  0.06833596  0.57053706  1  -0.040147  0  -0.001711  0.00351  0  3.995104  0
C  C65  1  0.90704438  0.43329212  0.41846139  1  0.336768  0  0.006571  0.171332  0  3.816968  0
C  C66  1  0.52830395  0.04051203  0.48448099  1  0.03628  0  0.003244  0.039113  0  3.956094  0
C  C67  1  0.48987926  0.94284830  0.49878057  1  -0.009038  0  0.002825  0.042006  0  3.966241  0
C  C68  1  0.38271222  0.90983399  0.54922298  1  -0.005335  0  -0.079313  -0.118882  0  3.983543  0
C  C69  1  0.31430382  0.96975638  0.58283999  1  -0.001675  0  -0.082211  -0.107375  0  3.991911  0
C  C70  1  0.75299220  0.49396706  0.51001991  1  1.590408  0  0.226233  0.612876  0  4.097885  0
C  C71  1  0.63059727  0.07177657  0.42932198  1  -0.030016  0  -0.07567  -0.107403  0  3.982349  0
C  C72  1  0.69141695  0.00978269  0.38875109  1  -0.005439  0  -0.085138  -0.133398  0  3.993004  0
C  C73  1  0.65717022  0.91148625  0.40267010  1  -0.009388  0  0.004002  0.101461  0  4.031376  0
C  C74  1  0.55829162  0.87856591  0.45959648  1  -0.003906  0  0.000621  -0.016772  0  3.95093  0
C  C75  1  0.71760081  0.84481800  0.36256956  1  -0.047375  0  -0.083002  -0.184754  0  3.984189  0
C  C76  1  0.92985670  0.44221308  0.58513052  1  -0.052915  0  -0.159913  -0.231405  0  3.847405  0
C  C77  1  0.68327122  0.75169968  0.38153479  1  0.484096  0  0.046027  0.076261  0  3.958668  0
C  C78  1  0.53268369  0.78253512  0.47594073  1  0.522669  0  0.069731  0.074076  0  3.872591  0
C  C79  1  0.12243766  0.58993020  0.50200938  1  -0.024952  0  -0.171645  -0.258642  0  3.91541  0
C  C80  1  0.98588058  0.59507047  0.51819930  1  0.44676  0  -0.001327  0.146166  0  3.798985  0
C  C81  1  0.04423751  0.42037308  0.42207127  1  -0.049265  0  -0.161898  -0.251213  0  3.866639  0
C  C82  1  0.07406075  0.44741068  0.58857142  1  0.332669  0  -0.000656  0.165662  0  3.811115  0
C  C83  1  0.13012113  0.48698276  0.50362787  1  0.023378  0  -0.022304  -0.024411  0  3.800267  0
C  C84  1  0.09840945  0.15613468  0.67218555  1  0.359907  0  -0.131934  -0.177828  0  3.891209  0
C  C85  1  0.98758458  0.74186695  0.60887777  1  0.426938  0  -0.147451  -0.167931  0  3.996221  0
C  C86  1  0.47577027  0.61226604  0.75271137  1  -0.035535  0  -0.031095  -0.05249  0  4.007818  0
C  C87  1  0.40133397  0.39950615  0.23576094  1  -0.007045  0  -0.034637  -0.048914  0  4.013436  0
C  C88  1  0.47669925  0.74022966  0.87213406  1  -0.081935  0  -0.105135  -0.141488  0  4.033409  0
C  C89  1  0.50299989  0.71165788  0.78614267  1  -0.02582  0  -0.096668  -0.10507  0  4.028076  0
C  C90  1  0.41376772  0.54401615  0.80424785  1  -0.002863  0  -0.081091  -0.126547  0  3.929108  0
N  N91  1  0.42991306  0.26219404  0.54860299  1  -1.239117  0  -0.322373  -0.162959  0  3.584283  0
N  N92  1  0.59325086  0.72217895  0.43910470  1  -1.25477  0  -0.321116  -0.191631  0  3.543106  0
N  N93  1  0.41828164  0.79457821  0.05532670  1  -1.180148  0  -0.6077  -0.605443  0  3.313331  0
N  N94  1  0.36532416  0.66244036  0.16638620  1  -1.201555  0  -0.610128  -0.616701  0  3.313499  0
N  N95  1  0.19365046  0.37784449  0.82451411  1  -1.217452  0  -0.596758  -0.610027  0  3.353421  0
N  N96  1  0.87181984  0.47577869  0.34197291  1  -1.086576  0  -0.636769  -0.63753  0  3.188368  0
N  N97  1  0.14227790  0.50145210  0.67475419  1  -1.143797  0  -0.631295  -0.637534  0  3.190887  0
O  O98  1  0.54568111  0.64299824  0.61079826  1  -1.159341  0  -0.325214  -0.551641  0  2.311351  0
O  O99  1  0.98377432  0.64390096  0.60742914  1  -1.045541  0  -0.235989  -0.216273  0  2.483232  0
O  O100  1  0.50187756  0.48996884  0.64194276  1  -1.166184  0  -0.322536  -0.554287  0  2.311594  0
O  O101  1  0.34951235  0.55306048  0.47298823  1  -1.184485  0  -0.319176  -0.553355  0  2.329038  0
O  O102  1  0.28989299  0.40593413  0.51737927  1  -1.174132  0  -0.319295  -0.547539  0  2.338768  0
O  O103  1  0.53123544  0.51613416  0.35205754  1  -1.183892  0  -0.332265  -0.569518  0  2.37234  0
O  O104  1  0.44667470  0.36314773  0.38022438  1  -1.167666  0  -0.327955  -0.55622  0  2.294366  0
O  O105  1  0.72946365  0.57291981  0.50354593  1  -1.168851  0  -0.309516  -0.541588  0  2.382536  0
O  O106  1  0.66976135  0.41405933  0.51643274  1  -1.177779  0  -0.319079  -0.557628  0  2.342742  0
O  O107  1  0.17391964  0.09342216  0.64401488  1  -1.074175  0  -0.18114  -0.148811  0  2.569829  0
