# generated using pymatgen
data_Al4H19C28O20F3
_symmetry_space_group_name_H-M   'P 1'
_cell_length_a   6.67344905
_cell_length_b   13.15952263
_cell_length_c   16.96404685
_cell_angle_alpha   90.53561912
_cell_angle_beta   90.17823845
_cell_angle_gamma   90.37101224
_symmetry_Int_Tables_number   1
_chemical_formula_structural   Al4H19C28O20F3
_chemical_formula_sum   'Al4 H19 C28 O20 F3'
_cell_volume   1489.66866137
_cell_formula_units_Z   1
loop_
 _symmetry_equiv_pos_site_id
 _symmetry_equiv_pos_as_xyz
  1  'x, y, z'
loop_
 _atom_site_type_symbol
 _atom_site_label
 _atom_site_symmetry_multiplicity
 _atom_site_fract_x
 _atom_site_fract_y
 _atom_site_fract_z
 _atom_site_occupancy
 _atom_site_pbe_bader_charge
 _atom_site_pbe_bader_spin_density
 _atom_site_pbe_cm5_charge
 _atom_site_pbe_ddec_charge
 _atom_site_pbe_ddec_spin_density
 _atom_site_pbe_ddec_sum_bond_order
 _atom_site_pbe_magmom
Al  Al0  1  0.88277996  0.50198547  0.49860672  1  2.502688  0  0.399827  1.642472  0  2.578125  0
Al  Al1  1  0.38246772  0.49981102  0.49893095  1  2.501172  0  0.396682  1.644979  0  2.581182  0
Al  Al2  1  0.38205266  0.99035370  0.99471906  1  2.502354  0  0.394334  1.643241  0  2.587904  0
Al  Al3  1  0.88104740  0.99042952  0.99595442  1  2.49838  0  0.398051  1.640877  0  2.583473  0
H  H4  1  0.38868232  0.68764212  0.83847469  1  0.086575  0  0.10912  0.113774  0  0.982233  0
H  H5  1  0.06516546  0.56871772  0.77548494  1  0.100451  0  0.10568  0.094682  0  0.982825  0
H  H6  1  0.28909536  0.68107099  0.28853493  1  0.073285  0  0.111291  0.127494  0  0.991358  0
H  H7  1  0.82943623  0.79267893  0.18529881  1  0.126709  0  0.114938  0.113684  0  0.975792  0
H  H8  1  0.28934434  0.80365378  0.20133813  1  0.072281  0  0.111543  0.126865  0  0.990799  0
H  H9  1  0.93664494  0.19477428  0.80735588  1  0.093779  0  0.111363  0.10811  0  0.982397  0
H  H10  1  0.47823629  0.17986698  0.78720867  1  0.100432  0  0.110125  0.125965  0  0.991809  0
H  H11  1  0.93519530  0.28920440  0.68165734  1  0.087148  0  0.110831  0.10636  0  0.981189  0
H  H12  1  0.48043956  0.31095251  0.70707492  1  0.069039  0  0.108595  0.123807  0  0.995508  0
H  H13  1  0.93429649  0.19355899  0.18768383  1  0.103388  0  0.115419  0.114011  0  0.969322  0
H  H14  1  0.47252730  0.19749391  0.19002335  1  0.120864  0  0.106332  0.128905  0  1.018032  0
H  H15  1  0.93048939  0.31226352  0.30008801  1  0.102596  0  0.122218  0.145843  0  0.975916  0
H  H16  1  0.79997191  0.73460361  0.80644534  1  0.066199  0  0.102139  0.093134  0  0.997972  0
H  H17  1  0.87672213  0.80720106  0.65313480  1  0.1182  0  0.111921  0.125513  0  0.977409  0
H  H18  1  0.83315835  0.70075111  0.31230614  1  0.093986  0  0.115555  0.11453  0  0.974997  0
H  H19  1  0.63143750  0.62531559  0.53231743  1  0.621797  0  0.352815  0.432159  0  0.855336  0
H  H20  1  0.12749065  0.37209277  0.52511495  1  0.62738  0  0.354222  0.432765  0  0.850094  0
H  H21  1  0.63052363  0.86611689  0.96053409  1  0.631058  0  0.349509  0.423754  0  0.866008  0
H  H22  1  0.13166578  0.11839813  0.96939366  1  0.623933  0  0.35423  0.431754  0  0.851416  0
C  C23  1  0.62922630  0.38257809  0.60848888  1  1.55706  0  0.255558  0.676214  0  4.120996  0
C  C24  1  0.63523655  0.38042289  0.39201484  1  1.61098  0  0.262493  0.582705  0  4.184617  0
C  C25  1  0.13829704  0.61289212  0.38800634  1  1.55178  0  0.261902  0.678059  0  4.119657  0
C  C26  1  0.13226172  0.62444593  0.60623998  1  1.579715  0  0.269263  0.659915  0  4.103253  0
C  C27  1  0.09443864  0.64883882  0.76327189  1  -0.040596  0  -0.064939  -0.04211  0  3.607097  0
C  C28  1  0.27465494  0.71311264  0.79681617  1  -0.049221  0  -0.078337  -0.135715  0  3.657856  0
C  C29  1  0.12644357  0.80289112  0.81421602  1  -0.007029  0  -0.008635  -0.095361  0  3.661533  0
C  C30  1  0.94781898  0.73920160  0.77931973  1  -0.016979  0  -0.074149  -0.050315  0  3.641637  0
C  C31  1  0.98959680  0.78114519  0.69492581  1  -0.025941  0  -0.074059  -0.129616  0  3.632326  0
C  C32  1  0.16817449  0.84514602  0.72841753  1  0.592952  0  0.107852  0.213106  0  3.710078  0
C  C33  1  0.31591012  0.75474961  0.71264226  1  0.582988  0  0.100496  0.205281  0  3.725744  0
C  C34  1  0.13764406  0.69079607  0.67759332  1  -0.000897  0  -0.007103  -0.0951  0  3.647395  0
C  C35  1  0.97629309  0.71480744  0.28301955  1  -0.096363  0  -0.06417  -0.020089  0  3.972476  0
C  C36  1  0.14144175  0.67313062  0.31524728  1  0.008912  0  -0.083707  -0.233291  0  3.880263  0
C  C37  1  0.97467301  0.77566174  0.21199157  1  0.028807  0  -0.065429  -0.023378  0  3.974105  0
C  C38  1  0.13951448  0.81444766  0.17710154  1  -0.0783  0  -0.082498  -0.227994  0  3.876692  0
C  C39  1  0.79198017  0.21157743  0.78015612  1  0.035541  0  -0.068685  -0.026592  0  3.978441  0
C  C40  1  0.62683159  0.17022821  0.81297469  1  -0.102137  0  -0.082557  -0.22365  0  3.870831  0
C  C41  1  0.79162879  0.27510118  0.71059069  1  -0.084628  0  -0.066346  -0.019224  0  3.976709  0
C  C42  1  0.62742022  0.31939884  0.67985382  1  0.007455  0  -0.086153  -0.232063  0  3.881372  0
C  C43  1  0.78757545  0.21543185  0.21064745  1  -0.058165  0  -0.067222  0.008197  0  3.989768  0
C  C44  1  0.62405829  0.17866112  0.17217829  1  -0.025938  0  -0.089394  -0.243248  0  3.873605  0
C  C45  1  0.78754493  0.28173773  0.27893346  1  0.127166  0  -0.086276  -0.183018  0  4.005676  0
C  C46  1  0.62785497  0.31110381  0.32218478  1  0.400224  0  0.104231  0.136073  0  3.968983  0
C  C47  1  0.63638210  0.11060611  0.10296313  1  1.558261  0  0.260203  0.677932  0  4.117124  0
C  C48  1  0.63032536  0.10784542  0.88482958  1  1.557883  0  0.257258  0.676422  0  4.120502  0
C  C49  1  0.12595349  0.86788066  0.88638084  1  1.586883  0  0.265501  0.656257  0  4.109047  0
C  C50  1  0.13375074  0.87575263  0.10484119  1  1.559663  0  0.25991  0.673602  0  4.12472  0
O  O51  1  0.46915997  0.39853743  0.42526294  1  -1.244632  0  -0.231312  -0.569608  0  2.369331  0
O  O52  1  0.79637673  0.40113496  0.57488491  1  -1.263157  0  -0.243859  -0.613587  0  2.322834  0
O  O53  1  0.95942301  0.59318710  0.58448779  1  -1.256428  0  -0.238495  -0.595897  0  2.313584  0
O  O54  1  0.80643409  0.41489847  0.41199455  1  -1.247334  0  -0.228497  -0.564692  0  2.35309  0
O  O55  1  0.97159419  0.59786473  0.42271012  1  -1.262616  0  -0.238515  -0.599623  0  2.329293  0
O  O56  1  0.45702400  0.41372106  0.58606870  1  -1.25532  0  -0.245297  -0.608166  0  2.30211  0
O  O57  1  0.63287547  0.56308403  0.50116569  1  -1.423264  0  -0.447759  -0.989022  0  2.180339  0
O  O58  1  0.30844105  0.58049828  0.41117366  1  -1.250231  0  -0.237495  -0.588862  0  2.303544  0
O  O59  1  0.29911116  0.60284614  0.57421808  1  -1.255033  0  -0.236228  -0.598994  0  2.333998  0
O  O60  1  0.13080130  0.43874287  0.50138350  1  -1.429687  0  -0.447365  -0.990536  0  2.19926  0
O  O61  1  0.79884713  0.08834252  0.91689056  1  -1.261251  0  -0.242824  -0.610422  0  2.321996  0
O  O62  1  0.46835054  0.08772904  0.07090011  1  -1.260119  0  -0.238585  -0.594065  0  2.315083  0
O  O63  1  0.30443602  0.90450385  0.07917012  1  -1.252229  0  -0.236944  -0.589874  0  2.309465  0
O  O64  1  0.45806579  0.07887327  0.90912277  1  -1.2546  0  -0.243935  -0.608005  0  2.308085  0
O  O65  1  0.29650904  0.88932428  0.91642374  1  -1.253074  0  -0.239656  -0.59955  0  2.316445  0
O  O66  1  0.80707434  0.07964763  0.07970729  1  -1.258109  0  -0.236328  -0.594398  0  2.324796  0
O  O67  1  0.63087472  0.92774808  0.99228509  1  -1.435957  0  -0.446766  -0.984247  0  2.196211  0
O  O68  1  0.95563398  0.89740885  0.91074885  1  -1.249256  0  -0.235945  -0.592372  0  2.322549  0
O  O69  1  0.96485959  0.89503685  0.07327694  1  -1.254948  0  -0.237279  -0.594781  0  2.328532  0
O  O70  1  0.13207919  0.05143577  0.99258840  1  -1.428135  0  -0.447451  -0.99117  0  2.204755  0
F  F71  1  0.43978030  0.27837603  0.30428973  1  -0.620732  0  -0.08303  -0.106279  0  1.390737  0
F  F72  1  0.20517833  0.94497212  0.71148068  1  -0.629535  0  -0.123341  -0.166473  0  1.281623  0
F  F73  1  0.50268613  0.76409078  0.67972711  1  -0.638124  0  -0.114842  -0.167055  0  1.318756  0
