# generated using pymatgen
data_LiBH14C16O7
_symmetry_space_group_name_H-M   'P 1'
_cell_length_a   6.56389754
_cell_length_b   9.01604177
_cell_length_c   13.56323938
_cell_angle_alpha   90.00036777
_cell_angle_beta   94.38437360
_cell_angle_gamma   89.99982538
_symmetry_Int_Tables_number   1
_chemical_formula_structural   LiBH14C16O7
_chemical_formula_sum   'Li2 B2 H28 C32 O14'
_cell_volume   800.32865985
_cell_formula_units_Z   2
loop_
 _symmetry_equiv_pos_site_id
 _symmetry_equiv_pos_as_xyz
  1  'x, y, z'
loop_
 _atom_site_type_symbol
 _atom_site_label
 _atom_site_symmetry_multiplicity
 _atom_site_fract_x
 _atom_site_fract_y
 _atom_site_fract_z
 _atom_site_occupancy
 _atom_site_hle17_bader_spin_density
 _atom_site_hle17_ddec_charge
 _atom_site_hle17_ddec_spin_density
 _atom_site_hle17_ddec_sum_bond_order
 _atom_site_hle17_magmom
 _atom_site_hse06_10hf_bader_spin_density
 _atom_site_hse06_10hf_ddec_charge
 _atom_site_hse06_10hf_ddec_spin_density
 _atom_site_hse06_10hf_ddec_sum_bond_order
 _atom_site_hse06_10hf_magmom
 _atom_site_hse06_bader_spin_density
 _atom_site_hse06_ddec_charge
 _atom_site_hse06_ddec_spin_density
 _atom_site_hse06_ddec_sum_bond_order
 _atom_site_hse06_magmom
 _atom_site_pbe_bader_spin_density
 _atom_site_pbe_cm5_charge
 _atom_site_pbe_ddec_charge
 _atom_site_pbe_ddec_spin_density
 _atom_site_pbe_ddec_sum_bond_order
 _atom_site_pbe_magmom
Li  Li0  1  0.99693519  0.50705796  0.58587505  1  0  0.862273  0  0.368111  0  0  0.821257  0  0.472256  0  0  0.831036  0  0.455682  0  0  0.503852  0.814796  0  0.483023  0
Li  Li1  1  0.00305532  0.00705386  0.41412536  1  0  0.862274  0  0.368094  0  0  0.821257  0  0.472237  0  0  0.831037  0  0.455663  0  0  0.503851  0.814797  0  0.483001  0
B  B2  1  0.24321651  0.53586102  0.40984500  1  0  1.026514  0  2.895097  0  0  0.868034  0  3.240196  0  0  0.900154  0  3.21435  0  0  0.042746  0.844827  0  3.259639  0
B  B3  1  0.75677236  0.03585922  0.59015400  1  0  1.02656  0  2.894959  0  0  0.868079  0  3.240006  0  0  0.900199  0  3.214148  0  0  0.042766  0.844888  0  3.259423  0
H  H4  1  0.46082212  0.31743971  0.55872925  1  0  0.087885  0  0.912808  0  0  0.094194  0  0.975191  0  0  0.096244  0  0.97384  0  0  0.124433  0.092697  0  0.976237  0
H  H5  1  0.53917788  0.81743564  0.44126619  1  0  0.087911  0  0.912802  0  0  0.09423  0  0.975164  0  0  0.096293  0  0.973792  0  0  0.124441  0.092707  0  0.976254  0
H  H6  1  0.60595178  0.31771984  0.72067630  1  0  0.09522  0  0.962776  0  0  0.103635  0  1.02885  0  0  0.106101  0  1.028231  0  0  0.104226  0.101842  0  1.029347  0
H  H7  1  0.39403906  0.81772228  0.27931956  1  0  0.095258  0  0.962778  0  0  0.103649  0  1.028872  0  0  0.106112  0  1.028257  0  0  0.104202  0.101859  0  1.029372  0
H  H8  1  0.69525581  0.44527426  0.88078021  1  0  0.091024  0  0.961648  0  0  0.100721  0  1.021722  0  0  0.102648  0  1.022745  0  0  0.099813  0.099121  0  1.021581  0
H  H9  1  0.30474526  0.94527981  0.11921655  1  0  0.091034  0  0.961656  0  0  0.100739  0  1.021717  0  0  0.102626  0  1.022782  0  0  0.099831  0.09914  0  1.021573  0
H  H10  1  0.60023730  0.71115832  0.90065522  1  0  0.082932  0  0.968843  0  0  0.094954  0  1.029734  0  0  0.09709  0  1.029513  0  0  0.099286  0.093344  0  1.030068  0
H  H11  1  0.39977537  0.21116145  0.09934610  1  0  0.082914  0  0.968918  0  0  0.094979  0  1.02975  0  0  0.097116  0  1.029529  0  0  0.099295  0.093372  0  1.03008  0
H  H12  1  0.41760672  0.84688259  0.75975514  1  0  0.084966  0  0.956518  0  0  0.097586  0  1.014998  0  0  0.100191  0  1.013503  0  0  0.101117  0.09574  0  1.016032  0
H  H13  1  0.58240395  0.34688224  0.24024891  1  0  0.084982  0  0.956481  0  0  0.097589  0  1.014969  0  0  0.100179  0  1.013494  0  0  0.101116  0.095746  0  1.016005  0
H  H14  1  0.33912184  0.72036630  0.59969366  1  0  0.099453  0  0.953944  0  0  0.111123  0  1.014218  0  0  0.11384  0  1.01317  0  0  0.114409  0.109115  0  1.01511  0
H  H15  1  0.66088166  0.22036177  0.40030959  1  0  0.099479  0  0.953879  0  0  0.111131  0  1.014187  0  0  0.113849  0  1.013138  0  0  0.114438  0.109128  0  1.015069  0
H  H16  1  0.83091575  0.54274416  0.27883660  1  0  0.08388  0  0.899187  0  0  0.092263  0  0.958559  0  0  0.094468  0  0.956166  0  0  0.120697  0.090834  0  0.960188  0
H  H17  1  0.16907608  0.04274820  0.72115516  1  0  0.083821  0  0.89927  0  0  0.092289  0  0.958623  0  0  0.094502  0  0.956226  0  0  0.120663  0.09084  0  0.960268  0
H  H18  1  0.78295997  0.74562637  0.13940671  1  0  0.098638  0  0.946247  0  0  0.110195  0  1.004929  0  0  0.113398  0  1.003584  0  0  0.102884  0.107882  0  1.006033  0
H  H19  1  0.21704488  0.24562055  0.86058785  1  0  0.09858  0  0.946369  0  0  0.110175  0  1.005003  0  0  0.11337  0  1.003671  0  0  0.102887  0.10786  0  1.006114  0
H  H20  1  0.88383058  0.81261087  0.97223317  1  0  0.078145  0  0.991599  0  0  0.087754  0  1.055277  0  0  0.089668  0  1.055691  0  0  0.092898  0.086335  0  1.055205  0
H  H21  1  0.11619546  0.31260060  0.02776758  1  0  0.078193  0  0.99152  0  0  0.087732  0  1.055278  0  0  0.08965  0  1.055685  0  0  0.0929  0.086309  0  1.055211  0
H  H22  1  0.19804279  0.70615327  0.90928354  1  0  0.088258  0  0.967861  0  0  0.098686  0  1.028656  0  0  0.101486  0  1.027722  0  0  0.097017  0.096694  0  1.029353  0
H  H23  1  0.80198214  0.20614547  0.09072040  1  0  0.088231  0  0.96796  0  0  0.098672  0  1.028738  0  0  0.101472  0  1.027804  0  0  0.096991  0.096675  0  1.029441  0
H  H24  1  0.42315709  0.54230081  0.01827916  1  0  0.082384  0  0.957945  0  0  0.094426  0  1.016165  0  0  0.096941  0  1.015709  0  0  0.097019  0.092556  0  1.016699  0
H  H25  1  0.57685930  0.04229981  0.98172525  1  0  0.082338  0  0.958  0  0  0.094429  0  1.016178  0  0  0.096943  0  1.015723  0  0  0.096982  0.092556  0  1.016713  0
H  H26  1  0.32569711  0.48093888  0.18821294  1  0  0.093841  0  0.987823  0  0  0.098856  0  1.059856  0  0  0.102238  0  1.057749  0  0  0.09817  0.096426  0  1.06135  0
H  H27  1  0.67430541  0.98093807  0.81178918  1  0  0.093818  0  0.987892  0  0  0.098845  0  1.059908  0  0  0.10223  0  1.057797  0  0  0.098167  0.096407  0  1.061405  0
H  H28  1  0.93030361  0.77671446  0.67009525  1  0  0.43667  0  0.858042  0  0  0.405132  0  0.920554  0  0  0.415335  0  0.90555  0  0  0.301698  0.398497  0  0.930312  0
H  H29  1  0.06969202  0.27671052  0.32990650  1  0  0.43669  0  0.857999  0  0  0.405123  0  0.92056  0  0  0.415327  0  0.905556  0  0  0.301676  0.398488  0  0.930316  0
H  H30  1  0.87023935  0.63790778  0.73005853  1  0  0.40416  0  0.884456  0  0  0.381913  0  0.945008  0  0  0.388342  0  0.936033  0  0  0.300559  0.377347  0  0.951355  0
H  H31  1  0.12975987  0.13790092  0.26994496  1  0  0.404123  0  0.884507  0  0  0.381879  0  0.945048  0  0  0.388306  0  0.936076  0  0  0.300539  0.377312  0  0.951398  0
C  C32  1  0.57763248  0.49665308  0.47458543  1  0  0.64418  0  3.764208  0  0  0.592843  0  4.072143  0  0  0.623998  0  4.06368  0  0  0.265069  0.571872  0  4.07707  0
C  C33  1  0.42236230  0.99664674  0.52541281  1  0  0.643955  0  3.764143  0  0  0.592634  0  4.072082  0  0  0.62378  0  4.063623  0  0  0.264954  0.571663  0  4.077008  0
C  C34  1  0.43441769  0.43754562  0.54999360  1  0  0.064778  0  3.67391  0  0  0.038105  0  3.917  0  0  0.040446  0  3.923567  0  0  0.030973  0.03624  0  3.912789  0
C  C35  1  0.56557425  0.93754268  0.45000428  1  0  0.06493  0  3.673639  0  0  0.038197  0  3.916815  0  0  0.040543  0  3.923355  0  0  0.031032  0.036345  0  3.912617  0
C  C36  1  0.47394502  0.51230502  0.64921352  1  0  0.038936  0  3.759968  0  0  0.055331  0  3.997746  0  0  0.05471  0  4.020553  0  0  -0.000802  0.055774  0  3.982322  0
C  C37  1  0.52605158  0.01230364  0.35078565  1  0  0.038939  0  3.759909  0  0  0.055377  0  3.997654  0  0  0.054752  0  4.020463  0  0  -0.000769  0.055821  0  3.982228  0
C  C38  1  0.56958804  0.43463929  0.72911443  1  0  -0.101989  0  3.73657  0  0  -0.124248  0  3.983591  0  0  -0.125494  0  4.003551  0  0  -0.079411  -0.1231  0  3.969747  0
C  C39  1  0.43040697  0.93464048  0.27088355  1  0  -0.102031  0  3.736714  0  0  -0.124274  0  3.983734  0  0  -0.12552  0  4.003694  0  0  -0.079394  -0.123131  0  3.969897  0
C  C40  1  0.61720289  0.50606681  0.81938866  1  0  -0.087226  0  3.790298  0  0  -0.091581  0  4.026661  0  0  -0.093922  0  4.048259  0  0  -0.0896  -0.090123  0  4.012079  0
C  C41  1  0.38279677  0.00606964  0.18060986  1  0  -0.087238  0  3.790444  0  0  -0.091608  0  4.026837  0  0  -0.093913  0  4.048442  0  0  -0.089597  -0.090146  0  4.01225  0
C  C42  1  0.56401443  0.65514009  0.83032082  1  0  -0.094611  0  3.801675  0  0  -0.106889  0  4.044916  0  0  -0.10914  0  4.066836  0  0  -0.092828  -0.10501  0  4.029886  0
C  C43  1  0.43599387  0.15514271  0.16968010  1  0  -0.094642  0  3.801852  0  0  -0.10696  0  4.045093  0  0  -0.109207  0  4.066993  0  0  -0.0929  -0.105078  0  4.030056  0
C  C44  1  0.46278555  0.73149927  0.75135180  1  0  -0.063766  0  3.777257  0  0  -0.077043  0  4.030111  0  0  -0.078622  0  4.05047  0  0  -0.086657  -0.076141  0  4.016457  0
C  C45  1  0.53722249  0.23149799  0.24865166  1  0  -0.063748  0  3.777375  0  0  -0.077002  0  4.030217  0  0  -0.078572  0  4.05058  0  0  -0.086642  -0.076101  0  4.01656  0
C  C46  1  0.41956647  0.66086590  0.66090580  1  0  -0.091684  0  3.717766  0  0  -0.1155  0  3.967756  0  0  -0.11665  0  3.987284  0  0  -0.076797  -0.114791  0  3.954665  0
C  C47  1  0.58043417  0.16086428  0.33909489  1  0  -0.091735  0  3.717785  0  0  -0.115552  0  3.967769  0  0  -0.116702  0  3.987295  0  0  -0.076837  -0.114843  0  3.954674  0
C  C48  1  0.02496771  0.71674740  0.34018357  1  0  0.64435  0  3.78132  0  0  0.590855  0  4.091001  0  0  0.622808  0  4.081112  0  0  0.265658  0.568987  0  4.097474  0
C  C49  1  0.97501439  0.21674912  0.65981672  1  0  0.644317  0  3.781486  0  0  0.590792  0  4.091286  0  0  0.622754  0  4.081394  0  0  0.265489  0.56892  0  4.097755  0
C  C50  1  0.99277422  0.57530151  0.27812232  1  0  0.067523  0  3.673212  0  0  0.037443  0  3.917135  0  0  0.04027  0  3.923548  0  0  0.028495  0.03553  0  3.912455  0
C  C51  1  0.00721754  0.07530257  0.72187475  1  0  0.067611  0  3.67324  0  0  0.037299  0  3.917583  0  0  0.040105  0  3.924001  0  0  0.028614  0.035401  0  3.91289  0
C  C52  1  0.04753125  0.60656629  0.17342094  1  0  0.041201  0  3.747042  0  0  0.058593  0  3.982649  0  0  0.057233  0  4.007969  0  0  -0.014739  0.05952  0  3.965509  0
C  C53  1  0.95247109  0.10656412  0.82657663  1  0  0.041023  0  3.747077  0  0  0.05844  0  3.982798  0  0  0.057087  0  4.008113  0  0  -0.014838  0.059372  0  3.965644  0
C  C54  1  0.92195851  0.69958371  0.11231357  1  0  -0.114944  0  3.747537  0  0  -0.135567  0  3.991732  0  0  -0.138042  0  4.012926  0  0  -0.092032  -0.133912  0  3.977763  0
C  C55  1  0.07804806  0.19957845  0.88768380  1  0  -0.114867  0  3.74795  0  0  -0.135507  0  3.992082  0  0  -0.137979  0  4.013287  0  0  -0.092047  -0.133857  0  3.978114  0
C  C56  1  0.97831592  0.73668485  0.01836698  1  0  -0.070661  0  3.795531  0  0  -0.080401  0  4.041646  0  0  -0.082234  0  4.063695  0  0  -0.09496  -0.079139  0  4.027093  0
C  C57  1  0.02170427  0.23667617  0.98163176  1  0  -0.070682  0  3.795601  0  0  -0.080369  0  4.041719  0  0  -0.082204  0  4.063768  0  0  -0.094917  -0.079104  0  4.027166  0
C  C58  1  0.15743175  0.67947456  0.98367311  1  0  -0.078446  0  3.7798  0  0  -0.093719  0  4.025984  0  0  -0.09545  0  4.047139  0  0  -0.096458  -0.092493  0  4.011629  0
C  C59  1  0.84258565  0.17946818  0.01633045  1  0  -0.078405  0  3.779708  0  0  -0.093689  0  4.025884  0  0  -0.09542  0  4.047041  0  0  -0.096438  -0.092459  0  4.011533  0
C  C60  1  0.28289771  0.58731862  0.04467379  1  0  -0.079867  0  3.805774  0  0  -0.089877  0  4.05364  0  0  -0.092357  0  4.075893  0  0  -0.096391  -0.087895  0  4.038287  0
C  C61  1  0.71711390  0.08731486  0.95532770  1  0  -0.079893  0  3.805701  0  0  -0.089954  0  4.053596  0  0  -0.092435  0  4.07585  0  0  -0.096382  -0.087977  0  4.038245  0
C  C62  1  0.22890974  0.55197879  0.13960143  1  0  -0.118365  0  3.754377  0  0  -0.139834  0  4.003886  0  0  -0.142063  0  4.024747  0  0  -0.098766  -0.138181  0  3.989722  0
C  C63  1  0.77109436  0.05197733  0.86039965  1  0  -0.118195  0  3.754336  0  0  -0.139664  0  4.003833  0  0  -0.141897  0  4.024691  0  0  -0.098715  -0.138001  0  3.989665  0
O  O64  1  0.95331921  0.66843968  0.67700714  1  0  -0.88956  0  1.789018  0  0  -0.847933  0  1.951822  0  0  -0.863535  0  1.925976  0  0  -0.646996  -0.836947  0  1.968769  0
O  O65  1  0.04668143  0.16843461  0.32299726  1  0  -0.889528  0  1.78902  0  0  -0.847894  0  1.951853  0  0  -0.863492  0  1.92601  0  0  -0.646959  -0.836909  0  1.968799  0
O  O66  1  0.76492613  0.50329443  0.48519884  1  0  -0.589532  0  1.9679  0  0  -0.557041  0  2.207014  0  0  -0.575286  0  2.195583  0  0  -0.325349  -0.545028  0  2.214726  0
O  O67  1  0.23505978  0.00328525  0.51479771  1  0  -0.589471  0  1.967845  0  0  -0.55697  0  2.206913  0  0  -0.575218  0  2.195488  0  0  -0.325311  -0.544953  0  2.214621  0
O  O68  1  0.46861335  0.54209515  0.39384690  1  0  -0.549785  0  2.142848  0  0  -0.477068  0  2.388912  0  0  -0.500487  0  2.379241  0  0  -0.162831  -0.460475  0  2.394451  0
O  O69  1  0.53137090  0.04208954  0.60615124  1  0  -0.549704  0  2.142749  0  0  -0.47698  0  2.38881  0  0  -0.500389  0  2.379136  0  0  -0.162795  -0.460393  0  2.394346  0
O  O70  1  0.23367549  0.46393636  0.50513040  1  0  -0.637525  0  2.202497  0  0  -0.564216  0  2.448746  0  0  -0.580053  0  2.438025  0  0  -0.265176  -0.552902  0  2.455938  0
O  O71  1  0.76631484  0.96393564  0.49486828  1  0  -0.637615  0  2.202324  0  0  -0.564295  0  2.448598  0  0  -0.580139  0  2.437878  0  0  -0.265226  -0.552988  0  2.455794  0
O  O72  1  0.94032450  0.83662711  0.32394633  1  0  -0.582502  0  1.979543  0  0  -0.54554  0  2.211009  0  0  -0.565872  0  2.203266  0  0  -0.322113  -0.531749  0  2.215422  0
O  O73  1  0.05965714  0.33662872  0.67605298  1  0  -0.582486  0  1.97954  0  0  -0.545497  0  2.211015  0  0  -0.565832  0  2.203267  0  0  -0.322062  -0.531708  0  2.215429  0
O  O74  1  0.16719783  0.69297219  0.41296536  1  0  -0.568035  0  2.204482  0  0  -0.494822  0  2.454506  0  0  -0.517688  0  2.443873  0  0  -0.147427  -0.478769  0  2.461514  0
O  O75  1  0.83278284  0.19297463  0.58703624  1  0  -0.568055  0  2.204639  0  0  -0.494729  0  2.454582  0  0  -0.517598  0  2.443949  0  0  -0.147301  -0.478678  0  2.461585  0
O  O76  1  0.12026436  0.46777213  0.32847200  1  0  -0.578748  0  2.220059  0  0  -0.492643  0  2.451331  0  0  -0.511774  0  2.443705  0  0  -0.201664  -0.479336  0  2.455968  0
O  O77  1  0.87972746  0.96777286  0.67152527  1  0  -0.578649  0  2.219971  0  0  -0.492569  0  2.451396  0  0  -0.511692  0  2.443774  0  0  -0.201725  -0.47927  0  2.456024  0
