# generated using pymatgen
data_MnH28C22(N2O3)2
_symmetry_space_group_name_H-M   'P 1'
_cell_length_a   5.40314256
_cell_length_b   20.97493731
_cell_length_c   21.08052512
_cell_angle_alpha   95.33896350
_cell_angle_beta   89.99991538
_cell_angle_gamma   90.00013707
_symmetry_Int_Tables_number   1
_chemical_formula_structural   MnH28C22(N2O3)2
_chemical_formula_sum   'Mn4 H112 C88 N16 O24'
_cell_volume   2378.70345709
_cell_formula_units_Z   4
loop_
 _symmetry_equiv_pos_site_id
 _symmetry_equiv_pos_as_xyz
  1  'x, y, z'
loop_
 _atom_site_type_symbol
 _atom_site_label
 _atom_site_symmetry_multiplicity
 _atom_site_fract_x
 _atom_site_fract_y
 _atom_site_fract_z
 _atom_site_occupancy
 _atom_site_pbe_bader_charge
 _atom_site_pbe_bader_spin_density
 _atom_site_pbe_cm5_charge
 _atom_site_pbe_ddec_charge
 _atom_site_pbe_ddec_spin_density
 _atom_site_pbe_ddec_sum_bond_order
 _atom_site_pbe_magmom
Mn  Mn0  1  0.17112791  0.78737219  0.21657126  1  1.487663  4.585999  0.579416  0.928312  4.706865  2.287307  4.505
Mn  Mn1  1  0.67110448  0.71262687  0.78342838  1  1.48766  4.585995  0.579417  0.928364  4.706782  2.28725  4.505
Mn  Mn2  1  0.82889409  0.21262775  0.78342324  1  1.487595  4.586021  0.579388  0.928296  4.706741  2.287276  4.505
Mn  Mn3  1  0.32892122  0.28736520  0.21657903  1  1.487569  4.586026  0.579355  0.928265  4.706639  2.287305  4.505
H  H4  1  0.74406922  0.95570453  0.22911439  1  0.056588  0.000336  0.098947  0.081868  -7e-05  1.020836  0.0
H  H5  1  0.24407085  0.54429321  0.77088076  1  0.056322  0.000337  0.098946  0.081859  -7e-05  1.020756  0.0
H  H6  1  0.25592872  0.04429153  0.77088302  1  0.05635  0.000336  0.098956  0.081863  -7e-05  1.020861  0.0
H  H7  1  0.75595300  0.45570712  0.22911995  1  0.056338  0.000337  0.098912  0.081854  -7e-05  1.020882  0.0
H  H8  1  0.41470921  0.05426678  0.17265846  1  0.017843  4.4e-05  0.087641  0.079019  -3.6e-05  1.009982  0.0
H  H9  1  0.91469328  0.44573204  0.82733961  1  0.017812  4.4e-05  0.087635  0.079045  -3.6e-05  1.009908  0.0
H  H10  1  0.58530354  0.94573207  0.82734446  1  0.017784  4.4e-05  0.087663  0.07906  -3.6e-05  1.009892  0.0
H  H11  1  0.08531392  0.55426835  0.17265636  1  0.017795  4.4e-05  0.087692  0.079022  -3.6e-05  1.009797  0.0
H  H12  1  0.64910032  0.00754158  0.13109223  1  0.008752  0.000165  0.085111  0.080454  8.5e-05  1.006009  0.0
H  H13  1  0.14907243  0.49245903  0.86890299  1  0.0094  0.000165  0.085125  0.080449  8.5e-05  1.005965  0.0
H  H14  1  0.35091613  0.99245877  0.86890658  1  0.009358  0.000165  0.085076  0.080389  8.5e-05  1.00609  0.0
H  H15  1  0.85092181  0.50753797  0.13109546  1  0.00972  0.000165  0.085139  0.080408  8.5e-05  1.006085  0.0
H  H16  1  0.81115465  0.11678530  0.16841906  1  0.028457  0.000208  0.084489  0.079406  -0.000203  1.013973  0.0
H  H17  1  0.31113689  0.38321585  0.83157890  1  0.028589  0.000208  0.084471  0.079409  -0.000203  1.013917  0.0
H  H18  1  0.18884329  0.88321695  0.83158091  1  0.028523  0.000208  0.084504  0.079467  -0.000203  1.013902  0.0
H  H19  1  0.68886661  0.61678260  0.16841876  1  0.028623  0.000208  0.084478  0.079442  -0.000203  1.013882  0.0
H  H20  1  0.97230700  0.05441693  0.20166505  1  0.056383  9.7e-05  0.089981  0.093788  3.4e-05  1.017836  0.0
H  H21  1  0.47229142  0.44558193  0.79833345  1  0.056492  9.7e-05  0.090016  0.09383  3.4e-05  1.017877  0.0
H  H22  1  0.02770760  0.94558487  0.79833345  1  0.056411  9.7e-05  0.090012  0.093869  3.4e-05  1.017869  0.0
H  H23  1  0.52771948  0.55441502  0.20166880  1  0.056498  9.7e-05  0.089988  0.093812  3.4e-05  1.017955  0.0
H  H24  1  0.90622001  0.13640835  0.28535073  1  0.0642  0.000805  0.103244  0.089797  0.000243  1.016992  0.0
H  H25  1  0.40619607  0.36358708  0.71464936  1  0.064249  0.000804  0.103275  0.089768  0.000243  1.016868  0.0
H  H26  1  0.09379459  0.86358861  0.71465057  1  0.064255  0.000804  0.103261  0.089753  0.000242  1.016909  0.0
H  H27  1  0.59381483  0.63641134  0.28535019  1  0.064343  0.000804  0.103263  0.089775  0.000243  1.016946  0.0
H  H28  1  0.86601716  0.03341927  0.32056104  1  0.021551  0.000287  0.084277  0.076304  0.00015  1.001834  0.0
H  H29  1  0.36600867  0.46657380  0.67943505  1  0.021685  0.000287  0.084287  0.076374  0.00015  1.001753  0.0
H  H30  1  0.13399744  0.96657678  0.67943684  1  0.021705  0.000287  0.0843  0.076362  0.00015  1.001782  0.0
H  H31  1  0.63401519  0.53342412  0.32056588  1  0.021824  0.000287  0.084304  0.07644  0.00015  1.001864  0.0
H  H32  1  0.64090955  0.08272462  0.36161956  1  -0.014039  0.000175  0.077871  0.063907  8.1e-05  1.048951  0.0
H  H33  1  0.14090421  0.41727065  0.63838031  1  -0.014135  0.000175  0.07788  0.063921  8.1e-05  1.048936  0.0
H  H34  1  0.35909950  0.91727281  0.63838226  1  -0.014072  0.000175  0.077879  0.063902  8.1e-05  1.04901  0.0
H  H35  1  0.85912334  0.58273018  0.36161903  1  -0.014174  0.000175  0.077833  0.063884  8.1e-05  1.048998  0.0
H  H36  1  0.47095065  0.97416772  0.32472276  1  -0.024184  9.3e-05  0.079529  0.06904  -3e-05  1.022383  0.0
H  H37  1  0.97094202  0.52582919  0.67527254  1  -0.024012  9.3e-05  0.079525  0.06898  -3e-05  1.022392  0.0
H  H38  1  0.52906765  0.02582928  0.67527569  1  -0.024082  9.3e-05  0.079506  0.068951  -3e-05  1.022485  0.0
H  H39  1  0.02908923  0.47417309  0.32472553  1  -0.024219  9.3e-05  0.079583  0.069094  -3e-05  1.022387  0.0
H  H40  1  0.31233007  0.03493632  0.28808399  1  0.040519  2.5e-05  0.089678  0.091147  -3.3e-05  1.011266  0.0
H  H41  1  0.81231751  0.46505915  0.71190909  1  0.044953  2.5e-05  0.08966  0.091072  -3.3e-05  1.011276  0.0
H  H42  1  0.68767898  0.96505926  0.71191289  1  0.044936  2.5e-05  0.089678  0.091094  -3.3e-05  1.011254  0.0
H  H43  1  0.18770079  0.53494268  0.28808704  1  0.045253  2.5e-05  0.089724  0.091149  -3.3e-05  1.011235  0.0
H  H44  1  0.70130320  0.87750123  0.29314860  1  0.143498  0.000504  0.121574  0.11225  -0.000246  1.051957  0.0
H  H45  1  0.20127000  0.62249834  0.70684963  1  0.14369  0.000504  0.121541  0.112094  -0.000246  1.052144  0.0
H  H46  1  0.29869844  0.12249144  0.70685081  1  0.143426  0.000504  0.121556  0.112152  -0.000246  1.05205  0.0
H  H47  1  0.79870944  0.37751288  0.29315936  1  0.143873  0.000504  0.121604  0.112288  -0.000246  1.051962  0.0
H  H48  1  0.73549857  0.92691769  0.42036799  1  0.130239  0.000637  0.109438  0.10457  0.000384  1.086488  0.0
H  H49  1  0.23547372  0.57308142  0.57963064  1  0.130161  0.000637  0.109382  0.104433  0.000384  1.086675  0.0
H  H50  1  0.26450123  0.07307929  0.57963141  1  0.130192  0.000636  0.109404  0.104529  0.000384  1.086594  0.0
H  H51  1  0.76447795  0.42693269  0.42037820  1  0.129948  0.000636  0.109459  0.104624  0.000384  1.086511  0.0
H  H52  1  0.37734166  0.81809669  0.36744017  1  0.169309  0.000319  0.133156  0.10281  -0.000198  1.024885  0.0
H  H53  1  0.87732109  0.68189765  0.63256302  1  0.169421  0.000318  0.133092  0.102772  -0.000199  1.025047  0.0
H  H54  1  0.62265813  0.18189693  0.63255982  1  0.169255  0.000319  0.133115  0.102772  -0.000198  1.024949  0.0
H  H55  1  0.12266760  0.31810212  0.36744238  1  0.169301  0.000319  0.133122  0.102788  -0.000198  1.024991  0.0
H  H56  1  0.27631747  0.84555255  0.49030346  1  0.077341  0.000117  0.120981  0.106158  3.9e-05  0.951381  0.0
H  H57  1  0.77629064  0.65444663  0.50969228  1  0.077481  0.000117  0.120957  0.106122  3.9e-05  0.951554  0.0
H  H58  1  0.72366936  0.15444403  0.50969115  1  0.077315  0.000117  0.120919  0.10609  3.9e-05  0.951486  0.0
H  H59  1  0.22363512  0.34555947  0.49030715  1  0.077396  0.000117  0.120958  0.106214  3.9e-05  0.951386  0.0
H  H60  1  0.01614874  0.89449714  0.50984881  1  0.075115  0.000179  0.117528  0.106075  0.000117  0.977957  0.0
H  H61  1  0.51610479  0.60550035  0.49015271  1  0.074742  0.000179  0.117589  0.106159  0.000117  0.977926  0.0
H  H62  1  0.98384736  0.10549749  0.49014796  1  0.075571  0.000179  0.117536  0.106128  0.000117  0.977871  0.0
H  H63  1  0.48381542  0.39450079  0.50985710  1  0.075205  0.000179  0.117502  0.106122  0.000117  0.977928  0.0
H  H64  1  0.15983747  0.00171261  0.42061054  1  0.079238  9.1e-05  0.108555  0.111932  4.8e-05  1.009644  0.0
H  H65  1  0.65978762  0.49828650  0.57938972  1  0.079023  9.1e-05  0.108606  0.112029  4.8e-05  1.009613  0.0
H  H66  1  0.84017158  0.99827914  0.57938639  1  0.079228  9.1e-05  0.108558  0.111986  4.8e-05  1.009643  0.0
H  H67  1  0.34015295  0.50172330  0.42061865  1  0.079459  9.1e-05  0.108604  0.111932  4.8e-05  1.009648  0.0
H  H68  1  0.42940322  0.09629672  0.44249334  1  0.07518  3.7e-05  0.109434  0.112073  8e-06  0.997606  0.0
H  H69  1  0.92938217  0.40370630  0.55751324  1  0.075152  3.7e-05  0.109416  0.112054  8e-06  0.997566  0.0
H  H70  1  0.57059472  0.90369454  0.55750402  1  0.075367  3.7e-05  0.1094  0.112055  8e-06  0.997452  0.0
H  H71  1  0.07057505  0.59630819  0.44250180  1  0.075358  3.7e-05  0.109382  0.112015  8e-06  0.99762  0.0
H  H72  1  0.61401029  0.69552237  0.99321360  1  0.117467  0.000773  0.121477  0.124919  0.000329  1.020159  0.0
H  H73  1  0.11401449  0.80447917  0.00677829  1  0.11771  0.000773  0.121421  0.124836  0.000329  1.020368  0.0
H  H74  1  0.38596729  0.30447423  0.00678006  1  0.117633  0.000773  0.121472  0.12494  0.000328  1.020244  0.0
H  H75  1  0.88598530  0.19552210  0.99322347  1  0.117854  0.000773  0.121442  0.124891  0.000329  1.020324  0.0
H  H76  1  0.64172230  0.77761904  0.10474709  1  0.140686  0.000695  0.11763  0.11763  -8.2e-05  1.047274  0.0
H  H77  1  0.14170357  0.72238203  0.89524520  1  0.1407  0.000695  0.117601  0.117539  -8.2e-05  1.047357  0.0
H  H78  1  0.35827564  0.22237464  0.89524910  1  0.140515  0.000695  0.117574  0.117485  -8.2e-05  1.04738  0.0
H  H79  1  0.85828512  0.27761973  0.10475567  1  0.140724  0.000695  0.117619  0.117573  -8.2e-05  1.047295  0.0
H  H80  1  0.99080948  0.66725645  0.10953209  1  0.158276  0.000278  0.136029  0.100649  -4.3e-05  1.023116  0.0
H  H81  1  0.49078602  0.83274228  0.89047050  1  0.15824  0.000278  0.13603  0.100639  -4.3e-05  1.023159  0.0
H  H82  1  0.00918476  0.33273767  0.89046652  1  0.158209  0.000279  0.136035  0.100693  -4.3e-05  1.023202  0.0
H  H83  1  0.50921563  0.16726189  0.10952968  1  0.158189  0.000279  0.13604  0.100628  -4.3e-05  1.023158  0.0
H  H84  1  0.20883648  0.63049817  0.94388184  1  0.088944  0.000873  0.114338  0.104542  0.000379  0.99759  0.0
H  H85  1  0.70886681  0.86950764  0.05611659  1  0.088712  0.000873  0.114315  0.104536  0.000379  0.997385  0.0
H  H86  1  0.79112445  0.36949976  0.05611814  1  0.088696  0.000872  0.114279  0.104481  0.000379  0.99737  0.0
H  H87  1  0.29117925  0.13050323  0.94388431  1  0.08881  0.000872  0.114326  0.104476  0.000379  0.997619  0.0
H  H88  1  0.00129414  0.60460348  0.00186313  1  0.077706  9.6e-05  0.11292  0.095635  2.1e-05  0.999973  0.0
H  H89  1  0.50131738  0.89540554  0.99813680  1  0.07772  9.6e-05  0.112944  0.095645  2.1e-05  1.000146  0.0
H  H90  1  0.99867419  0.39539935  0.99813073  1  0.077853  9.6e-05  0.112908  0.095583  2.1e-05  1.000244  0.0
H  H91  1  0.49871017  0.10460622  0.00186846  1  0.077651  9.6e-05  0.112958  0.095713  2.1e-05  1.000026  0.0
H  H92  1  0.13767755  0.51931919  0.07131562  1  0.093324  2.4e-05  0.099154  0.093825  -4e-06  1.057157  0.0
H  H93  1  0.63771596  0.98068426  0.92867741  1  0.093727  2.4e-05  0.099146  0.093806  -4e-06  1.057181  0.0
H  H94  1  0.86227042  0.48067792  0.92867526  1  0.093759  2.4e-05  0.099079  0.093769  -4e-06  1.057139  0.0
H  H95  1  0.36231159  0.01932238  0.07131781  1  0.093598  2.4e-05  0.099125  0.093838  -4e-06  1.05715  0.0
H  H96  1  0.39987462  0.42447730  0.08018651  1  0.091495  0.000274  0.103901  0.110251  -1.1e-05  1.036036  0.0
H  H97  1  0.89993028  0.07552199  0.91981210  1  0.091527  0.000274  0.10389  0.110282  -1.1e-05  1.036186  0.0
H  H98  1  0.60007520  0.57551875  0.91981184  1  0.091555  0.000274  0.103892  0.110297  -1e-05  1.036228  0.0
H  H99  1  0.10010838  0.92448025  0.08018881  1  0.091531  0.000274  0.10387  0.110211  -1.1e-05  1.036172  0.0
H  H100  1  0.98937794  0.88517696  0.17271738  1  0.643268  0.000688  0.281085  0.356819  0.001257  1.008332  0.001
H  H101  1  0.48938218  0.61482667  0.82727862  1  0.643337  0.000689  0.281066  0.356836  0.001258  1.008304  0.001
H  H102  1  0.01063851  0.11482139  0.82728738  1  0.643282  0.000688  0.281032  0.356784  0.001257  1.008373  0.001
H  H103  1  0.51064908  0.38517600  0.17272566  1  0.641574  0.000697  0.281067  0.356817  0.001257  1.008338  0.001
H  H104  1  0.36292356  0.71086375  0.28720375  1  0.642383  0.000561  0.28005  0.360517  0.001347  1.000409  0.001
H  H105  1  0.86290412  0.78913700  0.71278685  1  0.642242  0.000561  0.280055  0.360453  0.001347  1.00046  0.001
H  H106  1  0.63711140  0.28912852  0.71279040  1  0.642359  0.000562  0.280064  0.360533  0.001349  1.00038  0.001
H  H107  1  0.13712899  0.21086434  0.28721017  1  0.642154  0.000563  0.28004  0.360421  0.001349  1.000504  0.001
H  H108  1  0.72796885  0.85105299  0.18391579  1  0.625555  0.002018  0.287532  0.376725  0.000836  0.971025  0.003
H  H109  1  0.22795479  0.64894331  0.81607827  1  0.625456  0.00202  0.287576  0.376796  0.000838  0.970923  0.003
H  H110  1  0.27205686  0.14894018  0.81608225  1  0.627654  0.002014  0.287575  0.376861  0.000836  0.970877  0.003
H  H111  1  0.77207461  0.35106027  0.18392848  1  0.625219  0.002019  0.287532  0.376763  0.000836  0.970997  0.003
H  H112  1  0.62024975  0.73294762  0.25483400  1  0.650102  0.001943  0.291432  0.380553  0.000843  0.959859  0.003
H  H113  1  0.12021779  0.76705480  0.74516320  1  0.650323  0.00194  0.291494  0.380675  0.000841  0.959686  0.003
H  H114  1  0.37977781  0.26704841  0.74516483  1  0.650269  0.001943  0.2915  0.380632  0.000844  0.95975  0.003
H  H115  1  0.87981346  0.23295180  0.25483486  1  0.650555  0.001941  0.29158  0.380674  0.000843  0.959671  0.003
C  C116  1  0.37285732  0.92843566  0.20335363  1  1.522143  0.007263  0.218642  0.594214  0.006662  4.1155  0.006
C  C117  1  0.87284953  0.57156251  0.79664950  1  1.522104  0.007267  0.218429  0.593957  0.006666  4.115559  0.006
C  C118  1  0.62714803  0.07156407  0.79665413  1  1.522069  0.007264  0.218515  0.594273  0.006662  4.115099  0.006
C  C119  1  0.12715397  0.42843347  0.20335312  1  1.522065  0.00726  0.218583  0.594238  0.006658  4.11511  0.006
C  C120  1  0.56369279  0.97916986  0.22486556  1  -0.01188  0.002139  -0.097195  -0.129113  0.001574  3.877834  0.001
C  C121  1  0.06368315  0.52083208  0.77512975  1  -0.011602  0.002138  -0.097106  -0.129023  0.001574  3.8776  0.001
C  C122  1  0.43631070  0.02083241  0.77513346  1  -0.011473  0.002138  -0.097206  -0.129269  0.001574  3.877582  0.001
C  C123  1  0.93633145  0.47916827  0.22486953  1  -0.011742  0.002138  -0.097076  -0.12921  0.001574  3.877802  0.001
C  C124  1  0.59453967  0.03052731  0.17808997  1  -0.002655  0.000254  -0.165674  -0.149458  0.000188  3.903576  0.0
C  C125  1  0.09453177  0.46947039  0.82190594  1  -0.003083  0.000254  -0.165644  -0.149394  0.000188  3.903401  0.0
C  C126  1  0.40546753  0.96947112  0.82190911  1  -0.003206  0.000254  -0.165611  -0.149286  0.000188  3.903371  0.0
C  C127  1  0.90547543  0.53052713  0.17808972  1  -0.003446  0.000254  -0.165654  -0.149167  0.000188  3.903288  0.0
C  C128  1  0.79295221  0.07925953  0.20125251  1  -0.04632  0.000433  -0.167699  -0.159615  0.000139  3.902277  0.0
C  C129  1  0.29294015  0.42073973  0.79874383  1  -0.046411  0.000433  -0.167689  -0.159701  0.000138  3.902467  0.0
C  C130  1  0.20705129  0.92074131  0.79874588  1  -0.04643  0.000433  -0.167733  -0.159863  0.000138  3.902471  0.0
C  C131  1  0.70706705  0.57925490  0.20125294  1  -0.046512  0.000433  -0.167771  -0.159827  0.000138  3.902633  0.0
C  C132  1  0.73824726  0.11034951  0.26888827  1  0.003276  0.002894  -0.095681  -0.124794  0.002137  3.864399  0.002
C  C133  1  0.23822359  0.38964726  0.73111119  1  0.003092  0.002894  -0.095772  -0.12468  0.002137  3.864354  0.002
C  C134  1  0.26176919  0.88964985  0.73111234  1  0.003093  0.002895  -0.095783  -0.124743  0.002137  3.864331  0.002
C  C135  1  0.76178731  0.61035167  0.26888699  1  0.003058  0.002895  -0.095759  -0.124727  0.002137  3.864368  0.002
C  C136  1  0.69072297  0.05926588  0.31472704  1  0.010274  0.000982  -0.169934  -0.149614  0.0008  3.943801  0.001
C  C137  1  0.19071615  0.44072991  0.68527236  1  0.01029  0.000982  -0.169984  -0.149796  0.0008  3.943754  0.001
C  C138  1  0.30928608  0.94073302  0.68527304  1  0.010162  0.000982  -0.169954  -0.149669  0.0008  3.943864  0.001
C  C139  1  0.80929845  0.55926947  0.31472730  1  0.009852  0.000982  -0.169887  -0.149801  0.0008  3.94391  0.001
C  C140  1  0.49227156  0.01092748  0.29108688  1  0.005791  0.00094  -0.167608  -0.159515  0.000699  3.914406  0.001
C  C141  1  0.99226658  0.48906998  0.70890954  1  0.001052  0.000941  -0.167603  -0.15936  0.000699  3.914249  0.001
C  C142  1  0.50773009  0.98907048  0.70891167  1  0.001229  0.00094  -0.167568  -0.159292  0.000699  3.9143  0.001
C  C143  1  0.00775172  0.51092848  0.29108764  1  0.001515  0.00094  -0.167763  -0.159525  0.000699  3.914492  0.001
C  C144  1  0.53395893  0.16107004  0.26850988  1  1.528447  0.005889  0.217977  0.602774  0.005643  4.096295  0.005
C  C145  1  0.03392377  0.33892751  0.73149272  1  1.528705  0.005885  0.217924  0.602613  0.005641  4.096384  0.005
C  C146  1  0.46606307  0.83892980  0.73149077  1  1.528784  0.005883  0.217839  0.602637  0.005638  4.09639  0.005
C  C147  1  0.96608713  0.66107050  0.26850252  1  1.528738  0.005884  0.217966  0.60272  0.00564  4.0964  0.005
C  C148  1  0.84889144  0.87339683  0.32738195  1  0.347252  0.004227  0.005116  -0.01743  0.002808  3.992146  0.003
C  C149  1  0.34885443  0.62660091  0.67261736  1  0.347147  0.004229  0.004992  -0.017453  0.002808  3.99191  0.003
C  C150  1  0.15111760  0.12660115  0.67261519  1  0.347666  0.004229  0.005071  -0.017392  0.002809  3.991817  0.003
C  C151  1  0.65111390  0.37340695  0.32739270  1  0.347337  0.004228  0.004826  -0.017696  0.002807  3.992047  0.003
C  C152  1  0.86061632  0.89732687  0.39024305  1  0.314692  0.001162  -0.015457  -0.139954  0.000731  3.951216  0.0
C  C153  1  0.36058072  0.60267336  0.60975035  1  0.314443  0.001162  -0.015215  -0.13948  0.000731  3.950793  0.0
C  C154  1  0.13938532  0.10266876  0.60975051  1  0.314574  0.001162  -0.015377  -0.139899  0.000731  3.951105  0.0
C  C155  1  0.63937095  0.39733936  0.39025549  1  0.314546  0.001162  -0.015315  -0.139913  0.000732  3.951151  0.0
C  C156  1  0.19844030  0.84100424  0.36394784  1  0.938685  0.006778  0.142627  0.093289  0.005193  3.900269  0.005
C  C157  1  0.69841771  0.65899389  0.63605072  1  0.937858  0.00678  0.142643  0.093504  0.005193  3.900545  0.005
C  C158  1  0.80155950  0.15899324  0.63605067  1  0.938749  0.006779  0.142615  0.093294  0.005194  3.90059  0.005
C  C159  1  0.30156357  0.34100831  0.36395256  1  0.938776  0.006775  0.142658  0.093398  0.00519  3.900276  0.005
C  C160  1  0.17705686  0.88835456  0.47788744  1  0.310876  0.00106  -0.039316  -0.105582  0.00097  3.913867  0.001
C  C161  1  0.67702790  0.61164304  0.52211345  1  0.311058  0.00106  -0.039398  -0.105641  0.00097  3.914181  0.001
C  C162  1  0.82292443  0.11163905  0.52211349  1  0.310786  0.00106  -0.039208  -0.105527  0.00097  3.913688  0.001
C  C163  1  0.32290342  0.38836540  0.47788955  1  0.3109  0.00106  -0.039169  -0.105768  0.00097  3.914007  0.001
C  C164  1  0.34428570  0.94623932  0.48816919  1  -0.086981  0.000558  -0.012913  0.076042  0.00042  3.989901  0.0
C  C165  1  0.84425071  0.55376124  0.51183280  1  -0.086953  0.000558  -0.012802  0.076201  0.00042  3.989518  0.0
C  C166  1  0.65570854  0.05375431  0.51182985  1  -0.086942  0.000558  -0.012912  0.076153  0.00042  3.989785  0.0
C  C167  1  0.15568801  0.44624954  0.48817378  1  -0.086396  0.000558  -0.012903  0.076377  0.00042  3.989401  0.0
C  C168  1  0.30774406  0.00074756  0.45574844  1  0.015011  0.000464  -0.088171  -0.130803  0.000355  3.978835  0.0
C  C169  1  0.80770332  0.49925253  0.54425652  1  0.014572  0.000465  -0.088179  -0.130821  0.000355  3.97868  0.0
C  C170  1  0.69226499  0.99924753  0.54424981  1  0.014608  0.000465  -0.088233  -0.130978  0.000355  3.978965  0.0
C  C171  1  0.19224095  0.50075578  0.45575501  1  0.011095  0.000465  -0.088186  -0.130769  0.000355  3.978477  0.0
C  C172  1  0.46176206  0.05390878  0.46774443  1  -0.072205  0.000114  -0.086332  -0.13613  8.3e-05  3.99533  0.0
C  C173  1  0.96173568  0.44609620  0.53226043  1  -0.07228  0.000114  -0.086394  -0.136375  8.3e-05  3.995244  0.0
C  C174  1  0.53823589  0.94608822  0.53225402  1  -0.072133  0.000114  -0.08627  -0.136089  8.3e-05  3.99544  0.0
C  C175  1  0.03820119  0.55391505  0.46774668  1  -0.068313  0.000114  -0.086406  -0.136243  8.3e-05  3.995197  0.0
C  C176  1  0.49154816  0.70204239  0.03409119  1  0.282922  0.001431  -0.007174  -0.126957  0.000862  3.939168  0.001
C  C177  1  0.99155017  0.79795648  0.96590240  1  0.283237  0.001431  -0.007139  -0.126991  0.000862  3.939457  0.001
C  C178  1  0.50842758  0.29795560  0.96590547  1  0.283413  0.001431  -0.007269  -0.127188  0.000862  3.939461  0.001
C  C179  1  0.00845147  0.20204478  0.03409983  1  0.282451  0.001432  -0.007221  -0.127158  0.000862  3.939517  0.001
C  C180  1  0.50052653  0.74286121  0.08907840  1  0.394542  0.005052  -0.002777  -0.04007  0.003498  4.006495  0.004
C  C181  1  0.00051183  0.75713588  0.91091788  1  0.394577  0.005052  -0.00267  -0.039701  0.003498  4.006015  0.004
C  C182  1  0.49946771  0.25713295  0.91091785  1  0.394557  0.00505  -0.002651  -0.0397  0.003496  4.006173  0.004
C  C183  1  0.99948426  0.24286441  0.08908519  1  0.394873  0.005049  -0.002684  -0.0397  0.003496  4.005967  0.004
C  C184  1  0.16429422  0.68664517  0.09394716  1  0.954439  0.008088  0.14569  0.090597  0.006495  3.915065  0.006
C  C185  1  0.66428131  0.81335534  0.90605121  1  0.954262  0.008088  0.14567  0.09062  0.006494  3.915142  0.006
C  C186  1  0.83569632  0.31334944  0.90605103  1  0.954557  0.008082  0.145554  0.090581  0.006491  3.915309  0.006
C  C187  1  0.33572404  0.18664836  0.09394843  1  0.954312  0.008085  0.145671  0.09062  0.006492  3.915182  0.006
C  C188  1  0.19646593  0.61403619  0.99175112  1  0.273055  0.001377  -0.04673  -0.115288  0.001196  3.893064  0.001
C  C189  1  0.69648694  0.88596777  0.00824285  1  0.273341  0.001378  -0.046739  -0.115286  0.001197  3.893213  0.001
C  C190  1  0.80350795  0.38596281  0.00824233  1  0.273115  0.001377  -0.046673  -0.11511  0.001196  3.893178  0.001
C  C191  1  0.30353876  0.11403645  0.99175448  1  0.273046  0.001378  -0.046694  -0.115155  0.001196  3.893346  0.001
C  C192  1  0.35163097  0.55459930  0.99556636  1  -0.026157  0.000516  -0.017251  0.076937  0.000405  3.994917  0.0
C  C193  1  0.85166722  0.94540134  0.00443089  1  -0.026395  0.000516  -0.017166  0.077082  0.000405  3.995058  0.0
C  C194  1  0.64833736  0.44539867  0.00443125  1  -0.025928  0.000516  -0.01715  0.077048  0.000405  3.994935  0.0
C  C195  1  0.14837144  0.05460098  0.99556434  1  -0.026215  0.000516  -0.017265  0.07687  0.000405  3.995159  0.0
C  C196  1  0.29606306  0.51093007  0.03974696  1  -0.065675  0.000392  -0.090418  -0.123044  0.000278  3.980958  0.0
C  C197  1  0.79609981  0.98906870  0.96024539  1  -0.065969  0.000393  -0.09041  -0.123071  0.000279  3.980435  0.0
C  C198  1  0.70389972  0.48907037  0.96024617  1  -0.06598  0.000392  -0.090326  -0.12296  0.000278  3.980375  0.0
C  C199  1  0.20393514  0.01092885  0.03974885  1  -0.065895  0.000392  -0.090363  -0.123043  0.000278  3.980797  0.0
C  C200  1  0.44284226  0.45687218  0.04424315  1  -0.050248  0.000435  -0.092507  -0.131315  0.000352  3.980128  0.0
C  C201  1  0.94288672  0.04313196  0.95575357  1  -0.050146  0.000435  -0.09246  -0.131257  0.000352  3.979922  0.0
C  C202  1  0.55712052  0.54313204  0.95575371  1  -0.050147  0.000435  -0.092456  -0.131307  0.000352  3.979859  0.0
C  C203  1  0.05716120  0.95687319  0.04424481  1  -0.049891  0.000435  -0.092492  -0.131292  0.000352  3.980291  0.0
N  N204  1  0.06050009  0.83864639  0.31156067  1  -1.227312  0.045946  -0.33438  -0.281288  0.031724  3.468572  0.015
N  N205  1  0.56047033  0.66135163  0.68843945  1  -1.226799  0.045951  -0.334362  -0.281422  0.031724  3.468776  0.015
N  N206  1  0.93949971  0.16135064  0.68843589  1  -1.227397  0.045945  -0.334319  -0.281198  0.031727  3.468798  0.015
N  N207  1  0.43950911  0.33865337  0.31156888  1  -1.227072  0.045947  -0.334274  -0.281243  0.031728  3.468714  0.015
N  N208  1  0.08316872  0.87588221  0.41314918  1  -1.229464  0.003577  -0.24963  0.029662  0.002249  3.797085  0.002
N  N209  1  0.58313272  0.62411967  0.58685038  1  -1.22917  0.003576  -0.249635  0.029339  0.002249  3.797448  0.002
N  N210  1  0.91683847  0.12411476  0.58685117  1  -1.229659  0.003578  -0.249656  0.029575  0.002249  3.797287  0.002
N  N211  1  0.41682451  0.37589209  0.41315488  1  -1.229987  0.003577  -0.249671  0.029643  0.002249  3.797306  0.002
N  N212  1  0.29469450  0.73300087  0.12598496  1  -1.253416  0.048514  -0.341429  -0.298548  0.032869  3.495804  0.013
N  N213  1  0.79467000  0.76699731  0.87401445  1  -1.253538  0.048505  -0.341449  -0.298711  0.032873  3.495578  0.013
N  N214  1  0.70530899  0.26699274  0.87401550  1  -1.253622  0.048497  -0.341354  -0.298544  0.032872  3.495901  0.013
N  N215  1  0.20532980  0.23300204  0.12598710  1  -1.253612  0.048495  -0.341451  -0.298729  0.032875  3.495684  0.013
N  N216  1  0.27670454  0.66673777  0.03787258  1  -1.220945  0.004079  -0.242172  0.040961  0.002491  3.777107  0.002
N  N217  1  0.77671236  0.83326432  0.96212110  1  -1.220996  0.004079  -0.24221  0.04084  0.002491  3.777391  0.002
N  N218  1  0.72325454  0.33325975  0.96212308  1  -1.221035  0.004077  -0.242113  0.040781  0.00249  3.777435  0.002
N  N219  1  0.22329669  0.16673844  0.03787749  1  -1.220525  0.004078  -0.242184  0.040923  0.00249  3.77718  0.002
O  O220  1  0.43619986  0.86886186  0.20303571  1  -1.209421  0.051313  -0.316573  -0.582436  0.037048  2.297088  0.023
O  O221  1  0.93619437  0.63114059  0.79697209  1  -1.209444  0.051306  -0.316419  -0.582308  0.037047  2.296945  0.023
O  O222  1  0.56379808  0.13113883  0.79697263  1  -1.209489  0.051299  -0.316483  -0.582484  0.037043  2.2969  0.023
O  O223  1  0.06382208  0.36885954  0.20304094  1  -1.209349  0.05128  -0.316491  -0.582385  0.037038  2.29687  0.023
O  O224  1  0.15888929  0.94631622  0.18868693  1  -1.188472  0.004378  -0.302991  -0.528279  0.002487  2.219281  0.003
O  O225  1  0.65888512  0.55368271  0.81132029  1  -1.188455  0.004379  -0.302985  -0.52826  0.002488  2.219376  0.003
O  O226  1  0.84110681  0.05368250  0.81132452  1  -1.188464  0.004378  -0.303005  -0.528268  0.002487  2.219114  0.003
O  O227  1  0.34111097  0.44631433  0.18867532  1  -1.188421  0.004376  -0.303055  -0.528354  0.002486  2.219148  0.003
O  O228  1  0.57872928  0.20747493  0.23360967  1  -1.223733  0.06099  -0.321981  -0.593494  0.044039  2.292748  0.029
O  O229  1  0.07869020  0.29252692  0.76639619  1  -1.223835  0.060971  -0.321971  -0.593484  0.044037  2.292506  0.029
O  O230  1  0.42130753  0.79253007  0.76639866  1  -1.223739  0.060966  -0.321928  -0.59349  0.044036  2.292415  0.029
O  O231  1  0.92132810  0.70747538  0.23360093  1  -1.223883  0.060958  -0.322025  -0.593568  0.044042  2.292483  0.029
O  O232  1  0.34042347  0.15685330  0.30145607  1  -1.190468  0.004269  -0.320558  -0.547783  0.00237  2.15622  0.003
O  O233  1  0.84038958  0.34314297  0.69854893  1  -1.190522  0.004268  -0.320523  -0.547689  0.002369  2.156389  0.003
O  O234  1  0.65957448  0.84314470  0.69854012  1  -1.190554  0.004266  -0.320477  -0.547665  0.002368  2.156335  0.003
O  O235  1  0.15961762  0.65685168  0.30144643  1  -1.190495  0.004268  -0.320533  -0.547751  0.002369  2.156541  0.003
O  O236  1  0.89899332  0.84231226  0.16652216  1  -1.303704  0.061979  -0.584448  -0.775537  0.04495  2.12918  0.028
O  O237  1  0.39898681  0.65769002  0.83346478  1  -1.303714  0.062004  -0.584443  -0.775548  0.044965  2.129146  0.028
O  O238  1  0.10102313  0.15768625  0.83347219  1  -1.305851  0.061985  -0.584415  -0.775647  0.044948  2.129056  0.028
O  O239  1  0.60105000  0.34231224  0.16653519  1  -1.301787  0.061974  -0.584416  -0.775541  0.044946  2.12903  0.028
O  O240  1  0.46166436  0.74881094  0.27445625  1  -1.315793  0.064203  -0.579474  -0.769383  0.046281  2.152356  0.031
O  O241  1  0.96163914  0.75119319  0.72553746  1  -1.315778  0.064179  -0.579554  -0.769517  0.046272  2.15231  0.031
O  O242  1  0.53835949  0.25118458  0.72554536  1  -1.315858  0.064203  -0.579541  -0.769491  0.046286  2.152322  0.031
O  O243  1  0.03839767  0.24880868  0.27445630  1  -1.315782  0.064201  -0.579613  -0.769403  0.04629  2.152388  0.031
