# generated using pymatgen
data_NiH12C8O7
_symmetry_space_group_name_H-M   'P 1'
_cell_length_a   8.70391149
_cell_length_b   10.73893594
_cell_length_c   10.91450000
_cell_angle_alpha   107.54975471
_cell_angle_beta   90.00000000
_cell_angle_gamma   90.00000000
_symmetry_Int_Tables_number   1
_chemical_formula_structural   NiH12C8O7
_chemical_formula_sum   'Ni4 H48 C32 O28'
_cell_volume   972.70237067
_cell_formula_units_Z   4
loop_
 _symmetry_equiv_pos_site_id
 _symmetry_equiv_pos_as_xyz
  1  'x, y, z'
loop_
 _atom_site_type_symbol
 _atom_site_label
 _atom_site_symmetry_multiplicity
 _atom_site_fract_x
 _atom_site_fract_y
 _atom_site_fract_z
 _atom_site_occupancy
 _atom_site_hle17_ddec_charge
 _atom_site_hle17_ddec_spin_density
 _atom_site_hle17_ddec_sum_bond_order
 _atom_site_hle17_magmom
 _atom_site_hse06_10hf_ddec_charge
 _atom_site_hse06_10hf_ddec_spin_density
 _atom_site_hse06_10hf_ddec_sum_bond_order
 _atom_site_hse06_10hf_magmom
 _atom_site_hse06_ddec_charge
 _atom_site_hse06_ddec_spin_density
 _atom_site_hse06_ddec_sum_bond_order
 _atom_site_hse06_magmom
 _atom_site_pbe_bader_charge
 _atom_site_pbe_bader_spin_density
 _atom_site_pbe_cm5_charge
 _atom_site_pbe_ddec_charge
 _atom_site_pbe_ddec_spin_density
 _atom_site_pbe_ddec_sum_bond_order
 _atom_site_pbe_magmom
Ni  Ni0  1  0.22326399  0.71070329  0.60002529  1  0.982858  1.813788  1.889178  1.537  0.995905  1.85756  2.267292  1.656  1.074837  1.910994  2.205589  1.735  1.220531  1.594896  0.628882  0.924805  1.803522  2.327137  1.584
Ni  Ni1  1  0.72423071  0.78883029  0.39983995  1  0.98541  -1.813792  1.887698  -1.538  0.997975  -1.857682  2.266354  -1.657  1.07702  -1.911063  2.204362  -1.735  1.222309  -1.59516  0.629385  0.926534  -1.803714  2.326882  -1.585
Ni  Ni2  1  0.77621538  0.28894735  0.39988966  1  0.983206  1.813579  1.889081  1.538  0.99603  1.857777  2.26759  1.657  1.075042  1.911196  2.205836  1.735  1.221346  1.595075  0.628863  0.925157  1.803773  2.327012  1.584
Ni  Ni3  1  0.27599660  0.21086625  0.60016466  1  0.984002  -1.813801  1.886768  -1.538  0.996782  -1.857779  2.265142  -1.657  1.075765  -1.911232  2.203404  -1.735  1.22225  -1.595085  0.628833  0.92552  -1.803742  2.325201  -1.584
H  H4  1  0.28216509  0.79769631  0.22803085  1  0.110024  -0.000218  0.921439  0.0  0.120549  -0.000117  0.978329  0.0  0.12351  -7.1e-05  0.976975  0.0  0.078735  -0.000278  0.110907  0.118071  -0.000173  0.980011  0.0
H  H5  1  0.78147624  0.70242131  0.77184458  1  0.109704  0.000214  0.921725  0.0  0.120248  0.000118  0.978846  0.0  0.123151  7.2e-05  0.977477  0.0  0.080791  0.000284  0.110936  0.117818  0.000175  0.980536  0.0
H  H6  1  0.71806567  0.20235378  0.77214646  1  0.109902  -0.000213  0.921551  0.0  0.120617  -0.000115  0.9781  0.0  0.123588  -7e-05  0.976744  0.0  0.077792  -0.000273  0.11091  0.118151  -0.00017  0.979784  0.0
H  H7  1  0.21818696  0.29791787  0.22807766  1  0.109434  0.000211  0.92156  0.0  0.120539  0.000118  0.978046  0.0  0.123371  7.1e-05  0.97676  0.0  0.07758  0.00028  0.110999  0.118145  0.000173  0.979685  0.0
H  H8  1  0.50717657  0.98602737  0.33042810  1  0.095232  0.000105  0.904659  0.0  0.105175  0.000139  0.958921  0.0  0.106345  0.000128  0.958681  0.0  0.113544  9.5e-05  0.12624  0.104194  0.000124  0.959249  0.0
H  H9  1  0.00593411  0.51372205  0.67005365  1  0.095368  -0.000117  0.905781  0.0  0.105636  -0.000139  0.959227  0.0  0.106904  -0.000128  0.958953  0.0  0.117893  -9.4e-05  0.126148  0.104566  -0.000124  0.959601  0.0
H  H10  1  0.49330810  0.01385083  0.67005462  1  0.095599  0.000117  0.905001  0.0  0.105205  0.00014  0.959465  0.0  0.106495  0.000129  0.959145  0.0  0.117869  9.5e-05  0.126039  0.104158  0.000125  0.959843  0.0
H  H11  1  0.99330858  0.48620107  0.33021425  1  0.095485  -0.000112  0.905932  0.0  0.105555  -0.000138  0.959669  0.0  0.106809  -0.000127  0.959415  0.0  0.115823  -9.3e-05  0.12614  0.104483  -0.000123  0.960072  0.0
H  H12  1  0.54436905  0.00450235  0.11250532  1  0.092254  0.000181  0.939496  0.0  0.108273  9.5e-05  1.000541  0.0  0.109575  5.7e-05  1.000454  0.0  0.060699  0.000253  0.095645  0.107206  0.000121  1.000824  0.0
H  H13  1  0.04269460  0.49563061  0.88828235  1  0.091684  -0.00018  0.939275  0.0  0.107709  -9.6e-05  1.000489  0.0  0.108998  -5.7e-05  1.000379  0.0  0.049775  -0.000254  0.095502  0.106645  -0.000122  1.000787  0.0
H  H14  1  0.45679463  0.99567568  0.88825692  1  0.091634  0.000175  0.939893  0.0  0.108063  9.6e-05  1.00059  0.0  0.10931  5.7e-05  1.00057  0.0  0.090546  0.00025  0.095592  0.10701  0.000122  1.000859  0.0
H  H15  1  0.95679397  0.50467633  0.11215898  1  0.091748  -0.000177  0.939203  0.0  0.107901  -9.7e-05  1.000472  0.0  0.109204  -5.8e-05  1.000378  0.0  0.090816  -0.000253  0.095629  0.106836  -0.000123  1.000756  0.0
H  H16  1  0.36248530  0.92555231  0.09450272  1  0.082241  -0.000294  0.940453  0.0  0.098413  -0.000268  1.003594  0.0  0.099431  -0.000188  1.003471  0.0  0.049779  -0.00085  0.094059  0.097516  -0.000333  1.00396  0.0
H  H17  1  0.86126565  0.57508781  0.90595285  1  0.081923  0.000292  0.940769  0.0  0.098315  0.000266  1.003916  0.0  0.099271  0.000187  1.003826  0.0  0.044817  0.000846  0.094023  0.097438  0.000331  1.004262  0.0
H  H18  1  0.63827166  0.07488356  0.90581011  1  0.082521  -0.000299  0.940652  0.0  0.098586  -0.000265  1.00414  0.0  0.099572  -0.000187  1.00403  0.0  0.047073  -0.000844  0.094157  0.097688  -0.00033  1.004494  0.0
H  H19  1  0.13820568  0.42530410  0.09438268  1  0.082274  0.000294  0.940693  0.0  0.098353  0.000265  1.004184  0.0  0.099372  0.000186  1.004035  0.0  0.046482  0.000843  0.09414  0.097467  0.00033  1.004541  0.0
H  H20  1  0.48306672  0.72727115  0.95550280  1  0.092893  -0.000278  0.942505  0.0  0.108802  -0.000276  1.002863  0.0  0.109904  -0.000195  1.003312  0.0  0.081239  -0.000852  0.095069  0.107882  -0.000334  1.002837  0.0
H  H21  1  0.98230204  0.77322247  0.04461337  1  0.092886  0.000278  0.942627  0.0  0.10891  0.000276  1.003114  0.0  0.109975  0.000195  1.003589  0.0  0.074729  0.000856  0.094894  0.107987  0.000334  1.003109  0.0
H  H22  1  0.51753628  0.27307876  0.04469383  1  0.093312  -0.000276  0.942225  0.0  0.109074  -0.000277  1.002759  0.0  0.110181  -0.000196  1.003203  0.0  0.077454  -0.000855  0.095088  0.108152  -0.000335  1.002722  0.0
H  H23  1  0.01716355  0.22736966  0.95526023  1  0.093299  0.000274  0.942835  0.0  0.108996  0.000277  1.003402  0.0  0.110099  0.000196  1.003833  0.0  0.081895  0.000857  0.095196  0.108093  0.000335  1.003347  0.0
H  H24  1  0.65861079  0.81313908  0.97405092  1  0.080663  9.3e-05  0.938294  0.0  0.099243  6.9e-05  0.996812  0.0  0.100236  5e-05  0.996918  0.0  -0.00015  0.000134  0.093335  0.098397  9.5e-05  0.997121  0.0
H  H25  1  0.15759351  0.68706839  0.02626163  1  0.080965  -9.9e-05  0.937017  0.0  0.099661  -7.1e-05  0.995484  0.0  0.10066  -5e-05  0.995589  0.0  0.007236  -0.000137  0.093348  0.098789  -9.6e-05  0.995838  0.0
H  H26  1  0.34219328  0.18711513  0.02640134  1  0.080848  9.8e-05  0.937573  0.0  0.099671  7e-05  0.995747  0.0  0.100673  5e-05  0.995836  0.0  0.043713  0.000135  0.093367  0.098781  9.5e-05  0.996114  0.0
H  H27  1  0.84181003  0.31342803  0.97398854  1  0.080611  -9.4e-05  0.937773  0.0  0.099286  -7e-05  0.996151  0.0  0.100257  -5e-05  0.996281  0.0  0.044364  -0.000136  0.093222  0.098446  -9.5e-05  0.996464  0.0
H  H28  1  0.71866769  0.66016172  0.09781160  1  0.063131  0.00019  0.915999  0.0  0.075301  0.00019  0.974216  0.0  0.075649  0.000149  0.973912  0.0  0.076295  0.000204  0.115909  0.074961  0.000187  0.974508  0.0
H  H29  1  0.21814445  0.83965802  0.90208265  1  0.062954  -0.000196  0.914763  0.0  0.075078  -0.00019  0.972629  0.0  0.075375  -0.000148  0.972421  0.0  0.081124  -0.000204  0.115486  0.074755  -0.000187  0.972861  0.0
H  H30  1  0.28164579  0.33983367  0.90243286  1  0.063627  0.00019  0.91527  0.0  0.075564  0.00019  0.973317  0.0  0.075861  0.000149  0.973134  0.0  0.079169  0.000204  0.11577  0.075243  0.000187  0.973541  0.0
H  H31  1  0.78176576  0.16026608  0.09763307  1  0.063211  -0.000193  0.915818  0.0  0.075317  -0.000189  0.973665  0.0  0.075626  -0.000148  0.973469  0.0  0.080298  -0.000202  0.115676  0.074999  -0.000186  0.973895  0.0
H  H32  1  0.40350135  0.60711505  0.09839584  1  0.094034  5.7e-05  0.920055  0.0  0.106483  -1e-06  0.973971  0.0  0.108936  1.6e-05  0.973093  0.0  0.054301  3e-05  0.105128  0.104561  -1.4e-05  0.974958  0.0
H  H33  1  0.90289521  0.89289513  0.90163920  1  0.093785  -5.5e-05  0.920092  0.0  0.106521  -1e-06  0.973809  0.0  0.108937  -1.8e-05  0.972969  0.0  0.050977  -3.6e-05  0.104996  0.104591  1.1e-05  0.974786  0.0
H  H34  1  0.59679490  0.39304637  0.90159827  1  0.094178  5.3e-05  0.91961  0.0  0.106527  -1e-06  0.973703  0.0  0.108922  1.6e-05  0.972891  0.0  0.051876  3e-05  0.105136  0.104623  -1.4e-05  0.974644  0.0
H  H35  1  0.09705062  0.10736689  0.09810439  1  0.094043  -5.4e-05  0.919851  0.0  0.10689  -1e-06  0.973304  0.0  0.109327  -1.8e-05  0.972436  0.0  0.053885  -3.5e-05  0.105124  0.104956  1.2e-05  0.974287  0.0
H  H36  1  0.47999454  0.66767215  0.70431303  1  0.414422  6.6e-05  0.880004  -0.001  0.385068  0.000421  0.949488  0.0  0.396934  0.000253  0.932097  0.0  0.634667  0.000295  0.29047  0.376417  0.000586  0.962109  0.0
H  H37  1  0.97986405  0.83254313  0.29426195  1  0.414407  -8.1e-05  0.880852  0.001  0.38465  -0.000431  0.950593  0.0  0.396552  -0.000261  0.933184  0.0  0.629977  -0.00031  0.290294  0.375973  -0.000596  0.963227  0.0
H  H38  1  0.51989384  0.33240235  0.29524666  1  0.414197  7.9e-05  0.880838  -0.001  0.384824  0.000431  0.95005  0.0  0.396716  0.000261  0.932621  0.0  0.633072  0.000307  0.290382  0.376168  0.000597  0.96267  0.0
H  H39  1  0.01967162  0.16742882  0.70493199  1  0.413476  -8.5e-05  0.881989  0.001  0.384384  -0.000434  0.950626  0.0  0.396271  -0.000263  0.93321  0.0  0.632236  -0.000307  0.290148  0.37573  -0.000599  0.96325  0.0
H  H40  1  0.50339781  0.76974853  0.62479303  1  0.430921  -0.000142  0.855729  -0.001  0.400264  0.000243  0.928407  0.0  0.412327  9.4e-05  0.910724  0.0  0.652076  -0.000258  0.298056  0.390989  9e-05  0.942054  0.0
H  H41  1  0.00525970  0.73045405  0.37351981  1  0.431516  0.000116  0.854973  0.001  0.401328  -0.000264  0.926336  0.0  0.413292  -0.000108  0.908762  0.0  0.654866  0.00023  0.298918  0.392142  -0.000106  0.939875  0.0
H  H42  1  0.49567025  0.23035527  0.37482300  1  0.43135  -0.000129  0.855009  -0.001  0.400734  0.000254  0.927599  0.0  0.412784  0.000102  0.909934  0.0  0.640164  -0.000266  0.298187  0.391451  9.8e-05  0.941261  0.0
H  H43  1  0.99537317  0.26940950  0.62533045  1  0.431678  0.000122  0.854692  0.001  0.401073  -0.000259  0.927168  0.0  0.413119  -0.000104  0.90951  0.0  0.646003  0.000251  0.298509  0.391811  -0.000102  0.940794  0.0
H  H44  1  0.32066273  0.47241275  0.56583854  1  0.427114  0.000223  0.878926  0.0  0.394927  0.000409  0.945802  0.0  0.407434  0.000292  0.927651  0.0  0.645963  0.00043  0.295974  0.385766  0.000521  0.959027  0.001
H  H45  1  0.82124801  0.02742429  0.43393046  1  0.427051  -0.000242  0.878993  0.0  0.395015  -0.000423  0.945516  0.0  0.407493  -0.000305  0.927416  0.0  0.6694  -0.000406  0.295869  0.385853  -0.000537  0.958746  -0.001
H  H46  1  0.67896600  0.52737072  0.43485520  1  0.42655  0.000219  0.879307  0.0  0.394794  0.000405  0.945517  0.0  0.407212  0.000288  0.927481  0.0  0.637754  0.000435  0.296132  0.385683  0.000517  0.95869  0.001
H  H47  1  0.17877250  0.97235722  0.56554230  1  0.427328  -0.000222  0.878558  0.0  0.39532  -0.000409  0.945165  0.0  0.40778  -0.000292  0.92707  0.0  0.64905  -0.000423  0.296108  0.386163  -0.00052  0.958389  -0.001
H  H48  1  0.34966923  0.50578483  0.43115201  1  0.422173  0.000427  0.848055  0.0  0.398468  0.000672  0.916347  0.001  0.408761  0.000491  0.902231  0.001  0.640883  0.000907  0.305697  0.390521  0.000838  0.925168  0.001
H  H49  1  0.85017179  0.99426735  0.56883960  1  0.42268  -0.000446  0.84745  0.0  0.398839  -0.000685  0.916212  -0.001  0.409179  -0.000502  0.901774  -0.001  0.638196  -0.000956  0.305744  0.39088  -0.000854  0.925071  -0.001
H  H50  1  0.65039839  0.49376033  0.56953791  1  0.422643  0.000424  0.848888  0.0  0.398805  0.000665  0.917324  0.001  0.409144  0.000486  0.902354  0.001  0.637417  0.000912  0.305613  0.390844  0.000831  0.926434  0.001
H  H51  1  0.15047602  0.00596146  0.43087490  1  0.42211  -0.000415  0.84785  0.0  0.398412  -0.000664  0.916245  -0.001  0.408691  -0.000485  0.902241  -0.001  0.639459  -0.000902  0.305723  0.390471  -0.00083  0.92506  -0.001
C  C52  1  0.39841742  0.78899339  0.26304286  1  -0.194159  0.005381  3.567816  0.007  -0.208371  0.002865  3.806622  0.004  -0.215343  0.002137  3.817212  0.003  -0.023818  0.00603  -0.085199  -0.203248  0.003881  3.799418  0.005
C  C53  1  0.89780095  0.71099335  0.73695499  1  -0.191635  -0.00539  3.567424  -0.007  -0.207453  -0.00287  3.808083  -0.004  -0.214165  -0.002144  3.818492  -0.003  -0.029535  -0.006038  -0.085132  -0.202553  -0.003887  3.801086  -0.005
C  C54  1  0.60183746  0.21098442  0.73709376  1  -0.193337  0.005378  3.568267  0.007  -0.207872  0.002864  3.807258  0.004  -0.214827  0.002136  3.817946  0.003  -0.025051  0.006023  -0.085134  -0.202852  0.003881  3.800126  0.005
C  C55  1  0.10191050  0.28912803  0.26297043  1  -0.191687  -0.005372  3.566828  -0.007  -0.207529  -0.002872  3.807286  -0.004  -0.214139  -0.002142  3.817596  -0.003  -0.023733  -0.006045  -0.085141  -0.202645  -0.003893  3.800273  -0.005
C  C56  1  0.50503730  0.89766020  0.24796565  1  0.196649  0.001618  3.476491  0.003  0.170389  0.00055  3.728457  0.001  0.178318  0.000553  3.736813  0.001  0.390337  0.001229  0.004114  0.16491  0.000541  3.722305  0.001
C  C57  1  0.00407058  0.60226502  0.75232638  1  0.193701  -0.001606  3.478776  -0.003  0.168381  -0.000567  3.729957  -0.001  0.175934  -0.000566  3.738615  -0.001  0.38939  -0.001258  0.003743  0.163167  -0.000559  3.723572  -0.001
C  C58  1  0.49539107  0.10233422  0.75237197  1  0.195464  0.001582  3.478417  0.003  0.169769  0.000547  3.729993  0.001  0.177426  0.00055  3.738667  0.001  0.386052  0.001226  0.004321  0.164459  0.000537  3.723702  0.001
C  C59  1  0.99538811  0.39777335  0.24783004  1  0.194711  -0.001602  3.478293  -0.003  0.169345  -0.000561  3.729796  -0.001  0.176919  -0.000562  3.738432  -0.001  0.386102  -0.001248  0.004304  0.164075  -0.000553  3.723512  -0.001
C  C60  1  0.48442129  0.91578485  0.11558949  1  -0.163369  -0.001422  3.615598  -0.002  -0.210929  -0.000943  3.876522  -0.001  -0.212079  -0.000678  3.887318  -0.001  -0.073716  -0.001882  -0.164694  -0.209997  -0.001173  3.86923  -0.001
C  C61  1  0.98326253  0.58447438  0.88483737  1  -0.162185  0.001415  3.613792  0.002  -0.210069  0.000943  3.874971  0.001  -0.211087  0.000678  3.885771  0.001  -0.044905  0.001873  -0.164703  -0.209173  0.001172  3.867599  0.001
C  C62  1  0.51628742  0.08446448  0.88481185  1  -0.162781  -0.001391  3.615797  -0.002  -0.21097  -0.000944  3.877174  -0.001  -0.212042  -0.000677  3.888106  -0.001  -0.088337  -0.001874  -0.164968  -0.210042  -0.001174  3.869791  -0.001
C  C63  1  0.01621800  0.41579447  0.11543049  1  -0.162352  0.001392  3.614859  0.002  -0.210551  0.000943  3.876636  0.001  -0.211669  0.000679  3.887501  0.001  -0.086906  0.001867  -0.165241  -0.209637  0.00117  3.869306  0.001
C  C64  1  0.56099261  0.78971221  0.02680645  1  -0.165124  -0.001758  3.611276  -0.002  -0.214191  -0.001121  3.878449  -0.001  -0.215409  -0.000793  3.889111  -0.001  -0.014552  -0.002366  -0.166098  -0.213162  -0.001451  3.871212  -0.002
C  C65  1  0.06011665  0.71051675  0.97340528  1  -0.164904  0.001765  3.609786  0.002  -0.214649  0.00112  3.877387  0.001  -0.21581  0.000792  3.888028  0.001  -0.029934  0.002374  -0.165984  -0.213646  0.001453  3.870149  0.002
C  C66  1  0.43961499  0.21053223  0.97347158  1  -0.165821  -0.001776  3.611141  -0.002  -0.214995  -0.001121  3.878177  -0.001  -0.216175  -0.000791  3.888878  -0.001  -0.068956  -0.002375  -0.166188  -0.213963  -0.001453  3.870896  -0.002
C  C67  1  0.93939949  0.28985661  0.02666545  1  -0.165497  0.001777  3.612532  0.002  -0.214551  0.001124  3.879644  0.001  -0.21571  0.000794  3.890289  0.001  -0.073929  0.002381  -0.166053  -0.213574  0.001456  3.872435  0.002
C  C68  1  0.61699042  0.72238303  0.12440119  1  0.189432  0.00077  3.512586  0.002  0.159422  -9.6e-05  3.773093  0.0  0.167722  8.6e-05  3.782379  0.0  0.387685  -8.4e-05  0.001012  0.153729  -0.000269  3.766036  0.0
C  C69  1  0.11633161  0.77754414  0.87565229  1  0.189288  -0.000743  3.512459  -0.002  0.160593  0.000101  3.771874  0.0  0.168742  -8.3e-05  3.781339  0.0  0.381353  9.5e-05  0.002204  0.155003  0.000276  3.764696  0.0
C  C70  1  0.38338970  0.27767780  0.87582603  1  0.189177  0.000753  3.512847  0.002  0.160265  -0.000108  3.772158  0.0  0.168445  7.5e-05  3.781602  0.0  0.383267  -0.000102  0.002  0.154659  -0.000281  3.764977  0.0
C  C71  1  0.88344074  0.22250888  0.12422537  1  0.1888  -0.000736  3.514915  -0.002  0.160042  0.000109  3.773812  0.0  0.168172  -7.5e-05  3.78332  0.0  0.383782  0.000107  0.001839  0.154434  0.000286  3.766634  0.0
C  C72  1  0.48051959  0.66095476  0.17580491  1  -0.19095  1.3e-05  3.558575  -0.001  -0.20535  0.000116  3.804502  0.0  -0.211604  0.000186  3.815818  0.0  -0.027317  -0.000322  -0.085292  -0.200979  2.5e-05  3.796636  0.0
C  C73  1  0.97992265  0.83902906  0.82423148  1  -0.191716  -2.8e-05  3.559686  0.001  -0.206571  -0.000111  3.806097  0.0  -0.212816  -0.00018  3.817349  0.0  -0.021922  0.000333  -0.085667  -0.20215  -1.9e-05  3.798234  0.0
C  C74  1  0.51971806  0.33907775  0.82426823  1  -0.191531  3.6e-05  3.559148  -0.001  -0.206107  0.000126  3.80525  0.0  -0.212267  0.000191  3.816506  0.0  -0.018149  -0.000302  -0.085501  -0.201728  3.5e-05  3.797356  0.0
C  C75  1  0.01996574  0.16108745  0.17555049  1  -0.192007  -4.5e-05  3.560208  0.001  -0.206991  -0.000113  3.806555  0.0  -0.213251  -0.000181  3.81777  0.0  -0.022668  0.000326  -0.085585  -0.202567  -2.3e-05  3.798685  0.0
C  C76  1  0.38695246  0.78762120  0.40116615  1  0.675152  -0.002989  3.841869  -0.005  0.628473  -0.002146  4.154975  -0.003  0.666246  -0.001794  4.14717  -0.003  1.572166  -0.003665  0.213374  0.600901  -0.00261  4.158622  -0.004
C  C77  1  0.88674041  0.71211845  0.59871167  1  0.673815  0.00304  3.844508  0.005  0.628146  0.002204  4.156638  0.003  0.665899  0.001842  4.148791  0.003  1.571796  0.003745  0.213237  0.600564  0.002681  4.160319  0.004
C  C78  1  0.61312204  0.21212905  0.59886997  1  0.673904  -0.002986  3.844397  -0.005  0.627454  -0.002142  4.15706  -0.003  0.665228  -0.001794  4.149272  -0.003  1.570675  -0.003645  0.212933  0.599889  -0.0026  4.16073  -0.004
C  C79  1  0.11309053  0.28770212  0.40113368  1  0.674264  0.003006  3.842258  0.005  0.628121  0.002187  4.155024  0.003  0.66585  0.001829  4.14718  0.003  1.57116  0.003719  0.213407  0.600545  0.002658  4.158749  0.004
C  C80  1  0.52855891  0.56906775  0.25296151  1  0.667993  0.001513  3.83342  0.003  0.618222  -0.00094  4.145122  0.0  0.652948  -0.000713  4.137581  0.0  1.562611  -0.000449  0.210975  0.593612  -0.001127  4.149543  0.0
C  C81  1  0.02786908  0.93086821  0.74712572  1  0.669102  -0.001554  3.833604  -0.003  0.619636  0.000906  4.144482  0.0  0.654378  0.000688  4.136913  0.0  1.565324  0.000368  0.211735  0.59501  0.001077  4.148947  0.0
C  C82  1  0.47158912  0.43074306  0.74700370  1  0.669121  0.001491  3.831411  0.003  0.61906  -0.000952  4.143336  0.0  0.653815  -0.000723  4.135747  0.0  1.557722  -0.000479  0.211295  0.594431  -0.001141  4.14781  0.0
C  C83  1  0.97186420  0.06910180  0.25250192  1  0.668719  -0.001519  3.834871  -0.003  0.619559  0.000924  4.145473  0.0  0.654334  0.000702  4.137893  0.0  1.562725  0.000385  0.211612  0.594909  0.0011  4.149958  0.0
O  O84  1  0.43791691  0.74821245  0.68980589  1  -0.803245  0.040857  1.931577  0.063  -0.782257  0.029682  2.14773  0.046  -0.808804  0.023357  2.111213  0.037  -1.23538  0.061387  -0.572782  -0.759697  0.035587  2.174615  0.054
O  O85  1  0.93844360  0.75206631  0.30946409  1  -0.80347  -0.040789  1.934812  -0.063  -0.782585  -0.029651  2.150588  -0.046  -0.809125  -0.023327  2.114046  -0.037  -1.233476  -0.061364  -0.572729  -0.759939  -0.035569  2.177419  -0.054
O  O86  1  0.56172906  0.25198218  0.31022372  1  -0.80328  0.04086  1.933707  0.063  -0.782368  0.029666  2.149816  0.046  -0.80893  0.023352  2.113223  0.037  -1.221456  0.061316  -0.572673  -0.75984  0.035562  2.176728  0.054
O  O87  1  0.06153440  0.24780115  0.68986834  1  -0.803236  -0.040937  1.934287  -0.063  -0.782577  -0.029705  2.150197  -0.046  -0.809126  -0.023374  2.113603  -0.037  -1.226666  -0.061434  -0.572913  -0.759934  -0.035621  2.177045  -0.054
O  O88  1  0.26117338  0.74614782  0.43288019  1  -0.590776  0.051218  2.111745  0.083  -0.560839  0.031277  2.382254  0.053  -0.597677  0.024412  2.37264  0.042  -1.143721  0.061991  -0.30934  -0.531118  0.035959  2.388551  0.059
O  O89  1  0.76122442  0.75385358  0.56690762  1  -0.589853  -0.051581  2.115332  -0.084  -0.560229  -0.031439  2.385603  -0.053  -0.59712  -0.024536  2.375932  -0.042  -1.143633  -0.062318  -0.309548  -0.53044  -0.036136  2.392014  -0.059
O  O90  1  0.73892296  0.25339637  0.56703616  1  -0.589812  0.051447  2.113825  0.084  -0.560142  0.031397  2.384453  0.053  -0.597006  0.024493  2.374903  0.042  -1.144432  0.062185  -0.308917  -0.530432  0.036095  2.390664  0.059
O  O91  1  0.23868924  0.24601486  0.43285297  1  -0.590273  -0.05145  2.112314  -0.084  -0.560635  -0.031371  2.382758  -0.053  -0.597465  -0.024464  2.37312  -0.042  -1.143304  -0.06222  -0.30963  -0.530871  -0.036078  2.389088  -0.059
O  O92  1  0.28437330  0.52307053  0.50763502  1  -0.803662  0.037451  1.992442  0.059  -0.772015  0.027989  2.216998  0.044  -0.798998  0.022528  2.181982  0.036  -1.236249  0.055775  -0.57177  -0.750196  0.032554  2.241052  0.05
O  O93  1  0.78539517  0.97644644  0.49199991  1  -0.805113  -0.037291  1.992281  -0.058  -0.77346  -0.02792  2.21694  -0.044  -0.800409  -0.022484  2.181634  -0.036  -1.257299  -0.055657  -0.572137  -0.751623  -0.032461  2.241139  -0.05
O  O94  1  0.71540939  0.47660648  0.49288146  1  -0.803673  0.037446  1.99343  0.059  -0.772331  0.027985  2.21706  0.044  -0.799282  0.022518  2.181473  0.036  -1.224823  0.055799  -0.571966  -0.750587  0.032554  2.241231  0.05
O  O95  1  0.21539167  0.02315243  0.50756344  1  -0.803702  -0.037502  1.992157  -0.059  -0.772386  -0.028005  2.216543  -0.044  -0.799329  -0.022536  2.1817  -0.036  -1.238311  -0.055814  -0.571764  -0.750551  -0.032571  2.240624  -0.05
O  O96  1  0.44512286  0.47189708  0.25014750  1  -0.626166  -0.006955  1.914898  -0.011  -0.572175  -0.004225  2.13274  -0.007  -0.595925  -0.002804  2.12193  -0.005  -1.192047  -0.010062  -0.317033  -0.555614  -0.005692  2.140344  -0.009
O  O97  1  0.94479132  0.02833160  0.75028559  1  -0.626204  0.006898  1.914219  0.011  -0.572629  0.004193  2.132065  0.007  -0.596411  0.002782  2.121255  0.005  -1.190698  0.009982  -0.317451  -0.556073  0.00565  2.139679  0.009
O  O98  1  0.55502173  0.52783951  0.74954190  1  -0.626377  -0.006963  1.913788  -0.011  -0.572296  -0.00424  2.131935  -0.007  -0.596051  -0.002817  2.12108  -0.005  -1.192224  -0.010081  -0.316928  -0.555738  -0.005702  2.139562  -0.009
O  O99  1  0.05492818  0.97162961  0.24932112  1  -0.626257  0.006913  1.916257  0.011  -0.572481  0.004204  2.133929  0.007  -0.596216  0.00279  2.123118  0.005  -1.190159  0.010009  -0.317145  -0.555943  0.005664  2.14156  0.009
O  O100  1  0.50284634  0.82164569  0.47510508  1  -0.610305  -0.043634  2.099086  -0.068  -0.577875  -0.028483  2.368113  -0.045  -0.613177  -0.022324  2.358489  -0.035  -1.154114  -0.059359  -0.29919  -0.548788  -0.034418  2.37333  -0.053
O  O101  1  0.00247475  0.67754118  0.52473700  1  -0.60932  0.044073  2.099492  0.069  -0.578058  0.028653  2.369196  0.045  -0.613329  0.022453  2.359531  0.036  -1.153841  0.059726  -0.299805  -0.548979  0.034617  2.374345  0.053
O  O102  1  0.49725689  0.17802839  0.52494417  1  -0.609949  -0.043748  2.100127  -0.068  -0.577569  -0.028528  2.369098  -0.045  -0.61285  -0.022363  2.359483  -0.035  -1.153366  -0.059416  -0.299176  -0.548487  -0.034465  2.374273  -0.053
O  O103  1  0.99725968  0.32192096  0.47509087  1  -0.609639  0.043851  2.099895  0.068  -0.577433  0.028556  2.368911  0.045  -0.612827  0.022383  2.359442  0.035  -1.153847  0.059476  -0.299312  -0.548375  0.034498  2.374015  0.053
O  O104  1  0.65168517  0.59866411  0.32081598  1  -0.623185  -0.041342  2.120862  -0.066  -0.584742  -0.027079  2.384313  -0.043  -0.620076  -0.021164  2.373788  -0.034  -1.155584  -0.055345  -0.307617  -0.556877  -0.032323  2.391012  -0.051
O  O105  1  0.15065755  0.90088607  0.67886362  1  -0.623111  0.041251  2.122161  0.066  -0.58416  0.027045  2.384881  0.043  -0.619479  0.021147  2.374312  0.034  -1.158935  0.055371  -0.307282  -0.556355  0.032272  2.391591  0.051
O  O106  1  0.34830662  0.40107345  0.67932724  1  -0.623499  -0.04121  2.120631  -0.066  -0.584588  -0.027001  2.384027  -0.043  -0.619958  -0.021108  2.373472  -0.034  -1.154859  -0.05519  -0.307492  -0.556763  -0.032217  2.39076  -0.051
O  O107  1  0.84883905  0.09887981  0.32052572  1  -0.622714  0.041269  2.122194  0.066  -0.584371  0.027055  2.385373  0.043  -0.619774  0.021153  2.374881  0.034  -1.160341  0.055327  -0.307601  -0.55655  0.032285  2.392006  0.051
O  O108  1  0.65671739  0.83478747  0.23476197  1  -0.348435  -0.03441  2.194334  -0.056  -0.285977  -0.025299  2.4454  -0.041  -0.311424  -0.020522  2.446384  -0.034  -0.966066  -0.049842  -0.206189  -0.26596  -0.02969  2.443929  -0.048
O  O109  1  0.15589887  0.66494437  0.76537282  1  -0.34678  0.034561  2.191224  0.056  -0.285802  0.025381  2.442674  0.042  -0.310954  0.020569  2.443602  0.034  -0.964057  0.050066  -0.206114  -0.265965  0.029813  2.441172  0.048
O  O110  1  0.34364550  0.16516984  0.76551149  1  -0.347657  -0.034426  2.190771  -0.056  -0.286  -0.025302  2.441828  -0.042  -0.311193  -0.020508  2.442746  -0.034  -0.962356  -0.049891  -0.206265  -0.266163  -0.02971  2.440404  -0.048
O  O111  1  0.84368390  0.33487816  0.23463711  1  -0.347106  0.034473  2.192359  0.056  -0.285806  0.025336  2.44364  0.042  -0.310948  0.020534  2.444551  0.034  -0.963503  0.049964  -0.206356  -0.266009  0.029754  2.44216  0.048
