# generated using pymatgen
data_MnH20C26N2(ClO3)2
_symmetry_space_group_name_H-M   'P 1'
_cell_length_a   9.63103111
_cell_length_b   11.63789672
_cell_length_c   12.67921858
_cell_angle_alpha   117.33758449
_cell_angle_beta   98.08663423
_cell_angle_gamma   90.00116461
_symmetry_Int_Tables_number   1
_chemical_formula_structural   MnH20C26N2(ClO3)2
_chemical_formula_sum   'Mn2 H40 C52 N4 Cl4 O12'
_cell_volume   1246.49872912
_cell_formula_units_Z   2
loop_
 _symmetry_equiv_pos_site_id
 _symmetry_equiv_pos_as_xyz
  1  'x, y, z'
loop_
 _atom_site_type_symbol
 _atom_site_label
 _atom_site_symmetry_multiplicity
 _atom_site_fract_x
 _atom_site_fract_y
 _atom_site_fract_z
 _atom_site_occupancy
 _atom_site_hle17_ddec_charge
 _atom_site_hle17_ddec_spin_density
 _atom_site_hle17_ddec_sum_bond_order
 _atom_site_hle17_magmom
 _atom_site_hse06_10hf_ddec_charge
 _atom_site_hse06_10hf_ddec_spin_density
 _atom_site_hse06_10hf_ddec_sum_bond_order
 _atom_site_hse06_10hf_magmom
 _atom_site_hse06_ddec_charge
 _atom_site_hse06_ddec_spin_density
 _atom_site_hse06_ddec_sum_bond_order
 _atom_site_hse06_magmom
 _atom_site_pbe_cm5_charge
 _atom_site_pbe_ddec_charge
 _atom_site_pbe_ddec_spin_density
 _atom_site_pbe_ddec_sum_bond_order
 _atom_site_pbe_magmom
Mn  Mn0  1  0.24991270  0.97128527  0.99994059  1  1.151206  4.794186  1.836408  4.683  0.977234  4.715952  2.352911  4.538  1.034534  4.759732  2.282306  4.601  0.606583  0.932817  4.668387  2.40645  4.473
Mn  Mn1  1  0.75008930  0.02870733  0.00003672  1  1.151166  4.794221  1.836429  4.683  0.977167  4.715993  2.352949  4.538  1.034487  4.75977  2.282334  4.601  0.606593  0.932759  4.668452  2.406479  4.473
H  H2  1  0.35747834  0.52114400  0.24777012  1  0.093751  7e-06  0.978232  0.0  0.101314  2.6e-05  1.047445  0.0  0.10401  1.3e-05  1.046397  0.0  0.094311  0.099625  3.5e-05  1.047748  0.0
H  H3  1  0.14220184  0.27392294  0.75249388  1  0.093094  9e-06  0.978697  0.0  0.101017  2.7e-05  1.047723  0.0  0.103747  1.4e-05  1.046629  0.0  0.093891  0.099351  3.6e-05  1.047943  0.0
H  H4  1  0.64253134  0.47885067  0.75222778  1  0.093718  6e-06  0.978451  0.0  0.101342  2.6e-05  1.047592  0.0  0.10404  1.3e-05  1.04654  0.0  0.094324  0.099652  3.6e-05  1.047896  0.0
H  H5  1  0.85780329  0.72608140  0.24750443  1  0.0931  7e-06  0.978731  0.0  0.101044  2.7e-05  1.047721  0.0  0.103775  1.4e-05  1.046627  0.0  0.093916  0.099377  3.7e-05  1.047949  0.0
H  H6  1  0.38409211  0.31835328  0.26135484  1  0.109864  -0.000179  0.959433  0.0  0.121283  -0.000164  1.01699  0.0  0.12399  -0.000183  1.016661  0.0  0.106  0.119332  -0.00013  1.017361  0.0
H  H7  1  0.11584693  0.05754963  0.73899276  1  0.109796  -0.00016  0.960788  0.0  0.121242  -0.000163  1.018257  0.0  0.123936  -0.000182  1.017957  0.0  0.106058  0.119328  -0.000136  1.018511  0.0
H  H8  1  0.61591537  0.68164041  0.73864005  1  0.109888  -0.000154  0.959362  0.0  0.121239  -0.000164  1.017012  0.0  0.123948  -0.000183  1.016677  0.0  0.105982  0.119289  -0.000131  1.017383  0.0
H  H9  1  0.88415620  0.94245569  0.26100813  1  0.1097  -0.000177  0.960707  0.0  0.121169  -0.000163  1.018158  0.0  0.123853  -0.000182  1.017883  0.0  0.106034  0.119266  -0.000136  1.018399  0.0
H  H10  1  0.78426561  0.47438107  0.49084197  1  0.101719  -1e-06  0.967279  0.0  0.107035  1e-05  1.037103  0.0  0.110871  7e-06  1.034558  0.0  0.094757  0.1045  1.4e-05  1.03856  0.0
H  H11  1  0.71583757  0.98339792  0.50923535  1  0.102015  1e-06  0.967881  0.0  0.10717  1e-05  1.037623  0.0  0.111034  6e-06  1.035076  0.0  0.095083  0.104655  1.2e-05  1.039037  0.0
H  H12  1  0.21573997  0.52561458  0.50915907  1  0.101792  -9e-06  0.96729  0.0  0.107142  1e-05  1.037066  0.0  0.110962  7e-06  1.034543  0.0  0.094833  0.104608  1.6e-05  1.038522  0.0
H  H13  1  0.28416157  0.01660936  0.49077305  1  0.102013  1.9e-05  0.967777  0.0  0.107215  1e-05  1.037475  0.0  0.111077  6e-06  1.03493  0.0  0.095109  0.104697  1.3e-05  1.038893  0.0
H  H14  1  0.75779946  0.68053570  0.47395022  1  0.111273  6e-06  0.97519  0.0  0.114509  2.8e-05  1.04811  0.0  0.118356  2.1e-05  1.045251  0.0  0.099965  0.111789  4.3e-05  1.050253  0.0
H  H15  1  0.74202179  0.20647021  0.52604609  1  0.111036  1.2e-05  0.975929  0.0  0.114039  2.8e-05  1.049124  0.0  0.117867  2.1e-05  1.046332  0.0  0.099716  0.111335  3.7e-05  1.051199  0.0
H  H16  1  0.24220197  0.31945996  0.52605434  1  0.111312  1.1e-05  0.975139  0.0  0.114559  2.8e-05  1.048043  0.0  0.118407  2.1e-05  1.045183  0.0  0.099997  0.111836  4.2e-05  1.050194  0.0
H  H17  1  0.25797710  0.79353414  0.47395791  1  0.11113  9e-06  0.97583  0.0  0.114083  2.8e-05  1.049078  0.0  0.117907  2e-05  1.046297  0.0  0.099721  0.111379  3.7e-05  1.051152  0.0
H  H18  1  0.40401006  0.18529992  0.32811708  1  0.096521  -4.8e-05  0.931559  0.0  0.103564  0.000163  1.000972  0.0  0.106182  3.7e-05  0.99828  0.0  0.109214  0.101479  0.000289  1.003339  0.0
H  H19  1  0.09627810  0.85763264  0.67223486  1  0.09653  -4.8e-05  0.931547  0.0  0.103592  0.000162  1.000835  0.0  0.106177  3.5e-05  0.998144  0.0  0.109477  0.101529  0.000277  1.003138  0.0
H  H20  1  0.59598377  0.81470731  0.67188445  1  0.096431  -5.6e-05  0.931529  0.0  0.103457  0.000163  1.000949  0.0  0.106072  3.7e-05  0.998251  0.0  0.109152  0.101376  0.000292  1.003321  0.0
H  H21  1  0.90372088  0.14237269  0.32777034  1  0.096505  -3.1e-05  0.931551  0.0  0.103566  0.000161  1.000843  0.0  0.106131  3.5e-05  0.998137  0.0  0.109448  0.101502  0.000279  1.003148  0.0
H  H22  1  0.53828261  0.09846644  0.36230376  1  0.097257  0.000107  0.901766  0.0  0.11348  0.000443  0.955781  0.0  0.114932  0.000278  0.954399  0.0  0.115074  0.112369  0.000624  0.956865  0.001
H  H23  1  0.96217832  0.73636505  0.63778270  1  0.097494  8.6e-05  0.901571  0.0  0.113611  0.000447  0.955492  0.0  0.11504  0.000281  0.954073  0.0  0.115075  0.112523  0.000629  0.95658  0.001
H  H24  1  0.46170825  0.90152821  0.63769931  1  0.097213  7.3e-05  0.901537  0.0  0.11339  0.000443  0.955601  0.0  0.114835  0.000278  0.954216  0.0  0.115049  0.112289  0.000626  0.956685  0.001
H  H25  1  0.03781947  0.26363926  0.36221486  1  0.097579  9.6e-05  0.901612  0.0  0.11368  0.000447  0.955527  0.0  0.115088  0.000281  0.954098  0.0  0.1151  0.112594  0.00063  0.956615  0.001
H  H26  1  0.22196148  0.85696800  0.17805384  1  0.088773  -3.4e-05  0.956825  0.0  0.093204  0.000264  1.025137  0.0  0.095472  0.000122  1.023896  0.0  0.117219  0.09143  0.000403  1.026302  0.001
H  H27  1  0.27822616  0.67863901  0.82165365  1  0.08777  -3.8e-05  0.957951  0.0  0.092839  0.000263  1.025586  0.0  0.095042  0.000121  1.02443  0.0  0.117125  0.091107  0.000405  1.026728  0.001
H  H28  1  0.77804351  0.14303440  0.82194444  1  0.088714  -3.6e-05  0.956854  0.0  0.093144  0.000264  1.025169  0.0  0.095403  0.000122  1.02394  0.0  0.117195  0.091373  0.000402  1.026333  0.001
H  H29  1  0.72176986  0.32135561  0.17834125  1  0.087794  -4.4e-05  0.957954  0.0  0.092802  0.000262  1.025646  0.0  0.095003  0.000121  1.02449  0.0  0.117123  0.091071  0.000406  1.026788  0.001
H  H30  1  0.21422372  0.64584760  0.18469606  1  0.100923  0.000193  0.984225  0.0  0.10704  0.000298  1.054289  0.0  0.109429  0.000222  1.054481  0.0  0.099532  0.105421  0.000338  1.053993  0.0
H  H31  1  0.28582745  0.46086651  0.81497922  1  0.100496  0.000203  0.984616  0.0  0.106969  0.000299  1.054241  0.0  0.109352  0.000222  1.054455  0.0  0.099333  0.105314  0.000335  1.054017  0.0
H  H32  1  0.78578056  0.35415871  0.81530851  1  0.100927  0.000194  0.98436  0.0  0.107045  0.000298  1.0544  0.0  0.109435  0.000222  1.05459  0.0  0.09953  0.105429  0.000338  1.054107  0.0
H  H33  1  0.71417402  0.53913010  0.18502339  1  0.100503  0.000187  0.984745  0.0  0.106982  0.000299  1.054354  0.0  0.109364  0.000223  1.054569  0.0  0.099346  0.10533  0.000335  1.054128  0.0
H  H34  1  0.05640665  0.42705029  0.07448519  1  0.104751  0.000165  0.964525  0.0  0.111219  0.000236  1.030924  0.0  0.114102  0.000165  1.031223  0.0  0.101109  0.108777  0.000261  1.031864  0.0
H  H35  1  0.44359775  0.35235620  0.92556660  1  0.104076  0.000188  0.964883  0.0  0.111305  0.000236  1.030717  0.0  0.114042  0.000164  1.031193  0.0  0.101337  0.108963  0.000262  1.03157  0.0
H  H36  1  0.94358760  0.57294823  0.92551510  1  0.104749  0.000186  0.964545  0.0  0.111208  0.000236  1.030955  0.0  0.114091  0.000165  1.031255  0.0  0.101081  0.108766  0.000262  1.031895  0.0
H  H37  1  0.55639862  0.64764233  0.07443628  1  0.10409  0.00018  0.964862  0.0  0.111359  0.000236  1.0306  0.0  0.114097  0.000164  1.031076  0.0  0.101345  0.109014  0.000262  1.031454  0.0
H  H38  1  0.05947940  0.20764243  0.06378900  1  0.09281  -0.000337  0.993615  0.0  0.099261  5.6e-05  1.056666  0.0  0.102224  -0.000118  1.054635  0.0  0.120824  0.097001  0.000249  1.058381  0.001
H  H39  1  0.44053462  0.14386552  0.93665327  1  0.092387  -0.000329  0.994391  0.0  0.098861  6.3e-05  1.057488  0.0  0.101819  -0.000113  1.055471  0.0  0.120546  0.096604  0.000256  1.059165  0.001
H  H40  1  0.94051685  0.79235510  0.93620793  1  0.092815  -0.000341  0.993561  0.0  0.099239  5.7e-05  1.056637  0.0  0.1022  -0.000118  1.054606  0.0  0.120814  0.09698  0.00025  1.058348  0.001
H  H41  1  0.55946384  0.85613301  0.06334825  1  0.092436  -0.000335  0.994393  0.0  0.098879  6.3e-05  1.057534  0.0  0.101843  -0.000113  1.055502  0.0  0.120543  0.096621  0.000256  1.059215  0.001
C  C42  1  0.55576655  0.61252805  0.36046526  1  0.113558  -9e-06  3.805838  0.0  0.12313  9.7e-05  4.074375  0.0  0.12499  6.1e-05  4.094707  0.0  -0.003723  0.121873  0.000174  4.060422  0.0
C  C43  1  0.94402374  0.25222870  0.63957898  1  0.11387  6.2e-05  3.806942  0.0  0.123741  9.6e-05  4.075134  0.0  0.125605  6.3e-05  4.095495  0.0  -0.003098  0.122531  0.000138  4.061112  0.0
C  C44  1  0.44423716  0.38747051  0.63953838  1  0.113483  5.1e-05  3.805693  0.0  0.123088  9.6e-05  4.074204  0.0  0.12495  6.1e-05  4.094535  0.0  -0.003758  0.121833  0.000148  4.060249  0.0
C  C45  1  0.05597943  0.74777664  0.36042666  1  0.113942  3e-05  3.807001  0.0  0.123836  9.7e-05  4.075137  0.0  0.12572  6.4e-05  4.095469  0.0  -0.003036  0.122611  0.000131  4.061133  0.0
C  C46  1  0.45143890  0.51127755  0.30065856  1  -0.107568  1e-05  3.78163  0.0  -0.132028  1e-05  4.037073  0.0  -0.13177  -7e-06  4.056555  0.0  -0.101772  -0.131661  4.6e-05  4.023093  0.0
C  C47  1  0.04836113  0.21099867  0.69952063  1  -0.10683  -4.4e-05  3.782671  0.0  -0.131761  1.1e-05  4.03777  0.0  -0.131526  -8e-06  4.057266  0.0  -0.101458  -0.131335  2.2e-05  4.023606  0.0
C  C48  1  0.54856774  0.48871812  0.69934417  1  -0.107626  -8e-06  3.781773  0.0  -0.132144  1e-05  4.037165  0.0  -0.131891  -7e-06  4.05665  0.0  -0.101774  -0.131778  4.2e-05  4.023184  0.0
C  C49  1  0.95163801  0.78900953  0.30047947  1  -0.106807  3e-06  3.782245  0.0  -0.131744  1e-05  4.03732  0.0  -0.131514  -1e-05  4.056805  0.0  -0.10141  -0.131316  2.4e-05  4.023164  0.0
C  C50  1  0.46679990  0.39634879  0.30898229  1  -0.18524  -4.2e-05  3.747752  0.0  -0.202085  -9e-06  3.997477  0.0  -0.208094  -5.4e-05  4.01865  0.0  -0.106543  -0.198742  0.000137  3.983661  0.0
C  C51  1  0.03316119  0.08773878  0.69124898  1  -0.185796  -3.6e-05  3.748784  0.0  -0.202411  -9e-06  3.998497  0.0  -0.208392  -5.4e-05  4.019606  0.0  -0.106928  -0.198929  7.6e-05  3.984419  0.0
C  C52  1  0.53320261  0.60364782  0.69101883  1  -0.184933  -8.2e-05  3.74778  0.0  -0.201766  -8e-06  3.997474  0.0  -0.207773  -5.4e-05  4.018651  0.0  -0.106397  -0.198424  0.00015  3.983657  0.0
C  C53  1  0.96684951  0.91226948  0.30875549  1  -0.1858  -3.2e-05  3.748885  0.0  -0.202415  -1e-05  3.998662  0.0  -0.2084  -5.2e-05  4.019776  0.0  -0.106988  -0.198937  7.5e-05  3.984592  0.0
C  C54  1  0.58649445  0.38402349  0.37890226  1  0.277191  1e-06  3.79124  0.0  0.267344  4.7e-05  4.04916  0.0  0.27844  -1.4e-05  4.065451  0.0  0.085183  0.259648  0.000165  4.03863  0.0
C  C55  1  0.91360781  0.00527742  0.62118786  1  0.276859  -5.1e-05  3.791661  0.0  0.266531  4.5e-05  4.050268  0.0  0.277757  -1.6e-05  4.066473  0.0  0.085001  0.258762  0.00012  4.039753  0.0
C  C56  1  0.41350960  0.61596539  0.62109974  1  0.27707  -3.8e-05  3.791473  0.0  0.267336  4.8e-05  4.049232  0.0  0.278399  -1.4e-05  4.065531  0.0  0.085172  0.259639  0.000156  4.038698  0.0
C  C57  1  0.08639216  0.99472788  0.37881270  1  0.27707  -1.8e-05  3.791578  0.0  0.266655  4.5e-05  4.050308  0.0  0.277878  -1.7e-05  4.066525  0.0  0.084974  0.25888  0.000116  4.039793  0.0
C  C58  1  0.69153183  0.48635494  0.43774240  1  -0.162703  -5e-06  3.742794  0.0  -0.181072  0.000119  3.996287  0.0  -0.186012  8e-05  4.015398  0.0  -0.101919  -0.178032  8.8e-05  3.983264  0.0
C  C59  1  0.80851473  0.04860522  0.56232091  1  -0.163173  7.3e-05  3.7441  0.0  -0.181026  0.000119  3.997329  0.0  -0.186084  8.1e-05  4.016566  0.0  -0.102338  -0.178044  0.000167  3.984275  0.0
C  C60  1  0.30847606  0.51364363  0.56226009  1  -0.162783  8.2e-05  3.74297  0.0  -0.181226  0.000118  3.996472  0.0  -0.186154  8e-05  4.015597  0.0  -0.102014  -0.178187  8.4e-05  3.983455  0.0
C  C61  1  0.19148126  0.95140204  0.43768637  1  -0.163188  -2.7e-05  3.743896  0.0  -0.18105  0.00012  3.99714  0.0  -0.186106  8.1e-05  4.016377  0.0  -0.102318  -0.178066  0.000167  3.984077  0.0
C  C62  1  0.67671782  0.60068791  0.42879935  1  -0.124678  9.7e-05  3.779166  0.0  -0.14817  0.000104  4.035347  0.0  -0.148762  6.5e-05  4.054727  0.0  -0.102397  -0.147386  0.000152  4.021879  0.0
C  C63  1  0.82315469  0.17188244  0.57121561  1  -0.124311  1.7e-05  3.779545  0.0  -0.147739  0.000104  4.035549  0.0  -0.148337  6.4e-05  4.054909  0.0  -0.102065  -0.146945  0.000144  4.022026  0.0
C  C64  1  0.32328133  0.39930579  0.57120180  1  -0.124617  2.3e-05  3.778877  0.0  -0.148128  0.000105  4.035041  0.0  -0.14872  6.6e-05  4.054417  0.0  -0.102388  -0.147342  0.000176  4.021572  0.0
C  C65  1  0.17684328  0.82812383  0.42878673  1  -0.124436  6.2e-05  3.779667  0.0  -0.147826  0.000103  4.035676  0.0  -0.148433  6.4e-05  4.055034  0.0  -0.102101  -0.147025  0.000153  4.022151  0.0
C  C66  1  0.51513476  0.16493656  0.32342557  1  -0.073247  0.001623  3.629882  0.002  -0.133867  0.002394  3.901519  0.002  -0.130183  0.001685  3.901025  0.002  -0.066772  -0.136436  0.003211  3.90218  0.002
C  C67  1  0.98513751  0.84176760  0.67673692  1  -0.074543  0.001657  3.629991  0.002  -0.134752  0.002382  3.901377  0.002  -0.130834  0.001674  3.900705  0.002  -0.068032  -0.137484  0.003228  3.902124  0.002
C  C68  1  0.48486150  0.83506006  0.67658045  1  -0.072986  0.001707  3.629554  0.002  -0.133518  0.002393  3.901078  0.002  -0.129829  0.001686  3.900533  0.002  -0.066629  -0.136115  0.003208  3.90177  0.002
C  C69  1  0.01486356  0.15823865  0.32326100  1  -0.074629  0.001597  3.630128  0.002  -0.134799  0.002383  3.901495  0.002  -0.130766  0.001671  3.90067  0.002  -0.068071  -0.137534  0.003222  3.90225  0.002
C  C70  1  0.53859896  0.09435611  0.19188059  1  0.672952  0.010356  3.878262  0.011  0.620418  0.017453  4.184935  0.017  0.654366  0.012953  4.177841  0.013  0.216427  0.59677  0.021921  4.188242  0.02
C  C71  1  0.96143595  0.90268563  0.80819338  1  0.67397  0.010334  3.876933  0.011  0.621104  0.017466  4.184039  0.017  0.655041  0.012959  4.176859  0.013  0.217536  0.597472  0.021933  4.187423  0.02
C  C72  1  0.46140041  0.90564049  0.80812100  1  0.672826  0.010349  3.87839  0.011  0.620322  0.017466  4.184999  0.017  0.654264  0.012963  4.1779  0.013  0.21649  0.596679  0.021944  4.188313  0.02
C  C73  1  0.03854410  0.09731960  0.19180512  1  0.673833  0.010357  3.876942  0.011  0.620941  0.01746  4.184115  0.017  0.654855  0.012952  4.176929  0.013  0.217437  0.597311  0.021919  4.187504  0.02
C  C74  1  0.23356361  0.76611604  0.09934559  1  0.13381  0.00096  3.687685  0.001  0.105419  0.002989  3.936883  0.003  0.112048  0.00227  3.955227  0.002  0.052878  0.100717  0.003993  3.925246  0.003
C  C75  1  0.26656790  0.66655100  0.90034932  1  0.13485  0.000985  3.687505  0.001  0.106013  0.002982  3.936841  0.003  0.112663  0.002266  3.955238  0.002  0.053023  0.101272  0.004006  3.925168  0.003
C  C76  1  0.76643999  0.23388152  0.90065289  1  0.133931  0.001029  3.687423  0.001  0.105537  0.002991  3.936623  0.003  0.112176  0.002272  3.954965  0.002  0.05293  0.100836  0.003999  3.924988  0.003
C  C77  1  0.73343451  0.33344463  0.09964981  1  0.134883  0.001052  3.68725  0.001  0.106096  0.002982  3.9366  0.003  0.112747  0.002268  3.954997  0.002  0.053015  0.101355  0.004006  3.924929  0.003
C  C78  1  0.22998007  0.64820433  0.10237121  1  -0.172089  0.000211  3.727645  0.0  -0.191151  0.00033  3.978408  0.0  -0.198774  -3.9e-05  4.00027  0.0  -0.088608  -0.185933  0.000659  3.9642  0.001
C  C79  1  0.27006059  0.54558709  0.89730665  1  -0.17216  0.000163  3.728427  0.0  -0.191648  0.000332  3.979304  0.0  -0.199283  -3.9e-05  4.001177  0.0  -0.088475  -0.186428  0.000666  3.965143  0.001
C  C80  1  0.77002314  0.35180196  0.89763088  1  -0.172088  0.000114  3.727617  0.0  -0.191144  0.000331  3.97838  0.0  -0.198765  -4.2e-05  4.000243  0.0  -0.088572  -0.185932  0.000657  3.964178  0.001
C  C81  1  0.72994244  0.45441632  0.10269894  1  -0.172157  0.000152  3.728336  0.0  -0.191655  0.000333  3.979216  0.0  -0.19929  -4.2e-05  4.001092  0.0  -0.088451  -0.186436  0.000667  3.965054  0.001
C  C82  1  0.24999524  0.53483338  0.99983864  1  0.084229  0.000648  3.782832  0.0  0.097094  0.001934  4.010389  0.001  0.100883  0.001547  4.031066  0.001  0.005224  0.094697  0.002679  3.996737  0.002
C  C83  1  0.75000656  0.46516806  0.00016127  1  0.084164  0.000712  3.782975  0.001  0.097032  0.001934  4.010562  0.001  0.100802  0.001549  4.031237  0.001  0.005168  0.094636  0.002684  3.996908  0.002
C  C84  1  0.24997839  0.40818241  0.99995460  1  0.0917  0.002264  3.781601  0.002  0.106601  0.003395  4.006002  0.003  0.110595  0.002985  4.026821  0.002  0.010541  0.10361  0.004491  3.992166  0.004
C  C85  1  0.75002008  0.59181613  0.00004850  1  0.091781  0.002235  3.781501  0.002  0.106616  0.003393  4.006004  0.003  0.110666  0.00298  4.026745  0.002  0.010506  0.10363  0.004486  3.992163  0.004
C  C86  1  0.14283448  0.36682615  0.04163187  1  -0.164056  -0.001804  3.711621  -0.001  -0.180342  -0.001026  3.957227  0.0  -0.188337  -0.001629  3.978645  -0.001  -0.085523  -0.175371  -0.00072  3.944191  0.0
C  C87  1  0.35715877  0.32510569  0.95846513  1  -0.163807  -0.001924  3.709462  -0.001  -0.180754  -0.001024  3.955446  0.0  -0.188639  -0.001626  3.976935  -0.001  -0.086237  -0.175866  -0.000729  3.94241  0.0
C  C88  1  0.85716405  0.63317335  0.95837007  1  -0.164155  -0.00188  3.711474  -0.001  -0.180425  -0.001026  3.957116  0.0  -0.188439  -0.001623  3.978516  -0.001  -0.085537  -0.175454  -0.000716  3.944076  0.0
C  C89  1  0.64283962  0.67489187  0.04153677  1  -0.163906  -0.001853  3.709446  -0.001  -0.180826  -0.001024  3.955448  0.0  -0.188729  -0.00162  3.976923  -0.001  -0.086236  -0.175938  -0.000726  3.94241  0.0
C  C90  1  0.14488760  0.24537316  0.03758991  1  0.128039  0.002762  3.68176  0.003  0.101034  0.004617  3.929033  0.004  0.107556  0.00389  3.947135  0.004  0.048514  0.09657  0.00588  3.917104  0.005
C  C91  1  0.35512306  0.20783004  0.96275889  1  0.128511  0.00276  3.680865  0.003  0.101134  0.004631  3.928809  0.004  0.107666  0.003898  3.946848  0.004  0.049422  0.096657  0.005919  3.916979  0.005
C  C92  1  0.85510771  0.75462536  0.96241128  1  0.128106  0.002771  3.682082  0.003  0.101116  0.004616  3.929344  0.004  0.107642  0.003883  3.947446  0.004  0.048548  0.096654  0.005876  3.917413  0.005
C  C93  1  0.64487637  0.79216752  0.03724153  1  0.128511  0.002773  3.680881  0.003  0.101138  0.004628  3.928826  0.004  0.107671  0.00389  3.946868  0.004  0.049394  0.096662  0.005916  3.916995  0.005
N  N94  1  0.25007718  0.77534463  0.99985239  1  -0.308807  0.026213  3.204932  0.017  -0.236901  0.030411  3.466668  0.018  -0.254684  0.027275  3.48143  0.015  -0.308186  -0.224313  0.033636  3.457113  0.021
N  N95  1  0.74991689  0.22465192  0.00014312  1  -0.308879  0.026153  3.204988  0.017  -0.236926  0.030415  3.466641  0.018  -0.25471  0.027277  3.481394  0.015  -0.308169  -0.224339  0.033644  3.457086  0.021
N  N96  1  0.24999976  0.16693937  0.00022478  1  -0.337231  0.024184  3.211747  0.011  -0.26887  0.028814  3.488637  0.011  -0.288092  0.026077  3.503716  0.009  -0.313197  -0.255095  0.031515  3.478239  0.012
N  N97  1  0.75000263  0.83305531  0.99977869  1  -0.337259  0.024179  3.212166  0.011  -0.268883  0.028807  3.489014  0.011  -0.28811  0.026077  3.504099  0.009  -0.313171  -0.255112  0.031503  3.478617  0.012
Cl  Cl98  1  0.53631733  0.75497587  0.34782732  1  -0.118115  3e-06  1.305902  0.0  -0.090467  8.2e-05  1.522042  0.0  -0.094004  3.6e-05  1.517322  0.0  -0.002629  -0.087661  0.000105  1.524763  0.0
Cl  Cl99  1  0.96336265  0.40731711  0.65217584  1  -0.118294  2e-06  1.306162  0.0  -0.090776  8.1e-05  1.522378  0.0  -0.094334  3.5e-05  1.51766  0.0  -0.002967  -0.087962  0.000109  1.525055  0.0
Cl  Cl100  1  0.46368933  0.24501980  0.65217699  1  -0.118101  3e-06  1.305802  0.0  -0.090467  8.1e-05  1.521933  0.0  -0.094006  3.6e-05  1.517215  0.0  -0.002627  -0.087662  0.000101  1.524654  0.0
Cl  Cl101  1  0.03664143  0.59268722  0.34782236  1  -0.11829  -1e-06  1.3062  0.0  -0.090797  8.1e-05  1.522419  0.0  -0.094358  3.6e-05  1.517686  0.0  -0.002995  -0.087979  0.000111  1.525101  0.0
O  O102  1  0.60861725  0.27751959  0.39642485  1  -0.267598  0.000158  2.363115  0.0  -0.201589  0.000446  2.602406  0.001  -0.219035  0.000271  2.605486  0.0  -0.181226  -0.189326  0.000667  2.600149  0.001
O  O103  1  0.89165140  0.88117606  0.60359106  1  -0.266476  0.000143  2.362851  0.0  -0.200624  0.000446  2.602115  0.001  -0.21832  0.00027  2.605264  0.0  -0.180463  -0.188242  0.000687  2.599801  0.001
O  O104  1  0.39137073  0.72246810  0.60354740  1  -0.26784  0.000151  2.362797  0.0  -0.201878  0.000449  2.602022  0.001  -0.219266  0.000272  2.60505  0.0  -0.181369  -0.189607  0.00067  2.599776  0.001
O  O105  1  0.10836898  0.11883700  0.39640220  1  -0.26665  0.000156  2.362503  0.0  -0.200741  0.000444  2.601759  0.001  -0.218473  0.000271  2.604872  0.0  -0.180422  -0.188353  0.000684  2.599444  0.001
O  O106  1  0.44036673  0.01133504  0.11960503  1  -0.659611  0.030761  2.125865  0.017  -0.595585  0.03968  2.409087  0.022  -0.625168  0.034977  2.393539  0.018  -0.31774  -0.573049  0.044776  2.419129  0.026
O  O107  1  0.05935745  0.89163276  0.88046093  1  -0.660097  0.030772  2.125455  0.017  -0.596127  0.039638  2.409115  0.022  -0.625806  0.03495  2.393775  0.018  -0.318721  -0.573659  0.044772  2.419152  0.026
O  O108  1  0.55964846  0.98861998  0.88038946  1  -0.659482  0.030781  2.126279  0.017  -0.595382  0.039692  2.409423  0.022  -0.624973  0.03499  2.393903  0.018  -0.31772  -0.572842  0.044788  2.419449  0.026
O  O109  1  0.94063075  0.10838316  0.11954287  1  -0.659801  0.030759  2.125151  0.017  -0.595988  0.039632  2.409023  0.022  -0.625682  0.034945  2.393705  0.018  -0.318658  -0.573528  0.04477  2.419065  0.026
O  O110  1  0.65473517  0.11691663  0.16691627  1  -0.628316  0.031328  2.04608  0.022  -0.569952  0.041061  2.316414  0.028  -0.597769  0.036092  2.30326  0.024  -0.302673  -0.549098  0.046234  2.324857  0.033
O  O111  1  0.84540174  0.95052551  0.83309235  1  -0.628378  0.031347  2.046456  0.022  -0.56966  0.041033  2.31644  0.028  -0.597544  0.036066  2.303455  0.024  -0.302311  -0.548844  0.04625  2.324742  0.033
O  O112  1  0.34522992  0.88311371  0.83308332  1  -0.628293  0.031351  2.045909  0.022  -0.570012  0.041085  2.316285  0.028  -0.597841  0.036113  2.303141  0.024  -0.302731  -0.549148  0.046263  2.324725  0.033
O  O113  1  0.15458630  0.04947580  0.16689349  1  -0.628429  0.031325  2.046308  0.022  -0.569684  0.041025  2.31634  0.028  -0.597538  0.036058  2.303297  0.024  -0.302305  -0.548865  0.046248  2.324644  0.033
