# generated using pymatgen
data_Cu4SiH24(C11N2)4
_symmetry_space_group_name_H-M   'P 1'
_cell_length_a   31.92168657
_cell_length_b   31.95710847
_cell_length_c   32.87913590
_cell_angle_alpha   89.97139155
_cell_angle_beta   90.00178722
_cell_angle_gamma   89.94018584
_symmetry_Int_Tables_number   1
_chemical_formula_structural   Cu4SiH24(C11N2)4
_chemical_formula_sum   'Cu12 Si3 H72 C132 N24'
_cell_volume   33540.79946513
_cell_formula_units_Z   3
loop_
 _symmetry_equiv_pos_site_id
 _symmetry_equiv_pos_as_xyz
  1  'x, y, z'
loop_
 _atom_site_type_symbol
 _atom_site_label
 _atom_site_symmetry_multiplicity
 _atom_site_fract_x
 _atom_site_fract_y
 _atom_site_fract_z
 _atom_site_occupancy
 _atom_site_pbe_bader_charge
 _atom_site_pbe_bader_spin_density
 _atom_site_pbe_cm5_charge
 _atom_site_pbe_ddec_charge
 _atom_site_pbe_ddec_spin_density
 _atom_site_pbe_ddec_sum_bond_order
 _atom_site_pbe_magmom
Cu  Cu0  1  0.76784548  0.76770379  0.83387530  1  0.529433  0  0.493197  0.210858  0  2.119066  0
Cu  Cu1  1  0.84080081  0.77144756  0.76882025  1  0.526377  0  0.490752  0.211447  0  2.101236  0
Cu  Cu2  1  0.76976290  0.84215062  0.77043802  1  0.535541  0  0.49056  0.211176  0  2.100729  0
Cu  Cu3  1  0.76784707  0.23249065  0.16446212  1  0.531685  0  0.492401  0.211137  0  2.11631  0
Cu  Cu4  1  0.84148323  0.23039163  0.22884615  1  0.524862  0  0.489046  0.212018  0  2.093275  0
Cu  Cu5  1  0.77045909  0.15963742  0.22971684  1  0.544438  0  0.49049  0.211361  0  2.099632  0
Cu  Cu6  1  0.23284870  0.76674547  0.16809277  1  0.53708  0  0.492301  0.212082  0  2.110476  0
Cu  Cu7  1  0.15811455  0.76993699  0.23146913  1  0.545265  0  0.489778  0.211255  0  2.097284  0
Cu  Cu8  1  0.22902487  0.84043905  0.23239160  1  0.542446  0  0.490438  0.211445  0  2.100197  0
Cu  Cu9  1  0.23354398  0.23141670  0.83314274  1  0.529833  0  0.491534  0.211187  0  2.111112  0
Cu  Cu10  1  0.15959588  0.22904058  0.76880640  1  0.563988  0  0.489628  0.211114  0  2.095517  0
Cu  Cu11  1  0.23005790  0.15763382  0.76930521  1  0.521842  0  0.490819  0.210994  0  2.1038  0
Si  Si12  1  0.99876850  0.00094756  0.49998906  1  2.682077  0  0.134917  0.668236  0  3.865423  0
Si  Si13  1  0.00120536  0.50039038  0.99861008  1  2.691867  0  0.132891  0.670923  0  3.874451  0
Si  Si14  1  0.49953976  0.99890398  0.00158817  1  2.69964  0  0.12997  0.672483  0  3.888859  0
H  H15  1  0.79638094  0.68998489  0.88667945  1  0.123175  0  0.126133  0.119651  0  0.980222  0
H  H16  1  0.90035972  0.69859824  0.80229782  1  0.067  0  0.126235  0.119871  0  0.979801  0
H  H17  1  0.69641693  0.89986919  0.80594245  1  0.128011  0  0.126183  0.119448  0  0.979934  0
H  H18  1  0.69152819  0.79493736  0.88937004  1  0.111729  0  0.126176  0.119994  0  0.980558  0
H  H19  1  0.89449962  0.80193097  0.69323991  1  0.093475  0  0.126006  0.119671  0  0.980797  0
H  H20  1  0.79892388  0.89833764  0.69613867  1  0.12091  0  0.125853  0.118972  0  0.98135  0
H  H21  1  0.79569847  0.30880642  0.10943091  1  0.108727  0  0.125824  0.119845  0  0.980499  0
H  H22  1  0.89975390  0.30363797  0.19398475  1  0.131432  0  0.126105  0.119552  0  0.980544  0
H  H23  1  0.69704174  0.10093696  0.19602189  1  0.146431  0  0.126379  0.120517  0  0.97983  0
H  H24  1  0.69083489  0.20409385  0.11060163  1  0.12473  0  0.126007  0.119301  0  0.98066  0
H  H25  1  0.89665067  0.20094002  0.30391373  1  0.133064  0  0.125789  0.119215  0  0.981461  0
H  H26  1  0.80019042  0.10560013  0.30532157  1  0.102928  0  0.125753  0.119422  0  0.980185  0
H  H27  1  0.20537878  0.68978935  0.11370405  1  0.08879  0  0.126264  0.119912  0  0.980424  0
H  H28  1  0.09958692  0.69748713  0.19601323  1  0.114567  0  0.126022  0.119811  0  0.981212  0
H  H29  1  0.30187891  0.89940218  0.19840727  1  0.120579  0  0.126202  0.119696  0  0.979561  0
H  H30  1  0.31075657  0.79480533  0.11498382  1  0.094167  0  0.126209  0.11994  0  0.98035  0
H  H31  1  0.10214437  0.79984029  0.30579810  1  0.11443  0  0.125972  0.119873  0  0.980971  0
H  H32  1  0.19860584  0.89518450  0.30734714  1  0.079994  0  0.125869  0.119565  0  0.980667  0
H  H33  1  0.20585540  0.30840883  0.88732678  1  0.104336  0  0.125804  0.11955  0  0.980596  0
H  H34  1  0.10155087  0.30269212  0.80312363  1  0.107371  0  0.126484  0.120201  0  0.979907  0
H  H35  1  0.30249375  0.09830293  0.80404009  1  0.131401  0  0.12615  0.119943  0  0.979471  0
H  H36  1  0.31107755  0.20334100  0.88695750  1  0.118915  0  0.126195  0.120015  0  0.980285  0
H  H37  1  0.10474991  0.19926152  0.69361003  1  0.112352  0  0.125846  0.11982  0  0.979824  0
H  H38  1  0.19996068  0.10247403  0.69486562  1  0.097944  0  0.126003  0.119309  0  0.981778  0
H  H39  1  0.98132190  0.61584075  0.89791506  1  0.059663  0  0.103532  0.10586  0  0.991777  0
H  H40  1  0.02231776  0.56616651  0.93958404  1  0.015658  0  0.103155  0.094473  0  0.993948  0
H  H41  1  0.90758168  0.51375847  0.98683422  1  0.059264  0  0.097544  0.089471  0  1.020816  0
H  H42  1  0.86672454  0.56409345  0.94553172  1  0.076529  0  0.103083  0.105098  0  0.992647  0
H  H43  1  0.89665923  0.38544496  0.01840098  1  0.081241  0  0.103814  0.106102  0  0.991579  0
H  H44  1  0.93909541  0.43505537  0.97817878  1  0.012293  0  0.102774  0.093624  0  0.993913  0
H  H45  1  0.98917807  0.48731013  0.08901396  1  0.071889  0  0.097887  0.090429  0  1.021131  0
H  H46  1  0.94709830  0.43702968  0.12914203  1  0.037345  0  0.1028  0.104885  0  0.992225  0
H  H47  1  0.13540836  0.56404883  0.05229885  1  0.074821  0  0.103111  0.105395  0  0.991974  0
H  H48  1  0.09483092  0.51375538  0.01082250  1  0.05877  0  0.097469  0.088905  0  1.020683  0
H  H49  1  0.97978111  0.56625240  0.05738240  1  0.016227  0  0.103008  0.093886  0  0.99482  0
H  H50  1  0.02045451  0.61592110  0.09920780  1  0.074463  0  0.10332  0.105348  0  0.991731  0
H  H51  1  0.10517206  0.38490942  0.97795556  1  0.073449  0  0.103788  0.106288  0  0.991643  0
H  H52  1  0.06323162  0.43470142  0.01853603  1  0.051637  0  0.102843  0.094132  0  0.993682  0
H  H53  1  0.01278161  0.48769448  0.90810186  1  0.068944  0  0.097773  0.089788  0  1.02158  0
H  H54  1  0.05436051  0.43727015  0.86762151  1  0.064569  0  0.102975  0.104827  0  0.992655  0
H  H55  1  0.56296649  0.94588377  0.87088880  1  0.03878  0  0.103085  0.105067  0  0.991969  0
H  H56  1  0.51233351  0.98748446  0.91129127  1  0.062859  0  0.097616  0.089888  0  1.022311  0
H  H57  1  0.56539409  0.93743964  0.02186719  1  0.010765  0  0.103219  0.094271  0  0.993738  0
H  H58  1  0.61536936  0.89545460  0.98136828  1  0.072652  0  0.103545  0.105273  0  0.991841  0
H  H59  1  0.38420350  0.01833577  0.90073215  1  0.068004  0  0.103463  0.105412  0  0.99178  0
H  H60  1  0.43368340  0.97751374  0.94285605  1  0.011191  0  0.103247  0.094315  0  0.9939  0
H  H61  1  0.48641404  0.09225672  0.98937499  1  0.061951  0  0.09785  0.089847  0  1.020065  0
H  H62  1  0.43628957  0.13298117  0.94762577  1  0.019498  0  0.102915  0.104901  0  0.992125  0
H  H63  1  0.56323861  0.05253131  0.13193406  1  0.083001  0  0.103312  0.105436  0  0.991878  0
H  H64  1  0.51266025  0.01063358  0.09185590  1  0.071336  0  0.097804  0.089747  0  1.021422  0
H  H65  1  0.56517355  0.06028049  0.98092681  1  0.031287  0  0.102907  0.093969  0  0.993885  0
H  H66  1  0.61509454  0.10254746  0.02109847  1  0.045177  0  0.103925  0.106399  0  0.991065  0
H  H67  1  0.43665977  0.86476566  0.05547479  1  0.08125  0  0.103173  0.105564  0  0.991698  0
H  H68  1  0.48678712  0.90556613  0.01386078  1  0.061534  0  0.097663  0.089579  0  1.020928  0
H  H69  1  0.43373050  0.02025026  0.06036467  1  0.014473  0  0.103289  0.094489  0  0.993836  0
H  H70  1  0.38421506  0.97937731  0.10234261  1  0.056477  0  0.103761  0.106173  0  0.990862  0
H  H71  1  0.89471513  0.98223916  0.61230946  1  0.082347  0  0.103607  0.105941  0  0.991819  0
H  H72  1  0.93669038  0.02271484  0.56303043  1  0.07547  0  0.102708  0.093543  0  0.99503  0
H  H73  1  0.98624987  0.90769055  0.51366444  1  0.069639  0  0.097341  0.089336  0  1.021118  0
H  H74  1  0.94460345  0.86735688  0.56356181  1  0.024814  0  0.102723  0.104939  0  0.99267  0
H  H75  1  0.01791819  0.89692090  0.38787072  1  0.089412  0  0.103411  0.105237  0  0.992322  0
H  H76  1  0.97729120  0.93907975  0.43689887  1  0.075412  0  0.102781  0.093925  0  0.994643  0
H  H77  1  0.09234551  0.98828538  0.48659196  1  0.067535  0  0.09756  0.089581  0  1.020878  0
H  H78  1  0.13281119  0.94641790  0.43697721  1  0.023178  0  0.102789  0.10474  0  0.992549  0
H  H79  1  0.10280631  0.01917950  0.61240959  1  0.079058  0  0.103531  0.105933  0  0.991762  0
H  H80  1  0.06057683  0.97891851  0.56320897  1  0.05732  0  0.102705  0.093837  0  0.994298  0
H  H81  1  0.01166934  0.09417103  0.51365666  1  0.066734  0  0.097689  0.089739  0  1.021045  0
H  H82  1  0.05362552  0.13430960  0.56343087  1  0.038966  0  0.102806  0.104609  0  0.993095  0
H  H83  1  0.98006612  0.10466464  0.38745706  1  0.060987  0  0.103657  0.106105  0  0.991226  0
H  H84  1  0.02043897  0.06271148  0.43681911  1  0.010689  0  0.102799  0.093797  0  0.994507  0
H  H85  1  0.90519015  0.01367024  0.48624103  1  0.061059  0  0.097652  0.089578  0  1.02044  0
H  H86  1  0.86493221  0.05527426  0.43625756  1  0.089136  0  0.102948  0.105366  0  0.99194  0
C  C87  1  0.81809291  0.69747728  0.86237720  1  0.45039  0  0.017096  -0.045481  0  3.924794  0
C  C88  1  0.85761517  0.67991613  0.85381250  1  0.075759  0  -0.028193  0.048531  0  4.19868  0
C  C89  1  0.87140899  0.70206700  0.81923317  1  0.477985  0  0.01724  -0.046007  0  3.921034  0
C  C90  1  0.70067896  0.87074299  0.82238147  1  0.39902  0  0.017362  -0.045356  0  3.92305  0
C  C91  1  0.67973677  0.85627171  0.85739438  1  0.141638  0  -0.028149  0.049182  0  4.201875  0
C  C92  1  0.69825917  0.81708814  0.86524671  1  0.424186  0  0.016433  -0.047114  0  3.928388  0
C  C93  1  0.86779118  0.82192015  0.69950147  1  0.440996  0  0.016883  -0.046114  0  3.923273  0
C  C94  1  0.85545964  0.85926938  0.68005120  1  0.106913  0  -0.028183  0.048016  0  4.197809  0
C  C95  1  0.81894984  0.87137820  0.70110890  1  0.387892  0  0.016643  -0.045873  0  3.924185  0
C  C96  1  0.81764144  0.30202646  0.13375207  1  0.456839  0  0.016213  -0.048135  0  3.926533  0
C  C97  1  0.85678735  0.32047934  0.14200581  1  0.170306  0  -0.028214  0.04906  0  4.199703  0
C  C98  1  0.87082991  0.29945102  0.17717463  1  0.35974  0  0.017076  -0.045699  0  3.92471  0
C  C99  1  0.70100836  0.12973367  0.17898106  1  0.388636  0  0.016813  -0.046848  0  3.923547  0
C  C100  1  0.67962268  0.14343157  0.14390967  1  0.127541  0  -0.027784  0.049656  0  4.204671  0
C  C101  1  0.69791516  0.18247180  0.13509258  1  0.418389  0  0.016205  -0.046063  0  3.929129  0
C  C102  1  0.86973978  0.18100151  0.29854808  1  0.370635  0  0.016399  -0.04613  0  3.923759  0
C  C103  1  0.85738778  0.14445184  0.31934623  1  0.158604  0  -0.027868  0.047792  0  4.195105  0
C  C104  1  0.82026381  0.13227828  0.29938924  1  0.402985  0  0.016839  -0.046125  0  3.922648  0
C  C105  1  0.18311629  0.69702827  0.13760732  1  0.463007  0  0.016391  -0.046532  0  3.926281  0
C  C106  1  0.14342102  0.67939893  0.14513495  1  0.081446  0  -0.027574  0.050084  0  4.196975  0
C  C107  1  0.12886362  0.70116047  0.17966262  1  0.458191  0  0.016942  -0.046638  0  3.923434  0
C  C108  1  0.29843848  0.87033107  0.18173422  1  0.443954  0  0.017112  -0.045618  0  3.922281  0
C  C109  1  0.32063147  0.85624276  0.14729433  1  0.102685  0  -0.027577  0.049104  0  4.200347  0
C  C110  1  0.30313717  0.81668554  0.13908004  1  0.445733  0  0.016571  -0.046586  0  3.923985  0
C  C111  1  0.12913577  0.81970977  0.30055586  1  0.444759  0  0.016606  -0.047426  0  3.924938  0
C  C112  1  0.14128608  0.85642218  0.32114158  1  0.071468  0  -0.027845  0.050037  0  4.196268  0
C  C113  1  0.17860844  0.86844747  0.30145226  1  0.503723  0  0.016789  -0.046633  0  3.924045  0
C  C114  1  0.18385322  0.30145477  0.86312883  1  0.41438  0  0.016161  -0.047549  0  3.926291  0
C  C115  1  0.14468366  0.31991575  0.85480634  1  0.115829  0  -0.027716  0.049474  0  4.196969  0
C  C116  1  0.13053392  0.29859388  0.81988649  1  0.44002  0  0.016699  -0.046231  0  3.923852  0
C  C117  1  0.29900738  0.12747422  0.82055411  1  0.398689  0  0.017447  -0.045947  0  3.92109  0
C  C118  1  0.32100523  0.14165995  0.85506237  1  0.184764  0  -0.027981  0.049126  0  4.199549  0
C  C119  1  0.30357384  0.18135773  0.86293348  1  0.382547  0  0.016627  -0.046833  0  3.924609  0
C  C120  1  0.13147787  0.17914892  0.69943921  1  0.426977  0  0.01705  -0.047296  0  3.922979  0
C  C121  1  0.14346207  0.14192332  0.67958423  1  0.139071  0  -0.02778  0.049579  0  4.19664  0
C  C122  1  0.18012298  0.12948962  0.70020491  1  0.425755  0  0.016214  -0.046953  0  3.925339  0
C  C123  1  0.92114760  0.59323486  0.91863778  1  0.025211  0  -0.001616  0.146702  0  4.120916  0
C  C124  1  0.96537047  0.59316552  0.91723515  1  0.092486  0  -0.086908  -0.131442  0  3.946857  0
C  C125  1  0.98811624  0.56496420  0.94064686  1  -0.062486  0  -0.083593  -0.063046  0  4.039821  0
C  C126  1  0.87897083  0.64867842  0.87560705  1  -0.476108  0  -0.056123  -0.102253  0  4.184645  0
C  C127  1  0.92408022  0.53584170  0.96721199  1  -0.058301  0  -0.086723  -0.064394  0  4.040388  0
C  C128  1  0.90084822  0.56409557  0.94410531  1  -0.120463  0  -0.088494  -0.132058  0  3.945198  0
C  C129  1  0.89804391  0.62250412  0.89534926  1  0.135461  0  -0.053464  -0.125521  0  4.151072  0
C  C130  1  0.96810604  0.53556241  0.96599264  1  -0.612063  0  -0.061518  -0.218157  0  3.985748  0
C  C131  1  0.91899813  0.40771179  0.07663369  1  0.110851  0  -0.002108  0.145925  0  4.117609  0
C  C132  1  0.91680506  0.40801179  0.03372459  1  -0.02714  0  -0.086717  -0.131962  0  3.94557  0
C  C133  1  0.94069890  0.43618179  0.01136907  1  -0.047865  0  -0.0829  -0.060966  0  4.033365  0
C  C134  1  0.87752812  0.35170217  0.11961226  1  -0.388433  0  -0.055286  -0.101521  0  4.18248  0
C  C135  1  0.96885149  0.46517052  0.07324837  1  -0.129163  0  -0.087672  -0.067667  0  4.045813  0
C  C136  1  0.94529980  0.43698672  0.09603729  1  -0.000364  0  -0.087199  -0.129084  0  3.944431  0
C  C137  1  0.89616275  0.37801315  0.09968331  1  -0.001005  0  -0.054344  -0.126609  0  4.148561  0
C  C138  1  0.96727731  0.46534499  0.03053460  1  -0.60417  0  -0.061173  -0.216595  0  3.982895  0
C  C139  1  0.08081534  0.59325835  0.07889988  1  0.020019  0  -0.002137  0.144562  0  4.120455  0
C  C140  1  0.10127425  0.56409420  0.05354821  1  -0.069656  0  -0.088531  -0.131837  0  3.943706  0
C  C141  1  0.07819028  0.53583757  0.03035085  1  -0.07502  0  -0.086827  -0.064137  0  4.040096  0
C  C142  1  0.12249100  0.64844366  0.12262169  1  -0.48592  0  -0.055456  -0.10249  0  4.182697  0
C  C143  1  0.01398940  0.56500057  0.05653461  1  0.00111  0  -0.083177  -0.061808  0  4.036781  0
C  C144  1  0.03656095  0.59321616  0.08001945  1  -0.024318  0  -0.08632  -0.129995  0  3.944261  0
C  C145  1  0.10369916  0.62245663  0.10244377  1  0.092039  0  -0.053565  -0.124649  0  4.148156  0
C  C146  1  0.03416804  0.53553975  0.03134349  1  -0.55536  0  -0.061676  -0.218341  0  3.982015  0
C  C147  1  0.08266749  0.40759136  0.91990841  1  0.149062  0  -0.002007  0.145591  0  4.118808  0
C  C148  1  0.08508522  0.40770917  0.96280284  1  -0.087406  0  -0.086521  -0.131436  0  3.946367  0
C  C149  1  0.06147015  0.43597568  0.98535949  1  -0.102483  0  -0.082436  -0.06101  0  4.03523  0
C  C150  1  0.12396857  0.35135723  0.87697806  1  -0.337001  0  -0.055376  -0.101132  0  4.180461  0
C  C151  1  0.03311439  0.46537468  0.92370276  1  -0.051145  0  -0.087463  -0.065653  0  4.04322  0
C  C152  1  0.05637984  0.43709663  0.90071487  1  -0.03833  0  -0.087338  -0.129283  0  3.944975  0
C  C153  1  0.10535850  0.37783077  0.89675546  1  -0.029001  0  -0.054671  -0.127285  0  4.149559  0
C  C154  1  0.03497458  0.46542623  0.96641024  1  -0.613734  0  -0.061824  -0.218418  0  3.984142  0
C  C155  1  0.59253568  0.91779912  0.92331931  1  0.108324  0  -0.001933  0.144677  0  4.124767  0
C  C156  1  0.56303808  0.94395826  0.90398440  1  -0.012445  0  -0.086926  -0.127823  0  3.947898  0
C  C157  1  0.53467601  0.96717359  0.92688757  1  -0.113957  0  -0.087091  -0.067204  0  4.048325  0
C  C158  1  0.64853546  0.87674239  0.88000508  1  0.03537  0  -0.05608  -0.10266  0  4.186774  0
C  C159  1  0.56412843  0.93901288  0.98868063  1  -0.009166  0  -0.082413  -0.061395  0  4.03507  0
C  C160  1  0.59248381  0.91544506  0.96620934  1  -0.058018  0  -0.086248  -0.129576  0  3.945911  0
C  C161  1  0.62223928  0.89517643  0.90012630  1  -0.391587  0  -0.05455  -0.126543  0  4.154394  0
C  C162  1  0.53460813  0.96529696  0.96956825  1  -0.61163  0  -0.061921  -0.21833  0  3.988961  0
C  C163  1  0.40700495  0.07850649  0.92109434  1  0.028823  0  -0.002077  0.145752  0  4.123126  0
C  C164  1  0.40688882  0.03432737  0.92000635  1  -0.012992  0  -0.086601  -0.130696  0  3.946387  0
C  C165  1  0.43496458  0.01168081  0.94365077  1  0.014067  0  -0.082531  -0.061445  0  4.037763  0
C  C166  1  0.35197038  0.12045283  0.87736348  1  -0.486008  0  -0.055525  -0.101976  0  4.185467  0
C  C167  1  0.46425786  0.07576199  0.96983202  1  -0.074448  0  -0.087113  -0.065436  0  4.042952  0
C  C168  1  0.43614138  0.09889056  0.94648525  1  -0.007529  0  -0.088072  -0.130753  0  3.946122  0
C  C169  1  0.37793378  0.10150981  0.89748587  1  0.10839  0  -0.054066  -0.126025  0  4.153158  0
C  C170  1  0.46436857  0.03179673  0.96890624  1  -0.597876  0  -0.061756  -0.21962  0  3.98896  0
C  C171  1  0.59252113  0.08046700  0.07929751  1  0.070761  0  -0.002142  0.146413  0  4.122326  0
C  C172  1  0.56321890  0.05430350  0.09882886  1  -0.064876  0  -0.087628  -0.13019  0  3.946462  0
C  C173  1  0.53487683  0.03091452  0.07610512  1  -0.02401  0  -0.086842  -0.065263  0  4.045535  0
C  C174  1  0.64835349  0.12239017  0.12193409  1  -0.437356  0  -0.055721  -0.102432  0  4.188404  0
C  C175  1  0.56402562  0.05884547  0.01412283  1  -0.058829  0  -0.082107  -0.060239  0  4.036363  0
C  C176  1  0.59235154  0.08256971  0.03640284  1  0.003468  0  -0.086797  -0.132359  0  3.947418  0
C  C177  1  0.62213095  0.10343493  0.10223231  1  0.046121  0  -0.054578  -0.126712  0  4.154883  0
C  C178  1  0.53467715  0.03257985  0.03341521  1  -0.646295  0  -0.061849  -0.219234  0  3.990371  0
C  C179  1  0.40720753  0.91922716  0.08199401  1  0.064702  0  -0.001977  0.143703  0  4.122135  0
C  C180  1  0.43646400  0.89885182  0.05668133  1  -0.112066  0  -0.087788  -0.130184  0  3.94592  0
C  C181  1  0.46457916  0.92202006  0.03341471  1  -0.065254  0  -0.086712  -0.065107  0  4.044902  0
C  C182  1  0.35183673  0.87738535  0.12531580  1  -0.24052  0  -0.055613  -0.101388  0  4.184859  0
C  C183  1  0.43509268  0.98608054  0.05957587  1  -0.008946  0  -0.082946  -0.062271  0  4.038542  0
C  C184  1  0.40701038  0.96341904  0.08312976  1  0.035066  0  -0.087002  -0.130509  0  3.94461  0
C  C185  1  0.37799035  0.89626424  0.10541533  1  -0.168899  0  -0.053956  -0.125462  0  4.151933  0
C  C186  1  0.46459033  0.96597349  0.03437669  1  -0.602075  0  -0.061804  -0.219429  0  3.990295  0
C  C187  1  0.91676420  0.92193394  0.59144127  1  0.047989  0  -0.002188  0.14554  0  4.118172  0
C  C188  1  0.91460116  0.96607491  0.59039647  1  -0.018218  0  -0.086662  -0.131208  0  3.944079  0
C  C189  1  0.93824428  0.98855463  0.56241254  1  -0.086973  0  -0.082879  -0.061218  0  4.036088  0
C  C190  1  0.87574325  0.88032365  0.64810053  1  -0.011856  0  -0.055557  -0.101443  0  4.181793  0
C  C191  1  0.96608334  0.92437395  0.53503440  1  -0.048753  0  -0.086547  -0.065043  0  4.042535  0
C  C192  1  0.94275256  0.90142088  0.56304124  1  -0.016268  0  -0.088098  -0.131065  0  3.945966  0
C  C193  1  0.89421562  0.89912827  0.62121106  1  -0.300121  0  -0.0539  -0.125713  0  4.147258  0
C  C194  1  0.96458217  0.96834088  0.53414574  1  -0.630255  0  -0.061842  -0.217227  0  3.981791  0
C  C195  1  0.07826865  0.91875072  0.40892075  1  0.073388  0  -0.001841  0.145724  0  4.116756  0
C  C196  1  0.03406602  0.91677961  0.40978468  1  -0.003783  0  -0.086859  -0.130055  0  3.943971  0
C  C197  1  0.01149100  0.94052154  0.43762269  1  -0.118843  0  -0.083184  -0.062994  0  4.037305  0
C  C198  1  0.12018506  0.87712640  0.35283625  1  -0.444393  0  -0.056126  -0.103723  0  4.179978  0
C  C199  1  0.07566144  0.96818483  0.46519985  1  -0.048558  0  -0.086861  -0.065162  0  4.040669  0
C  C200  1  0.09870034  0.94471934  0.43734362  1  -0.04431  0  -0.088037  -0.131063  0  3.945627  0
C  C201  1  0.10122663  0.89594386  0.37941549  1  0.058933  0  -0.053503  -0.124342  0  4.144346  0
C  C202  1  0.03162837  0.96683360  0.46591937  1  -0.605834  0  -0.061552  -0.216249  0  3.979212  0
C  C203  1  0.08116305  0.07961662  0.59140944  1  0.050569  0  -0.001602  0.144795  0  4.119207  0
C  C204  1  0.08300797  0.03544848  0.59047005  1  -0.032768  0  -0.086944  -0.131483  0  3.945165  0
C  C205  1  0.05922297  0.01309203  0.56253362  1  -0.052781  0  -0.083118  -0.061305  0  4.035678  0
C  C206  1  0.12276155  0.12110485  0.64774107  1  -0.154862  0  -0.05563  -0.101321  0  4.180575  0
C  C207  1  0.03175182  0.07739217  0.53504491  1  -0.058367  0  -0.087635  -0.066574  0  4.044351  0
C  C208  1  0.05525611  0.10023482  0.56298854  1  0.005878  0  -0.087758  -0.129315  0  3.944686  0
C  C209  1  0.10399070  0.10233395  0.62103484  1  -0.189129  0  -0.053923  -0.125886  0  4.147811  0
C  C210  1  0.03299093  0.03342384  0.53422035  1  -0.677276  0  -0.06137  -0.216757  0  3.982728  0
C  C211  1  0.91958089  0.08288888  0.40828917  1  0.067002  0  -0.001929  0.145268  0  4.11468  0
C  C212  1  0.96379056  0.08489833  0.40938420  1  0.032116  0  -0.08692  -0.131373  0  3.944162  0
C  C213  1  0.98623461  0.06125928  0.43742684  1  -0.034197  0  -0.083275  -0.061879  0  4.037062  0
C  C214  1  0.87815288  0.12401884  0.35145534  1  -0.439674  0  -0.055461  -0.100504  0  4.177678  0
C  C215  1  0.92198010  0.03370384  0.46485013  1  -0.046393  0  -0.087211  -0.065569  0  4.042217  0
C  C216  1  0.89903525  0.05702386  0.43676279  1  -0.117219  0  -0.088146  -0.131319  0  3.944166  0
C  C217  1  0.89683824  0.10551044  0.37844964  1  0.088309  0  -0.053503  -0.125732  0  4.142839  0
C  C218  1  0.96599954  0.03505760  0.46577116  1  -0.616898  0  -0.061793  -0.216595  0  3.979337  0
N  N219  1  0.84237905  0.73050556  0.80836607  1  -0.768475  0  -0.335345  -0.139742  0  3.769234  0
N  N220  1  0.80938436  0.72769553  0.83515955  1  -0.762254  0  -0.337228  -0.140742  0  3.775632  0
N  N221  1  0.72784579  0.80911874  0.83715738  1  -0.768944  0  -0.338091  -0.14162  0  3.779793  0
N  N222  1  0.72942057  0.84239131  0.81062656  1  -0.774543  0  -0.335019  -0.139265  0  3.773379  0
N  N223  1  0.81053607  0.84350612  0.73068299  1  -0.744039  0  -0.33481  -0.139205  0  3.775006  0
N  N224  1  0.84085123  0.81289090  0.72973619  1  -0.799363  0  -0.335218  -0.140249  0  3.774765  0
N  N225  1  0.84231627  0.27076519  0.18862000  1  -0.773342  0  -0.3343  -0.140328  0  3.771338  0
N  N226  1  0.80932537  0.27243646  0.16172085  1  -0.77914  0  -0.337099  -0.140166  0  3.776692  0
N  N227  1  0.72779631  0.19107586  0.16269108  1  -0.765904  0  -0.337953  -0.142723  0  3.779769  0
N  N228  1  0.72977735  0.15837319  0.18986689  1  -0.768213  0  -0.334659  -0.139215  0  3.770648  0
N  N229  1  0.81159651  0.15932482  0.26914081  1  -0.758392  0  -0.334837  -0.139781  0  3.771349  0
N  N230  1  0.84223525  0.18957685  0.26864831  1  -0.765229  0  -0.33442  -0.140259  0  3.769591  0
N  N231  1  0.15761879  0.72942860  0.19145421  1  -0.778264  0  -0.33458  -0.139572  0  3.770647  0
N  N232  1  0.19121435  0.72690285  0.16532165  1  -0.767993  0  -0.336461  -0.141267  0  3.774767  0
N  N233  1  0.27289497  0.80822081  0.16635667  1  -0.754183  0  -0.336491  -0.141139  0  3.772597  0
N  N234  1  0.27002409  0.84143830  0.19285008  1  -0.782648  0  -0.335223  -0.1398  0  3.771824  0
N  N235  1  0.18758630  0.84115526  0.27152686  1  -0.739637  0  -0.3347  -0.139685  0  3.773208  0
N  N236  1  0.15695153  0.81090657  0.27100838  1  -0.813516  0  -0.334704  -0.139302  0  3.772378  0
N  N237  1  0.15899214  0.26972100  0.80866096  1  -0.778788  0  -0.334253  -0.139674  0  3.770841  0
N  N238  1  0.19207043  0.27155222  0.83544789  1  -0.762327  0  -0.336903  -0.141249  0  3.775098  0
N  N239  1  0.27355385  0.18981968  0.83540568  1  -0.766322  0  -0.336537  -0.140249  0  3.772928  0
N  N240  1  0.27078112  0.15646227  0.80907880  1  -0.784805  0  -0.335477  -0.139834  0  3.771946  0
N  N241  1  0.18895047  0.15706870  0.72989660  1  -0.780609  0  -0.335851  -0.140539  0  3.77546  0
N  N242  1  0.15876218  0.18782047  0.72948131  1  -0.772174  0  -0.333941  -0.138234  0  3.770209  0
