# generated using pymatgen
data_ZnH16C16N4(ClO)2
_symmetry_space_group_name_H-M   'P 1'
_cell_length_a   6.19053005
_cell_length_b   11.92990881
_cell_length_c   12.42203511
_cell_angle_alpha   106.61359063
_cell_angle_beta   104.44888206
_cell_angle_gamma   90.02499557
_symmetry_Int_Tables_number   1
_chemical_formula_structural   ZnH16C16N4(ClO)2
_chemical_formula_sum   'Zn2 H32 C32 N8 Cl4 O4'
_cell_volume   848.74496957
_cell_formula_units_Z   2
loop_
 _symmetry_equiv_pos_site_id
 _symmetry_equiv_pos_as_xyz
  1  'x, y, z'
loop_
 _atom_site_type_symbol
 _atom_site_label
 _atom_site_symmetry_multiplicity
 _atom_site_fract_x
 _atom_site_fract_y
 _atom_site_fract_z
 _atom_site_occupancy
 _atom_site_hle17_bader_spin_density
 _atom_site_hle17_ddec_charge
 _atom_site_hle17_ddec_spin_density
 _atom_site_hle17_ddec_sum_bond_order
 _atom_site_hle17_magmom
 _atom_site_hse06_10hf_bader_spin_density
 _atom_site_hse06_10hf_ddec_charge
 _atom_site_hse06_10hf_ddec_spin_density
 _atom_site_hse06_10hf_ddec_sum_bond_order
 _atom_site_hse06_10hf_magmom
 _atom_site_hse06_bader_spin_density
 _atom_site_hse06_ddec_charge
 _atom_site_hse06_ddec_spin_density
 _atom_site_hse06_ddec_sum_bond_order
 _atom_site_hse06_magmom
 _atom_site_pbe_bader_spin_density
 _atom_site_pbe_cm5_charge
 _atom_site_pbe_ddec_charge
 _atom_site_pbe_ddec_spin_density
 _atom_site_pbe_ddec_sum_bond_order
 _atom_site_pbe_magmom
Zn  Zn0  1  0.12287172  0.74969691  0.99983071  1  0  0.828  0  2.11389  0  0  0.647814  0  2.603193  0  0  0.687199  0  2.558956  0  0  0.55914  0.620708  0  2.633282  0
Zn  Zn1  1  0.87710997  0.25030531  0.00016863  1  0  0.827943  0  2.113855  0  0  0.647715  0  2.603156  0  0  0.687116  0  2.558919  0  0  0.559068  0.620611  0  2.633255  0
H  H2  1  0.54829610  0.63624005  0.97429159  1  0  0.076752  0  0.972551  0  0  0.083085  0  1.041622  0  0  0.085521  0  1.039747  0  0  0.104026  0.081197  0  1.043169  0
H  H3  1  0.57341790  0.86404940  0.02582985  1  0  0.076863  0  0.971152  0  0  0.083052  0  1.040257  0  0  0.085582  0  1.038285  0  0  0.10446  0.081184  0  1.041698  0
H  H4  1  0.45168197  0.36375951  0.02569932  1  0  0.076642  0  0.972669  0  0  0.083044  0  1.041663  0  0  0.085483  0  1.039781  0  0  0.104028  0.081129  0  1.043239  0
H  H5  1  0.42655572  0.13595547  0.97417642  1  0  0.076932  0  0.971133  0  0  0.083123  0  1.040219  0  0  0.085623  0  1.038336  0  0  0.104464  0.081252  0  1.041667  0
H  H6  1  0.86465483  0.56222655  0.09503950  1  0  0.106311  0  0.984084  0  0  0.109306  0  1.055885  0  0  0.112619  0  1.055227  0  0  0.093674  0.106844  0  1.056717  0
H  H7  1  0.76912557  0.93827686  0.90526503  1  0  0.105696  0  0.984558  0  0  0.109404  0  1.055672  0  0  0.112674  0  1.054986  0  0  0.093847  0.106977  0  1.056513  0
H  H8  1  0.13532322  0.43777302  0.90495302  1  0  0.106456  0  0.983938  0  0  0.109451  0  1.055743  0  0  0.112766  0  1.055083  0  0  0.093741  0.106987  0  1.05658  0
H  H9  1  0.23087110  0.06172629  0.09474774  1  0  0.105634  0  0.984638  0  0  0.109343  0  1.055726  0  0  0.112612  0  1.055039  0  0  0.093818  0.106912  0  1.056574  0
H  H10  1  0.86481936  0.57489256  0.30027554  1  0  0.115909  0  0.919439  0  0  0.125194  0  0.979994  0  0  0.129262  0  0.975952  0  0  0.115789  0.122208  0  0.982938  0
H  H11  1  0.56428706  0.92549393  0.70001184  1  0  0.116069  0  0.919687  0  0  0.125512  0  0.980049  0  0  0.129579  0  0.976023  0  0  0.11642  0.122539  0  0.982973  0
H  H12  1  0.13516846  0.42510525  0.69971615  1  0  0.115924  0  0.919456  0  0  0.125256  0  0.979956  0  0  0.129325  0  0.975912  0  0  0.115798  0.122268  0  0.98291  0
H  H13  1  0.43572149  0.07451008  0.29999705  1  0  0.116025  0  0.919748  0  0  0.125582  0  0.979986  0  0  0.129645  0  0.975965  0  0  0.116456  0.122604  0  0.982915  0
H  H14  1  0.24161422  0.73944889  0.24545754  1  0  0.085361  0  0.955749  0  0  0.091041  0  1.027186  0  0  0.093813  0  1.024843  0  0  0.115634  0.088926  0  1.029046  0
H  H15  1  0.99625970  0.75969744  0.75404832  1  0  0.084972  0  0.956434  0  0  0.090383  0  1.028347  0  0  0.093143  0  1.026026  0  0  0.114994  0.088257  0  1.030217  0
H  H16  1  0.75837585  0.26055332  0.75453965  1  0  0.08539  0  0.955657  0  0  0.091037  0  1.027168  0  0  0.093805  0  1.024831  0  0  0.115627  0.088922  0  1.029031  0
H  H17  1  0.00374003  0.24030214  0.24594697  1  0  0.085055  0  0.956362  0  0  0.090451  0  1.028284  0  0  0.093225  0  1.025927  0  0  0.115013  0.08832  0  1.030157  0
H  H18  1  0.60777535  0.70045805  0.62300568  1  0  0.080742  0  0.957592  0  0  0.094315  0  1.023576  0  0  0.094717  0  1.023865  0  0  0.109814  0.093939  0  1.023468  0
H  H19  1  0.98443173  0.79966230  0.37672687  1  0  0.080183  0  0.957756  0  0  0.09406  0  1.024299  0  0  0.09446  0  1.024614  0  0  0.109864  0.093688  0  1.024171  0
H  H20  1  0.39225927  0.29954068  0.37699465  1  0  0.08072  0  0.957599  0  0  0.094309  0  1.023589  0  0  0.094663  0  1.02393  0  0  0.109781  0.093935  0  1.023472  0
H  H21  1  0.01557100  0.20033555  0.62327397  1  0  0.080082  0  0.957822  0  0  0.094017  0  1.024323  0  0  0.094417  0  1.024638  0  0  0.109857  0.093646  0  1.024199  0
H  H22  1  0.52110054  0.45317407  0.29845774  1  0  0.076958  0  0.966897  0  0  0.092149  0  1.031537  0  0  0.091577  0  1.033593  0  0  0.100091  0.092464  0  1.030193  0
H  H23  1  0.22333180  0.04666268  0.70146219  1  0  0.076135  0  0.967401  0  0  0.092456  0  1.030818  0  0  0.09185  0  1.032881  0  0  0.100294  0.092794  0  1.029519  0
H  H24  1  0.47892076  0.54682464  0.70153927  1  0  0.076857  0  0.967026  0  0  0.092149  0  1.031552  0  0  0.091577  0  1.033611  0  0  0.100057  0.092462  0  1.030212  0
H  H25  1  0.77666279  0.95333693  0.29854211  1  0  0.076202  0  0.96737  0  0  0.09254  0  1.030777  0  0  0.091917  0  1.032857  0  0  0.100325  0.092878  0  1.029481  0
H  H26  1  0.77887046  0.57930893  0.61699283  1  0  0.072854  0  0.921176  0  0  0.086287  0  0.988056  0  0  0.086798  0  0.986946  0  0  0.102412  0.085786  0  0.989052  0
H  H27  1  0.16166984  0.92095917  0.38295609  1  0  0.073443  0  0.919568  0  0  0.0872  0  0.986753  0  0  0.087737  0  0.985633  0  0  0.103227  0.086706  0  0.987738  0
H  H28  1  0.22115345  0.42068451  0.38300066  1  0  0.072718  0  0.921104  0  0  0.086214  0  0.98793  0  0  0.086721  0  0.98682  0  0  0.102401  0.085713  0  0.988925  0
H  H29  1  0.83833187  0.07904306  0.61704581  1  0  0.073465  0  0.919625  0  0  0.087229  0  0.986795  0  0  0.087766  0  0.985676  0  0  0.103254  0.086737  0  0.987782  0
H  H30  1  0.73013128  0.42799215  0.41663069  1  0  0.086991  0  0.937338  0  0  0.099773  0  1.00231  0  0  0.101493  0  1.0009  0  0  0.105235  0.098375  0  1.003527  0
H  H31  1  0.31359340  0.07202426  0.58325759  1  0  0.086283  0  0.937467  0  0  0.098995  0  1.002584  0  0  0.100699  0  1.001161  0  0  0.105059  0.097633  0  1.003814  0
H  H32  1  0.26989735  0.57201095  0.58336764  1  0  0.087084  0  0.937145  0  0  0.099833  0  1.002172  0  0  0.101561  0  1.000748  0  0  0.10528  0.098434  0  1.003388  0
H  H33  1  0.68641300  0.92797623  0.41674846  1  0  0.086333  0  0.937548  0  0  0.09904  0  1.002658  0  0  0.100744  0  1.001231  0  0  0.10507  0.097683  0  1.003884  0
C  C34  1  0.55158170  0.64098561  0.06356997  1  0  0.127078  0  3.698815  0  0  0.093643  0  3.947068  0  0  0.101469  0  3.965428  0  0  0.044203  0.088679  0  3.934594  0
C  C35  1  0.48770030  0.85902256  0.93641999  1  0  0.12759  0  3.698367  0  0  0.094528  0  3.946336  0  0  0.102281  0  3.964621  0  0  0.044828  0.089607  0  3.933901  0
C  C36  1  0.44840081  0.35901045  0.93642379  1  0  0.127248  0  3.69869  0  0  0.093759  0  3.946972  0  0  0.10159  0  3.965319  0  0  0.044265  0.088821  0  3.934496  0
C  C37  1  0.51228302  0.14097967  0.06358197  1  0  0.127702  0  3.698323  0  0  0.094607  0  3.946272  0  0  0.102351  0  3.964541  0  0  0.044922  0.089678  0  3.933848  0
C  C38  1  0.72902751  0.60004236  0.13143796  1  0  -0.118847  0  3.744425  0  0  -0.129125  0  3.998053  0  0  -0.137968  0  4.020215  0  0  -0.085977  -0.123575  0  3.983461  0
C  C39  1  0.59720225  0.90019736  0.86867068  1  0  -0.119368  0  3.745376  0  0  -0.130447  0  3.999194  0  0  -0.139224  0  4.021441  0  0  -0.086714  -0.124948  0  3.98457  0
C  C40  1  0.27095358  0.39995546  0.86855689  1  0  -0.119047  0  3.744051  0  0  -0.12938  0  3.997813  0  0  -0.138222  0  4.019962  0  0  -0.086147  -0.123827  0  3.983219  0
C  C41  1  0.40278137  0.09980752  0.13133768  1  0  -0.119401  0  3.745466  0  0  -0.130464  0  3.999308  0  0  -0.139232  0  4.021544  0  0  -0.0868  -0.124965  0  3.984691  0
C  C42  1  0.72768599  0.60627831  0.24485920  1  0  -0.015927  0  3.667036  0  0  -0.044831  0  3.915195  0  0  -0.038144  0  3.928892  0  0  -0.054473  -0.048997  0  3.906143  0
C  C43  1  0.48246037  0.89386731  0.75521576  1  0  -0.016067  0  3.668534  0  0  -0.045792  0  3.916594  0  0  -0.039132  0  3.930324  0  0  -0.055695  -0.049944  0  3.907572  0
C  C44  1  0.27230785  0.39372652  0.75513515  1  0  -0.015858  0  3.666847  0  0  -0.044853  0  3.914932  0  0  -0.038168  0  3.928633  0  0  -0.054402  -0.04902  0  3.905889  0
C  C45  1  0.51753241  0.10613143  0.24478888  1  0  -0.015994  0  3.668511  0  0  -0.045832  0  3.916545  0  0  -0.039173  0  3.930277  0  0  -0.0557  -0.049984  0  3.907515  0
C  C46  1  0.54987960  0.65595697  0.28812316  1  0  -0.073726  0  3.728072  0  0  -0.049253  0  3.965979  0  0  -0.058252  0  3.986114  0  0  0.001063  -0.04399  0  3.952963  0
C  C47  1  0.26149717  0.84384383  0.71171713  1  0  -0.074064  0  3.73095  0  0  -0.047649  0  3.966234  0  0  -0.056669  0  3.986496  0  0  0.001516  -0.04241  0  3.953204  0
C  C48  1  0.45012051  0.34404524  0.71187289  1  0  -0.073874  0  3.728292  0  0  -0.04919  0  3.965918  0  0  -0.058192  0  3.98605  0  0  0.001052  -0.043927  0  3.952906  0
C  C49  1  0.73850056  0.15615401  0.28828226  1  0  -0.074074  0  3.730871  0  0  -0.047654  0  3.966114  0  0  -0.056675  0  3.986379  0  0  0.00151  -0.042408  0  3.953058  0
C  C50  1  0.38037315  0.69717718  0.21511174  1  0  0.121981  0  3.645635  0  0  0.081411  0  3.889062  0  0  0.089851  0  3.905158  0  0  0.054557  0.075994  0  3.878449  0
C  C51  1  0.16516961  0.80233184  0.78457757  1  0  0.122793  0  3.648514  0  0  0.08179  0  3.891026  0  0  0.090231  0  3.907129  0  0  0.055803  0.076387  0  3.880424  0
C  C52  1  0.61961099  0.30281890  0.78488463  1  0  0.122042  0  3.645717  0  0  0.081405  0  3.889054  0  0  0.089844  0  3.905155  0  0  0.054618  0.075989  0  3.878444  0
C  C53  1  0.83482155  0.19766688  0.21542365  1  0  0.122786  0  3.648662  0  0  0.081776  0  3.891131  0  0  0.090218  0  3.907242  0  0  0.055875  0.076374  0  3.880519  0
C  C54  1  0.54947891  0.67853507  0.41352699  1  0  0.492783  0  3.842864  0  0  0.439119  0  4.138484  0  0  0.469478  0  4.138031  0  0  0.240903  0.41877  0  4.138113  0
C  C55  1  0.13590117  0.82137488  0.58628728  1  0  0.493419  0  3.841661  0  0  0.438545  0  4.137068  0  0  0.468905  0  4.13666  0  0  0.240717  0.418212  0  4.136657  0
C  C56  1  0.45053106  0.32146627  0.58647170  1  0  0.492797  0  3.84279  0  0  0.439135  0  4.138343  0  0  0.469506  0  4.137877  0  0  0.240968  0.418778  0  4.137979  0
C  C57  1  0.86410731  0.17862824  0.41371734  1  0  0.493286  0  3.841776  0  0  0.438482  0  4.137029  0  0  0.468836  0  4.136635  0  0  0.240695  0.41816  0  4.136601  0
C  C58  1  0.56646174  0.46302944  0.39178924  1  0  -0.030987  0  3.645385  0  0  -0.095259  0  3.906956  0  0  -0.092136  0  3.91985  0  0  -0.064683  -0.097117  0  3.897942  0
C  C59  1  0.17490212  0.03692196  0.60817314  1  0  -0.028606  0  3.64472  0  0  -0.093639  0  3.906633  0  0  -0.090362  0  3.919377  0  0  -0.06401  -0.095635  0  3.897792  0
C  C60  1  0.43356250  0.53696664  0.60820823  1  0  -0.031049  0  3.645335  0  0  -0.095334  0  3.906864  0  0  -0.092213  0  3.919772  0  0  -0.06473  -0.097185  0  3.89785  0
C  C61  1  0.82509106  0.96307940  0.39183146  1  0  -0.028707  0  3.644794  0  0  -0.093811  0  3.906783  0  0  -0.090518  0  3.919519  0  0  -0.064034  -0.095808  0  3.897935  0
C  C62  1  0.61210006  0.60646572  0.58255307  1  0  -0.007403  0  3.645185  0  0  -0.070328  0  3.907087  0  0  -0.06517  0  3.918019  0  0  -0.059376  -0.073667  0  3.899486  0
C  C63  1  0.02939651  0.89364522  0.41734220  1  0  -0.007478  0  3.641981  0  0  -0.072985  0  3.907057  0  0  -0.067883  0  3.917983  0  0  -0.061453  -0.076284  0  3.899503  0
C  C64  1  0.38792804  0.39353387  0.41744505  1  0  -0.007327  0  3.644974  0  0  -0.070297  0  3.906983  0  0  -0.0651  0  3.917916  0  0  -0.059433  -0.073643  0  3.899378  0
C  C65  1  0.97060130  0.10635351  0.58266148  1  0  -0.00749  0  3.642118  0  0  -0.07308  0  3.907207  0  0  -0.067978  0  3.918143  0  0  -0.061552  -0.076382  0  3.899656  0
N  N66  1  0.37982799  0.68853913  0.10451842  1  0  -0.319035  0  3.324065  0  0  -0.229982  0  3.595626  0  0  -0.249359  0  3.611175  0  0  -0.333886  -0.216976  0  3.584868  0
N  N67  1  0.27511548  0.81108096  0.89523383  1  0  -0.318378  0  3.325224  0  0  -0.229382  0  3.596528  0  0  -0.248725  0  3.612084  0  0  -0.333717  -0.216444  0  3.585826  0
N  N68  1  0.62016027  0.31146221  0.89547910  1  0  -0.319083  0  3.32415  0  0  -0.230011  0  3.59572  0  0  -0.249388  0  3.611266  0  0  -0.333939  -0.217003  0  3.58495  0
N  N69  1  0.72487458  0.18892216  0.10477327  1  0  -0.318495  0  3.32543  0  0  -0.229449  0  3.596658  0  0  -0.248803  0  3.612241  0  0  -0.333749  -0.216516  0  3.585972  0
N  N70  1  0.57643437  0.58665567  0.45797474  1  0  -0.198848  0  3.400874  0  0  -0.110985  0  3.637481  0  0  -0.132427  0  3.659106  0  0  -0.274948  -0.09649  0  3.622303  0
N  N71  1  0.11862167  0.91331692  0.54192920  1  0  -0.199801  0  3.398879  0  0  -0.10973  0  3.634487  0  0  -0.131228  0  3.656205  0  0  -0.274028  -0.095223  0  3.619337  0
N  N72  1  0.42358501  0.41334128  0.54202154  1  0  -0.198862  0  3.400849  0  0  -0.111117  0  3.637604  0  0  -0.132565  0  3.659221  0  0  -0.274994  -0.096617  0  3.622424  0
N  N73  1  0.88138117  0.08668181  0.45807351  1  0  -0.199703  0  3.398779  0  0  -0.109613  0  3.634348  0  0  -0.13111  0  3.656061  0  0  -0.274006  -0.09511  0  3.619204  0
Cl  Cl74  1  0.87346077  0.60787000  0.87066941  1  0  -0.55202  0  0.962495  0  0  -0.485657  0  1.24288  0  0  -0.501028  0  1.22238  0  0  -0.293753  -0.474446  0  1.256987  0
Cl  Cl75  1  0.00275652  0.89134194  0.12910572  1  0  -0.552558  0  0.960412  0  0  -0.486615  0  1.240706  0  0  -0.501988  0  1.220221  0  0  -0.294642  -0.475418  0  1.254769  0
Cl  Cl76  1  0.12653815  0.39212432  0.12932757  1  0  -0.552002  0  0.962474  0  0  -0.485622  0  1.242831  0  0  -0.501  0  1.222331  0  0  -0.293752  -0.474407  0  1.256935  0
Cl  Cl77  1  0.99722131  0.10865677  0.87089218  1  0  -0.552567  0  0.960377  0  0  -0.486614  0  1.240687  0  0  -0.501988  0  1.220223  0  0  -0.294649  -0.475415  0  1.254756  0
O  O78  1  0.53305706  0.78095110  0.47157235  1  0  -0.540839  0  1.914116  0  0  -0.503554  0  2.139355  0  0  -0.525479  0  2.134832  0  0  -0.300011  -0.488016  0  2.141834  0
O  O79  1  0.06138110  0.71896090  0.52816768  1  0  -0.541144  0  1.913427  0  0  -0.503766  0  2.139263  0  0  -0.525673  0  2.134608  0  0  -0.300105  -0.488208  0  2.141791  0
O  O80  1  0.46694817  0.21904060  0.52842311  1  0  -0.540854  0  1.913885  0  0  -0.503591  0  2.139167  0  0  -0.525494  0  2.134583  0  0  -0.300073  -0.488038  0  2.141636  0
O  O81  1  0.93863800  0.28103431  0.47182971  1  0  -0.541002  0  1.913659  0  0  -0.503675  0  2.13948  0  0  -0.525581  0  2.13483  0  0  -0.300086  -0.488127  0  2.142008  0
