# generated using pymatgen
data_Tl2H12C7O4
_symmetry_space_group_name_H-M   'P 1'
_cell_length_a   6.73352258
_cell_length_b   10.17918767
_cell_length_c   15.53577593
_cell_angle_alpha   90.00055999
_cell_angle_beta   102.28685945
_cell_angle_gamma   89.99982663
_symmetry_Int_Tables_number   1
_chemical_formula_structural   Tl2H12C7O4
_chemical_formula_sum   'Tl8 H48 C28 O16'
_cell_volume   1040.45887319
_cell_formula_units_Z   4
loop_
 _symmetry_equiv_pos_site_id
 _symmetry_equiv_pos_as_xyz
  1  'x, y, z'
loop_
 _atom_site_type_symbol
 _atom_site_label
 _atom_site_symmetry_multiplicity
 _atom_site_fract_x
 _atom_site_fract_y
 _atom_site_fract_z
 _atom_site_occupancy
 _atom_site_hle17_bader_spin_density
 _atom_site_hle17_ddec_charge
 _atom_site_hle17_ddec_spin_density
 _atom_site_hle17_ddec_sum_bond_order
 _atom_site_hle17_magmom
 _atom_site_hse06_10hf_bader_spin_density
 _atom_site_hse06_10hf_ddec_charge
 _atom_site_hse06_10hf_ddec_spin_density
 _atom_site_hse06_10hf_ddec_sum_bond_order
 _atom_site_hse06_10hf_magmom
 _atom_site_hse06_bader_spin_density
 _atom_site_hse06_ddec_charge
 _atom_site_hse06_ddec_spin_density
 _atom_site_hse06_ddec_sum_bond_order
 _atom_site_hse06_magmom
 _atom_site_pbe_bader_spin_density
 _atom_site_pbe_cm5_charge
 _atom_site_pbe_ddec_charge
 _atom_site_pbe_ddec_spin_density
 _atom_site_pbe_ddec_sum_bond_order
 _atom_site_pbe_magmom
Tl  Tl0  1  0.39502404  0.22621297  0.11822728  1  0  0.678547  0  0.990457  0  0  0.558715  0  1.301889  0  0  0.591625  0  1.278533  0  0  0.354478  0.533913  0  1.319131  0
Tl  Tl1  1  0.10499671  0.72621979  0.38178097  1  0  0.678535  0  0.990548  0  0  0.558687  0  1.301964  0  0  0.591595  0  1.278609  0  0  0.35448  0.533918  0  1.319213  0
Tl  Tl2  1  0.60497816  0.77378466  0.88177505  1  0  0.678572  0  0.990464  0  0  0.558732  0  1.301903  0  0  0.591643  0  1.278546  0  0  0.35447  0.533937  0  1.319157  0
Tl  Tl3  1  0.89500545  0.27377784  0.61821813  1  0  0.678577  0  0.990473  0  0  0.558736  0  1.301886  0  0  0.591645  0  1.27853  0  0  0.354481  0.533957  0  1.319133  0
Tl  Tl4  1  0.88600927  0.04481276  0.10576949  1  0  0.663662  0  1.087707  0  0  0.542059  0  1.422545  0  0  0.573456  0  1.39823  0  0  0.357695  0.518673  0  1.440917  0
Tl  Tl5  1  0.61400293  0.54481287  0.39423519  1  0  0.663694  0  1.087699  0  0  0.542084  0  1.422509  0  0  0.573482  0  1.398192  0  0  0.357704  0.518661  0  1.440978  0
Tl  Tl6  1  0.11399293  0.95518977  0.89423284  1  0  0.663676  0  1.087716  0  0  0.542072  0  1.422538  0  0  0.573469  0  1.398222  0  0  0.357693  0.518668  0  1.440927  0
Tl  Tl7  1  0.38600077  0.45518574  0.60576599  1  0  0.663709  0  1.087761  0  0  0.542089  0  1.422574  0  0  0.573486  0  1.398258  0  0  0.357699  0.518663  0  1.441041  0
H  H8  1  0.22810238  0.51264469  0.25487915  1  0  0.083937  0  0.995625  0  0  0.106006  0  1.064695  0  0  0.106447  0  1.065772  0  0  0.082883  0.105793  0  1.063886  0
H  H9  1  0.27193538  0.01264494  0.24514020  1  0  0.083756  0  0.995483  0  0  0.105819  0  1.064601  0  0  0.106258  0  1.065679  0  0  0.082841  0.105608  0  1.06379  0
H  H10  1  0.77190280  0.48735883  0.74511894  1  0  0.083909  0  0.995702  0  0  0.105992  0  1.064756  0  0  0.106433  0  1.065834  0  0  0.082859  0.105781  0  1.063944  0
H  H11  1  0.72806993  0.98735170  0.75486756  1  0  0.083666  0  0.995673  0  0  0.10578  0  1.064701  0  0  0.106222  0  1.065776  0  0  0.082769  0.105564  0  1.063893  0
H  H12  1  0.97656092  0.56384694  0.20329472  1  0  0.114401  0  0.948358  0  0  0.138633  0  1.004257  0  0  0.139775  0  1.00457  0  0  0.092914  0.137785  0  1.00412  0
H  H13  1  0.52347713  0.06384558  0.29671370  1  0  0.114268  0  0.948677  0  0  0.138466  0  1.004616  0  0  0.139598  0  1.004944  0  0  0.092901  0.137626  0  1.004479  0
H  H14  1  0.02343514  0.43614970  0.79670191  1  0  0.114481  0  0.948332  0  0  0.138711  0  1.004226  0  0  0.139852  0  1.004541  0  0  0.092961  0.137863  0  1.004087  0
H  H15  1  0.47652818  0.93615008  0.70329406  1  0  0.114299  0  0.948611  0  0  0.138487  0  1.00457  0  0  0.139618  0  1.0049  0  0  0.092913  0.137641  0  1.004437  0
H  H16  1  0.07857462  0.41505197  0.17038947  1  0  0.089609  0  1.00177  0  0  0.109078  0  1.073486  0  0  0.109839  0  1.074815  0  0  0.085721  0.108688  0  1.072286  0
H  H17  1  0.42147339  0.91505237  0.32962568  1  0  0.089553  0  1.001899  0  0  0.109021  0  1.07359  0  0  0.109781  0  1.074921  0  0  0.085685  0.108633  0  1.072395  0
H  H18  1  0.92142448  0.58494467  0.82960743  1  0  0.089624  0  1.0018  0  0  0.109117  0  1.073505  0  0  0.109879  0  1.074836  0  0  0.085726  0.108726  0  1.072312  0
H  H19  1  0.57854253  0.08493936  0.67038110  1  0  0.089629  0  1.001734  0  0  0.109084  0  1.073456  0  0  0.109846  0  1.074786  0  0  0.085722  0.108695  0  1.07226  0
H  H20  1  0.14657197  0.22000181  0.28539916  1  0  0.08397  0  0.958069  0  0  0.1024  0  1.020916  0  0  0.102622  0  1.022471  0  0  0.093676  0.102352  0  1.019718  0
H  H21  1  0.35345632  0.71999773  0.21460523  1  0  0.083934  0  0.958054  0  0  0.102359  0  1.020891  0  0  0.102582  0  1.022447  0  0  0.093671  0.102313  0  1.019688  0
H  H22  1  0.85342107  0.77999286  0.71459913  1  0  0.083992  0  0.957984  0  0  0.102425  0  1.020849  0  0  0.102647  0  1.022403  0  0  0.093678  0.102377  0  1.019648  0
H  H23  1  0.64656110  0.27999891  0.78539976  1  0  0.08404  0  0.957982  0  0  0.102412  0  1.020879  0  0  0.102634  0  1.022435  0  0  0.093695  0.102366  0  1.019677  0
H  H24  1  0.29330697  0.34017381  0.35211863  1  0  0.075434  0  0.972939  0  0  0.093342  0  1.039341  0  0  0.09381  0  1.040483  0  0  0.08864  0.092935  0  1.038932  0
H  H25  1  0.20671526  0.84017104  0.14789435  1  0  0.075341  0  0.972748  0  0  0.093225  0  1.039187  0  0  0.093698  0  1.040318  0  0  0.088602  0.09281  0  1.03879  0
H  H26  1  0.70669214  0.65981988  0.64787955  1  0  0.075456  0  0.972846  0  0  0.093351  0  1.039273  0  0  0.093818  0  1.040417  0  0  0.088652  0.092942  0  1.038864  0
H  H27  1  0.79329305  0.15982757  0.85211110  1  0  0.075372  0  0.972769  0  0  0.093267  0  1.039193  0  0  0.093736  0  1.040331  0  0  0.088615  0.092853  0  1.038791  0
H  H28  1  0.27951408  0.11260687  0.52881752  1  0  0.115756  0  0.956508  0  0  0.137758  0  1.014842  0  0  0.139217  0  1.01507  0  0  0.092055  0.136734  0  1.014615  0
H  H29  1  0.22047228  0.61261376  0.97117908  1  0  0.115543  0  0.956604  0  0  0.137696  0  1.014787  0  0  0.139155  0  1.015014  0  0  0.092061  0.136672  0  1.014561  0
H  H30  1  0.72047133  0.88738977  0.47117815  1  0  0.115685  0  0.956519  0  0  0.137769  0  1.014778  0  0  0.139228  0  1.015006  0  0  0.092087  0.136744  0  1.014555  0
H  H31  1  0.77951931  0.38739368  0.02882423  1  0  0.115579  0  0.956542  0  0  0.137648  0  1.014834  0  0  0.139108  0  1.015061  0  0  0.092024  0.136625  0  1.014604  0
H  H32  1  0.43160033  0.21036360  0.47338699  1  0  0.079618  0  0.987326  0  0  0.097791  0  1.061031  0  0  0.097785  0  1.063097  0  0  0.083333  0.09759  0  1.060021  0
H  H33  1  0.06841134  0.71037507  0.02662292  1  0  0.079523  0  0.987468  0  0  0.097728  0  1.061175  0  0  0.097722  0  1.063239  0  0  0.083324  0.09752  0  1.060176  0
H  H34  1  0.56839572  0.78963010  0.52660900  1  0  0.079552  0  0.987439  0  0  0.097713  0  1.061181  0  0  0.097708  0  1.063246  0  0  0.083334  0.097514  0  1.060167  0
H  H35  1  0.93159393  0.28963237  0.97338225  1  0  0.079589  0  0.987255  0  0  0.097763  0  1.060975  0  0  0.097758  0  1.063039  0  0  0.083337  0.097562  0  1.059964  0
H  H36  1  0.31959807  0.06315220  0.42350521  1  0  0.106673  0  0.96679  0  0  0.1326  0  1.022967  0  0  0.13317  0  1.024351  0  0  0.089031  0.13245  0  1.021391  0
H  H37  1  0.18041365  0.56316612  0.07649989  1  0  0.106551  0  0.966693  0  0  0.132496  0  1.022918  0  0  0.133064  0  1.024306  0  0  0.089004  0.132348  0  1.021336  0
H  H38  1  0.68038432  0.93684051  0.57649148  1  0  0.10648  0  0.966687  0  0  0.132447  0  1.022898  0  0  0.133015  0  1.024286  0  0  0.089036  0.1323  0  1.021317  0
H  H39  1  0.81958096  0.43684034  0.92350240  1  0  0.106597  0  0.966845  0  0  0.132552  0  1.023006  0  0  0.133117  0  1.024398  0  0  0.089022  0.132404  0  1.021427  0
H  H40  1  0.78102227  0.19216161  0.37589031  1  0  0.112212  0  0.968574  0  0  0.131673  0  1.031355  0  0  0.133321  0  1.031005  0  0  0.090094  0.13038  0  1.031731  0
H  H41  1  0.71899418  0.69215846  0.12410026  1  0  0.112138  0  0.968625  0  0  0.131647  0  1.031364  0  0  0.133292  0  1.031023  0  0  0.09008  0.130354  0  1.031738  0
H  H42  1  0.21896919  0.80784977  0.62410333  1  0  0.11212  0  0.968715  0  0  0.131643  0  1.031448  0  0  0.133298  0  1.031091  0  0  0.090068  0.13035  0  1.031817  0
H  H43  1  0.28100951  0.30783720  0.87590027  1  0  0.11217  0  0.968684  0  0  0.131709  0  1.031381  0  0  0.133354  0  1.031042  0  0  0.09011  0.130417  0  1.031746  0
H  H44  1  0.90161758  0.08611533  0.46178370  1  0  0.089928  0  0.98721  0  0  0.113977  0  1.051603  0  0  0.114215  0  1.053354  0  0  0.084213  0.113775  0  1.050484  0
H  H45  1  0.59837001  0.58612593  0.03819908  1  0  0.089894  0  0.987457  0  0  0.11397  0  1.051823  0  0  0.114207  0  1.053578  0  0  0.08421  0.113769  0  1.050696  0
H  H46  1  0.09835415  0.91388720  0.53821074  1  0  0.089893  0  0.987365  0  0  0.113928  0  1.051775  0  0  0.114165  0  1.053527  0  0  0.084221  0.113724  0  1.05066  0
H  H47  1  0.40162455  0.41387562  0.96179934  1  0  0.089883  0  0.987294  0  0  0.113946  0  1.051702  0  0  0.114184  0  1.053457  0  0  0.084184  0.113743  0  1.050578  0
H  H48  1  0.93493882  0.06014287  0.35240942  1  0  0.118418  0  0.955264  0  0  0.138942  0  1.016663  0  0  0.140168  0  1.017565  0  0  0.090629  0.137914  0  1.016156  0
H  H49  1  0.56507312  0.56014337  0.14757667  1  0  0.118502  0  0.955407  0  0  0.139007  0  1.016825  0  0  0.140263  0  1.017699  0  0  0.090662  0.137969  0  1.016325  0
H  H50  1  0.06504355  0.93986458  0.64758598  1  0  0.118366  0  0.955242  0  0  0.138886  0  1.016681  0  0  0.140108  0  1.017589  0  0  0.090638  0.137866  0  1.016164  0
H  H51  1  0.43492295  0.43985327  0.85242189  1  0  0.118483  0  0.9554  0  0  0.139  0  1.016817  0  0  0.140254  0  1.017693  0  0  0.090679  0.137961  0  1.016319  0
H  H52  1  0.02160781  0.40669679  0.44146332  1  0  0.360743  0  0.958328  0  0  0.330625  0  1.034099  0  0  0.342926  0  1.022299  0  0  0.279389  0.322323  0  1.041649  0
H  H53  1  0.47840364  0.90670386  0.05854204  1  0  0.360742  0  0.958231  0  0  0.330618  0  1.034016  0  0  0.34291  0  1.022235  0  0  0.279378  0.32231  0  1.041569  0
H  H54  1  0.97839433  0.59330378  0.55853449  1  0  0.3608  0  0.958305  0  0  0.330661  0  1.034115  0  0  0.342972  0  1.022294  0  0  0.279397  0.322358  0  1.041664  0
H  H55  1  0.52160009  0.09329671  0.94146107  1  0  0.360785  0  0.958258  0  0  0.330665  0  1.034027  0  0  0.34296  0  1.022238  0  0  0.27943  0.322348  0  1.041593  0
C  C56  1  0.78286805  0.34272572  0.24740787  1  0  0.603965  0  3.826992  0  0  0.558353  0  4.110441  0  0  0.590954  0  4.105443  0  0  0.207185  0.536208  0  4.112931  0
C  C57  1  0.71717581  0.84271661  0.25259836  1  0  0.603923  0  3.826636  0  0  0.558145  0  4.110075  0  0  0.590747  0  4.105072  0  0  0.207196  0.536002  0  4.112568  0
C  C58  1  0.21714769  0.65727583  0.75258474  1  0  0.603774  0  3.826942  0  0  0.558208  0  4.110251  0  0  0.590757  0  4.105334  0  0  0.207147  0.536052  0  4.112758  0
C  C59  1  0.28282038  0.15727708  0.74740857  1  0  0.603784  0  3.826797  0  0  0.55804  0  4.110271  0  0  0.590638  0  4.105274  0  0  0.207146  0.535893  0  4.112765  0
C  C60  1  0.98821460  0.40375724  0.29721932  1  0  0.258512  0  3.631978  0  0  0.26554  0  3.862676  0  0  0.269622  0  3.877314  0  0  0.058055  0.262798  0  3.852509  0
C  C61  1  0.51181557  0.90375574  0.20278929  1  0  0.258283  0  3.632367  0  0  0.265884  0  3.862097  0  0  0.269977  0  3.876722  0  0  0.057949  0.263119  0  3.851942  0
C  C62  1  0.01178449  0.59624235  0.70277758  1  0  0.258508  0  3.632009  0  0  0.265678  0  3.862457  0  0  0.269775  0  3.877106  0  0  0.058117  0.262932  0  3.852292  0
C  C63  1  0.48819273  0.09624189  0.79721552  1  0  0.258479  0  3.632261  0  0  0.265893  0  3.862299  0  0  0.269984  0  3.876934  0  0  0.058024  0.263134  0  3.852132  0
C  C64  1  0.07286910  0.47859872  0.22685829  1  0  -0.366131  0  3.68938  0  0  -0.449188  0  3.918516  0  0  -0.452423  0  3.92887  0  0  -0.246267  -0.44666  0  3.911169  0
C  C65  1  0.42717429  0.97859828  0.27315556  1  0  -0.365728  0  3.689379  0  0  -0.448873  0  3.918444  0  0  -0.452098  0  3.928783  0  0  -0.246164  -0.446363  0  3.911117  0
C  C66  1  0.92712697  0.52139890  0.77313962  1  0  -0.366178  0  3.689435  0  0  -0.449331  0  3.918542  0  0  -0.452563  0  3.928883  0  0  -0.246288  -0.446808  0  3.911205  0
C  C67  1  0.57283707  0.02140131  0.72685017  1  0  -0.365761  0  3.689319  0  0  -0.44885  0  3.918377  0  0  -0.452077  0  3.928716  0  0  -0.246154  -0.446339  0  3.911051  0
C  C68  1  0.14181972  0.29426352  0.33635045  1  0  -0.278524  0  3.587998  0  0  -0.321072  0  3.80793  0  0  -0.324976  0  3.821693  0  0  -0.164271  -0.318455  0  3.798616  0
C  C69  1  0.35821158  0.79426162  0.16365662  1  0  -0.278311  0  3.587947  0  0  -0.320947  0  3.80755  0  0  -0.324858  0  3.821308  0  0  -0.164202  -0.318323  0  3.798246  0
C  C70  1  0.85817785  0.70573803  0.66364632  1  0  -0.278553  0  3.588  0  0  -0.321159  0  3.807973  0  0  -0.325061  0  3.821739  0  0  -0.164324  -0.31854  0  3.798657  0
C  C71  1  0.64180128  0.20574091  0.83634795  1  0  -0.278507  0  3.587765  0  0  -0.321144  0  3.80757  0  0  -0.325049  0  3.821323  0  0  -0.164283  -0.318523  0  3.798267  0
C  C72  1  0.10660113  0.22556322  0.42031043  1  0  0.429298  0  3.536916  0  0  0.441927  0  3.773514  0  0  0.450407  0  3.78696  0  0  0.063436  0.436109  0  3.764161  0
C  C73  1  0.39340889  0.72557178  0.07969042  1  0  0.42925  0  3.536912  0  0  0.442016  0  3.773302  0  0  0.450504  0  3.786731  0  0  0.063404  0.436189  0  3.763962  0
C  C74  1  0.89339189  0.77443440  0.57968657  1  0  0.429137  0  3.537095  0  0  0.44178  0  3.773646  0  0  0.45025  0  3.787114  0  0  0.063373  0.435959  0  3.764298  0
C  C75  1  0.60659940  0.27442977  0.92031310  1  0  0.429368  0  3.536982  0  0  0.442143  0  3.773317  0  0  0.450634  0  3.78674  0  0  0.063371  0.436301  0  3.763992  0
C  C76  1  0.29545650  0.14779779  0.46380723  1  0  -0.375698  0  3.652727  0  0  -0.455776  0  3.879664  0  0  -0.459168  0  3.889103  0  0  -0.246477  -0.45313  0  3.872699  0
C  C77  1  0.20454606  0.64781302  0.03619889  1  0  -0.375289  0  3.652725  0  0  -0.455564  0  3.879599  0  0  -0.458958  0  3.889038  0  0  -0.246445  -0.452913  0  3.872639  0
C  C78  1  0.70453041  0.85219394  0.53618665  1  0  -0.375378  0  3.652608  0  0  -0.455553  0  3.879584  0  0  -0.458945  0  3.889026  0  0  -0.246536  -0.452912  0  3.87262  0
C  C79  1  0.79544093  0.35219541  0.96380143  1  0  -0.375449  0  3.652788  0  0  -0.455622  0  3.879638  0  0  -0.459016  0  3.889076  0  0  -0.246415  -0.452985  0  3.872679  0
C  C80  1  0.91999125  0.13571705  0.40116699  1  0  -0.392662  0  3.648805  0  0  -0.474453  0  3.881921  0  0  -0.478498  0  3.891515  0  0  -0.251656  -0.471503  0  3.875544  0
C  C81  1  0.58001467  0.63571975  0.09882742  1  0  -0.392662  0  3.649131  0  0  -0.474582  0  3.882174  0  0  -0.478659  0  3.891746  0  0  -0.251685  -0.471618  0  3.875803  0
C  C82  1  0.07999718  0.86428646  0.59882702  1  0  -0.392419  0  3.648934  0  0  -0.474285  0  3.882071  0  0  -0.478332  0  3.891672  0  0  -0.251634  -0.471339  0  3.875682  0
C  C83  1  0.41998294  0.36427591  0.90117192  1  0  -0.392664  0  3.649102  0  0  -0.474608  0  3.882129  0  0  -0.478687  0  3.891703  0  0  -0.251679  -0.471642  0  3.875758  0
O  O84  1  0.79074909  0.26397141  0.18426068  1  0  -0.647131  0  2.024869  0  0  -0.563572  0  2.265135  0  0  -0.594144  0  2.259138  0  0  -0.315101  -0.541724  0  2.268515  0
O  O85  1  0.70929328  0.76395737  0.31574298  1  0  -0.647199  0  2.024995  0  0  -0.563541  0  2.265152  0  0  -0.594113  0  2.259154  0  0  -0.315103  -0.541689  0  2.26853  0
O  O86  1  0.20925920  0.73603702  0.81574284  1  0  -0.647249  0  2.024596  0  0  -0.56369  0  2.264814  0  0  -0.594251  0  2.258842  0  0  -0.315184  -0.541833  0  2.268198  0
O  O87  1  0.29072103  0.23604419  0.68425657  1  0  -0.647395  0  2.024725  0  0  -0.563682  0  2.264838  0  0  -0.594261  0  2.258844  0  0  -0.315213  -0.541826  0  2.268216  0
O  O88  1  0.61668750  0.37583086  0.26756122  1  0  -0.648664  0  2.019282  0  0  -0.572335  0  2.255536  0  0  -0.601725  0  2.249596  0  0  -0.315393  -0.551228  0  2.258995  0
O  O89  1  0.88335022  0.87581616  0.23244210  1  0  -0.648562  0  2.019158  0  0  -0.572247  0  2.25547  0  0  -0.601639  0  2.249531  0  0  -0.315387  -0.551151  0  2.258939  0
O  O90  1  0.38330846  0.62418444  0.73242832  1  0  -0.64846  0  2.019692  0  0  -0.572136  0  2.255865  0  0  -0.601499  0  2.249944  0  0  -0.315304  -0.551031  0  2.259333  0
O  O91  1  0.11666410  0.12418539  0.76755810  1  0  -0.648354  0  2.019696  0  0  -0.572044  0  2.255995  0  0  -0.601423  0  2.250047  0  0  -0.315247  -0.550947  0  2.259458  0
O  O92  1  0.96241310  0.49117045  0.36525334  1  0  -0.703605  0  2.004493  0  0  -0.600334  0  2.227041  0  0  -0.63032  0  2.224863  0  0  -0.368163  -0.579285  0  2.227684  0
O  O93  1  0.53762013  0.99117082  0.13476191  1  0  -0.703543  0  2.004623  0  0  -0.600473  0  2.227053  0  0  -0.630459  0  2.224881  0  0  -0.368087  -0.579362  0  2.227645  0
O  O94  1  0.03759665  0.50883111  0.63474581  1  0  -0.703631  0  2.004463  0  0  -0.600421  0  2.227021  0  0  -0.630414  0  2.224837  0  0  -0.368186  -0.579344  0  2.22764  0
O  O95  1  0.46238361  0.00883171  0.86524249  1  0  -0.703604  0  2.004797  0  0  -0.600498  0  2.227317  0  0  -0.630488  0  2.225148  0  0  -0.368089  -0.579382  0  2.227904  0
O  O96  1  0.07595207  0.32648336  0.48270574  1  0  -0.652227  0  2.044266  0  0  -0.562685  0  2.26173  0  0  -0.588098  0  2.253927  0  0  -0.386107  -0.544434  0  2.265998  0
O  O97  1  0.42404878  0.82649093  0.01729687  1  0  -0.652181  0  2.04427  0  0  -0.562649  0  2.261634  0  0  -0.588057  0  2.253843  0  0  -0.386065  -0.544404  0  2.265916  0
O  O98  1  0.92404704  0.67351524  0.51729310  1  0  -0.65214  0  2.044323  0  0  -0.562566  0  2.261769  0  0  -0.587981  0  2.253957  0  0  -0.386022  -0.544307  0  2.266029  0
O  O99  1  0.57596101  0.17350964  0.98270550  1  0  -0.652293  0  2.044355  0  0  -0.562733  0  2.261678  0  0  -0.588142  0  2.253878  0  0  -0.38613  -0.544461  0  2.265945  0
