# generated using pymatgen
data_Hf3H10C34(BrO)16
_symmetry_space_group_name_H-M   'P 1'
_cell_length_a   15.51317426
_cell_length_b   17.36075736
_cell_length_c   17.59873170
_cell_angle_alpha   86.49103797
_cell_angle_beta   89.95618928
_cell_angle_gamma   89.72396135
_symmetry_Int_Tables_number   1
_chemical_formula_structural   Hf3H10C34(BrO)16
_chemical_formula_sum   'Hf6 H20 C68 Br32 O32'
_cell_volume   4730.75717856
_cell_formula_units_Z   2
loop_
 _symmetry_equiv_pos_site_id
 _symmetry_equiv_pos_as_xyz
  1  'x, y, z'
loop_
 _atom_site_type_symbol
 _atom_site_label
 _atom_site_symmetry_multiplicity
 _atom_site_fract_x
 _atom_site_fract_y
 _atom_site_fract_z
 _atom_site_occupancy
 _atom_site_pbe_bader_charge
 _atom_site_pbe_bader_spin_density
 _atom_site_pbe_cm5_charge
 _atom_site_pbe_ddec_charge
 _atom_site_pbe_ddec_spin_density
 _atom_site_pbe_ddec_sum_bond_order
 _atom_site_pbe_magmom
Hf  Hf0  1  0.01230598  0.14294948  0.99206529  1  2.604256  0  1.445592  2.136585  0  3.340662  0
Hf  Hf1  1  0.01773783  0.99378521  0.86672472  1  2.611343  0  1.440443  2.14698  0  3.31382  0
Hf  Hf2  1  0.00745013  0.00961345  0.14828235  1  2.590514  0  1.425669  2.133855  0  3.411291  0
Hf  Hf3  1  0.00040201  0.85546939  0.02380128  1  2.602311  0  1.421454  2.131478  0  3.382057  0
Hf  Hf4  1  0.84974603  0.00416979  0.00300965  1  2.621329  0  1.471435  2.12651  0  3.309058  0
Hf  Hf5  1  0.16950710  0.99610209  0.01148642  1  2.620852  0  1.472341  2.12782  0  3.306577  0
H  H6  1  0.14404641  0.11053859  0.89008674  1  0.58925  0  0.312824  0.389773  0  0.916022  0
H  H7  1  0.88418334  0.88653419  0.89964980  1  0.611482  0  0.323874  0.411416  0  0.869973  0
H  H8  1  0.12063297  0.88045942  0.13567300  1  0.612717  0  0.328994  0.424242  0  0.852361  0
H  H9  1  0.88770773  0.12631980  0.10835469  1  0.606882  0  0.32503  0.410711  0  0.877561  0
H  H10  1  0.06830398  0.88773517  0.77731923  1  0.58912  0  0.297773  0.392134  0  0.911129  0
H  H11  1  0.01000198  0.82536834  0.87016617  1  0.634527  0  0.284931  0.394666  0  0.951167  0
H  H12  1  0.94959961  0.75242256  0.12695764  1  0.580653  0  0.262261  0.360033  0  0.979328  0
H  H13  1  0.05147763  0.94039774  0.28390793  1  0.651716  0  0.344442  0.427491  0  0.846281  0
H  H14  1  0.95689114  0.11554391  0.24370563  1  0.571073  0  0.290476  0.392274  0  0.909694  0
H  H15  1  0.96073336  0.28199591  0.04960697  1  0.643078  0  0.33381  0.416026  0  0.872196  0
H  H16  1  0.96463743  0.23495312  0.87487846  1  0.581349  0  0.262881  0.349883  0  1.000865  0
H  H17  1  0.02024101  0.14636548  0.82237071  1  0.639736  0  0.286096  0.404499  0  0.933947  0
H  H18  1  0.95216350  0.92292191  0.27374986  1  0.644806  0  0.334624  0.418287  0  0.86861  0
H  H19  1  0.06088225  0.26904875  0.06777618  1  0.66725  0  0.338723  0.427151  0  0.85817  0
H  H20  1  0.08404773  0.10580322  0.76234973  1  0.60815  0  0.292271  0.367527  0  0.960994  0
H  H21  1  0.05337301  0.75439823  0.91934608  1  0.620776  0  0.302161  0.381558  0  0.938546  0
H  H22  1  0.66449526  0.50371905  0.96205279  1  0.062266  0  0.08772  0.10095  0  1.061575  0
H  H23  1  0.35115664  0.49850504  0.97654902  1  0.048392  0  0.103518  0.12217  0  0.980277  0
H  H24  1  0.35592495  0.01500181  0.50970246  1  0.052498  0  0.100837  0.118216  0  0.989571  0
H  H25  1  0.67194030  0.99899687  0.50307752  1  0.076134  0  0.101673  0.118874  0  0.986523  0
C  C26  1  0.80757577  0.18742460  0.97532925  1  1.593068  0  0.22885  0.639293  0  4.109694  0
C  C27  1  0.23173207  0.99307579  0.83858002  1  1.618086  0  0.229186  0.628174  0  4.143785  0
C  C28  1  0.81336680  0.00844803  0.82422110  1  1.630738  0  0.228005  0.627765  0  4.159081  0
C  C29  1  0.21758803  0.18011956  0.00468449  1  1.611525  0  0.232416  0.642595  0  4.120838  0
C  C30  1  0.22062649  0.00930921  0.18450188  1  1.625805  0  0.234371  0.640987  0  4.118303  0
C  C31  1  0.79127130  0.82629743  0.02089155  1  1.607875  0  0.233601  0.632833  0  4.119302  0
C  C32  1  0.20562267  0.81377668  0.01184192  1  1.61623  0  0.229139  0.630789  0  4.165805  0
C  C33  1  0.79551966  0.00638779  0.17690140  1  1.610316  0  0.228009  0.634038  0  4.156511  0
C  C34  1  0.55401431  0.43228411  0.94367888  1  0.020651  0  -0.010435  0.037171  0  3.905571  0
C  C35  1  0.46355030  0.43113605  0.95748854  1  -0.005566  0  -0.011729  0.055117  0  3.952106  0
C  C36  1  0.42092310  0.50051965  0.96931243  1  0.03051  0  -0.094201  -0.168067  0  3.962743  0
C  C37  1  0.46151988  0.57142405  0.97472283  1  0.012029  0  -0.011781  0.05224  0  3.977057  0
C  C38  1  0.55264274  0.57099346  0.97529556  1  -0.003739  0  -0.016307  0.036332  0  3.968465  0
C  C39  1  0.59467425  0.50239198  0.95984635  1  0.015141  0  -0.094579  -0.155093  0  3.953513  0
C  C40  1  0.47032159  0.00716699  0.57815140  1  0.022718  0  -0.012703  0.040734  0  3.94101  0
C  C41  1  0.56164483  0.00191477  0.57600230  1  -0.012605  0  -0.013483  0.043498  0  3.951756  0
C  C42  1  0.60174810  0.00163659  0.50463686  1  0.030292  0  -0.092179  -0.158827  0  3.95013  0
C  C43  1  0.55756133  0.00619294  0.43512707  1  -0.083526  0  -0.014222  0.041561  0  3.955474  0
C  C44  1  0.46641697  0.01223142  0.43665388  1  0.105266  0  -0.012329  0.043487  0  3.945272  0
C  C45  1  0.42610756  0.01200797  0.50828986  1  -0.025237  0  -0.090503  -0.156792  0  3.928753  0
C  C46  1  0.28824059  0.07648309  0.29482933  1  -0.02551  0  -0.028058  0.033172  0  3.957764  0
C  C47  1  0.29224302  0.01916175  0.24159207  1  0.041789  0  -0.025564  -0.107022  0  3.941911  0
C  C48  1  0.36089138  0.96619046  0.24762505  1  -0.052465  0  -0.022558  0.046358  0  3.948592  0
C  C49  1  0.40937685  0.95910850  0.31526498  1  -0.036307  0  -0.027439  0.017021  0  3.93558  0
C  C50  1  0.41016843  0.01766868  0.36720401  1  0.065144  0  -0.016364  -0.000302  0  3.951789  0
C  C51  1  0.35145519  0.07963317  0.35176399  1  -0.049002  0  -0.027735  0.015773  0  3.921784  0
C  C52  1  0.65971673  0.93869475  0.34744564  1  -0.041485  0  -0.024708  0.016923  0  3.942885  0
C  C53  1  0.61253463  0.00537431  0.36491080  1  0.100593  0  -0.012817  0.003034  0  3.942748  0
C  C54  1  0.62638697  0.07303950  0.31775435  1  -0.03766  0  -0.02287  0.021045  0  3.922  0
C  C55  1  0.68450940  0.07392208  0.25636536  1  -0.043269  0  -0.020762  0.049071  0  3.933301  0
C  C56  1  0.72666250  0.00634272  0.23774489  1  0.063427  0  -0.021484  -0.092522  0  3.95856  0
C  C57  1  0.71171667  0.93836931  0.28243045  1  -0.034018  0  -0.025768  0.040641  0  3.954107  0
C  C58  1  0.36145365  0.06974154  0.66504658  1  -0.036684  0  -0.025839  0.01509  0  3.934654  0
C  C59  1  0.41711336  0.00743371  0.64964441  1  0.103625  0  -0.013981  0.002282  0  3.938201  0
C  C60  1  0.41619262  0.94401850  0.70375889  1  -0.055421  0  -0.022315  0.022782  0  3.917303  0
C  C61  1  0.36579768  0.94334229  0.77050119  1  -0.05421  0  -0.021734  0.045515  0  3.94356  0
C  C62  1  0.30338824  0.00056307  0.77937407  1  0.108686  0  -0.019001  -0.088221  0  3.931839  0
C  C63  1  0.30539442  0.06512914  0.72758576  1  -0.093212  0  -0.026107  0.040701  0  3.929646  0
C  C64  1  0.63406207  0.06796890  0.68300080  1  -0.029615  0  -0.022966  0.023505  0  3.9253  0
C  C65  1  0.62172305  0.00077438  0.64296011  1  0.072673  0  -0.015543  -0.000863  0  3.946067  0
C  C66  1  0.67743752  0.93757977  0.66174549  1  -0.040881  0  -0.02493  0.016605  0  3.929327  0
C  C67  1  0.73889330  0.94024713  0.72011795  1  -0.028631  0  -0.024225  0.037161  0  3.953204  0
C  C68  1  0.74755228  0.00648132  0.76091672  1  0.075966  0  -0.018909  -0.089397  0  3.952195  0
C  C69  1  0.69610325  0.07077397  0.74067094  1  -0.063586  0  -0.021783  0.045395  0  3.944987  0
C  C70  1  0.31575132  0.71741666  0.06528373  1  -0.027579  0  -0.02227  0.045007  0  3.939801  0
C  C71  1  0.27047274  0.74975359  0.00221623  1  0.061417  0  -0.016766  -0.085205  0  3.94634  0
C  C72  1  0.28295465  0.71889692  0.93144081  1  4.1e-05  0  -0.026234  0.035633  0  3.955057  0
C  C73  1  0.34711759  0.66309663  0.92181077  1  -0.040317  0  -0.02489  0.015891  0  3.937128  0
C  C74  1  0.40114000  0.63763206  0.98313070  1  0.029223  0  -0.017438  -0.004129  0  3.96391  0
C  C75  1  0.38290474  0.66461840  0.05540519  1  -0.018348  0  -0.0215  0.025454  0  3.931819  0
C  C76  1  0.66104265  0.76951293  0.95705393  1  -0.025329  0  -0.018687  0.047056  0  3.929345  0
C  C77  1  0.72111220  0.76521525  0.01715236  1  0.057466  0  -0.015987  -0.092595  0  3.890545  0
C  C78  1  0.72113220  0.69764578  0.06599813  1  -0.006156  0  -0.016044  0.047964  0  3.908729  0
C  C79  1  0.66375988  0.63678262  0.05513447  1  -0.07848  0  -0.024177  0.014182  0  3.916973  0
C  C80  1  0.60782420  0.63860198  0.99165536  1  0.059696  0  -0.01419  0.006934  0  3.961703  0
C  C81  1  0.61082873  0.70495127  0.94173647  1  -0.017893  0  -0.025299  0.020698  0  3.927416  0
C  C82  1  0.27426929  0.29846091  0.93148395  1  -0.096391  0  -0.029092  0.029572  0  3.968842  0
C  C83  1  0.28255877  0.24468609  0.99426311  1  0.07352  0  -0.023564  -0.107926  0  3.945753  0
C  C84  1  0.35130980  0.25225838  0.04511194  1  -0.008703  0  -0.020982  0.043338  0  3.955453  0
C  C85  1  0.40945207  0.31375982  0.03414107  1  -0.074356  0  -0.02758  0.014483  0  3.933995  0
C  C86  1  0.40490192  0.36408581  0.96852434  1  0.123686  0  -0.02255  -0.003161  0  4.026777  0
C  C87  1  0.33666330  0.35517741  0.91721050  1  -0.032636  0  -0.033369  0.006229  0  3.985673  0
C  C88  1  0.65180892  0.23128308  0.95382114  1  -0.016073  0  -0.022661  0.03762  0  3.955171  0
C  C89  1  0.74082222  0.24782622  0.95235478  1  0.062977  0  -0.037132  -0.137061  0  3.927428  0
C  C90  1  0.76297871  0.32225725  0.91884711  1  -0.060187  0  -0.031648  0.035261  0  3.915856  0
C  C91  1  0.70038793  0.37940978  0.90523512  1  -0.067558  0  -0.025466  0.0077  0  3.862123  0
C  C92  1  0.61116963  0.36723203  0.92501601  1  0.123448  0  0.00089  0.031801  0  3.878628  0
C  C93  1  0.59051618  0.28737876  0.92801599  1  -0.092082  0  -0.019524  0.014858  0  3.892944  0
Br  Br94  1  0.35639473  0.16903404  0.40774511  1  -0.028901  0  0.030981  -0.042757  0  1.73635  0
Br  Br95  1  0.19946514  0.15145004  0.28552312  1  0.020418  0  0.047344  -0.006641  0  1.600631  0
Br  Br96  1  0.46422425  0.86353825  0.34000075  1  -0.013929  0  0.038846  -0.041981  0  1.698003  0
Br  Br97  1  0.39126449  0.90509005  0.16655925  1  0.022375  0  0.055014  -0.000739  0  1.654292  0
Br  Br98  1  0.76218954  0.84594668  0.25031217  1  -0.012878  0  0.041045  -0.037892  0  1.651218  0
Br  Br99  1  0.66030845  0.84877829  0.41386602  1  -0.016659  0  0.036157  -0.032267  0  1.756466  0
Br  Br100  1  0.71214562  0.16753900  0.19997986  1  -0.036648  0  0.038743  -0.033931  0  1.504192  0
Br  Br101  1  0.57051218  0.16531548  0.34187986  1  -0.007403  0  0.042294  -0.030786  0  1.619534  0
Br  Br102  1  0.23865598  0.15285333  0.75229321  1  -0.040745  0  0.06091  -0.04439  0  1.73292  0
Br  Br103  1  0.35822111  0.16048282  0.60003254  1  -0.006685  0  0.038801  -0.028495  0  1.75188  0
Br  Br104  1  0.38610443  0.86787013  0.85020061  1  0.014519  0  0.057941  -0.010855  0  1.759356  0
Br  Br105  1  0.47772856  0.85348536  0.68342715  1  -0.006293  0  0.044124  -0.03122  0  1.730959  0
Br  Br106  1  0.71718096  0.16319175  0.78904002  1  -0.008471  0  0.05583  -0.009344  0  1.656551  0
Br  Br107  1  0.57088435  0.15831506  0.65400742  1  -0.015538  0  0.038662  -0.041952  0  1.663294  0
Br  Br108  1  0.81386659  0.85564108  0.74424147  1  -0.003962  0  0.057918  -0.0095  0  1.605314  0
Br  Br109  1  0.67482382  0.84767471  0.60628453  1  -0.020622  0  0.035393  -0.035428  0  1.760314  0
Br  Br110  1  0.44532952  0.62332034  0.14077639  1  -0.00904  0  0.044929  -0.028826  0  1.58072  0
Br  Br111  1  0.27404434  0.73630087  0.16358050  1  -0.004152  0  0.056626  -0.009382  0  1.564211  0
Br  Br112  1  0.35706108  0.61930069  0.82633935  1  -0.008627  0  0.041952  -0.025046  0  1.709327  0
Br  Br113  1  0.20623980  0.74820367  0.85034567  1  -0.029176  0  0.063221  -0.020194  0  1.623161  0
Br  Br114  1  0.55261605  0.70358073  0.84761571  1  -0.010165  0  0.040458  -0.042737  0  1.775629  0
Br  Br115  1  0.64761544  0.86064831  0.89374364  1  0.021885  0  0.061322  -0.000926  0  1.729573  0
Br  Br116  1  0.66347044  0.54865425  0.12488401  1  -0.02529  0  0.034191  -0.039076  0  1.573977  0
Br  Br117  1  0.79824008  0.68767436  0.15015097  1  -0.019961  0  0.069758  0.003031  0  1.651571  0
Br  Br118  1  0.33668547  0.41441406  0.82335682  1  -0.016345  0  0.034198  -0.045031  0  1.637033  0
Br  Br119  1  0.17853705  0.29396909  0.86521407  1  0.003472  0  0.055373  0.007798  0  1.754648  0
Br  Br120  1  0.49645224  0.32880708  0.10719346  1  -0.019114  0  0.041538  -0.029422  0  1.553738  0
Br  Br121  1  0.36326369  0.18091422  0.12987518  1  0.01222  0  0.05677  -0.008311  0  1.667359  0
Br  Br122  1  0.49292361  0.25044251  0.87719901  1  0.02487  0  0.082574  0.012279  0  1.730615  0
Br  Br123  1  0.60414528  0.13669305  0.99320398  1  0.052222  0  0.073358  0.021363  0  1.626235  0
Br  Br124  1  0.72793370  0.46810659  0.83962769  1  -0.013216  0  0.050102  -0.021337  0  1.526206  0
Br  Br125  1  0.87694195  0.34778230  0.88488070  1  -0.023852  0  0.059899  -0.026602  0  1.652796  0
O  O126  1  0.88475577  0.21039741  0.98419115  1  -1.206037  0  -0.344714  -0.618076  0  2.431407  0
O  O127  1  0.78462180  0.11757318  0.98381415  1  -1.166489  0  -0.332306  -0.564428  0  2.446125  0
O  O128  1  0.15623915  0.98692160  0.81130707  1  -1.180507  0  -0.322129  -0.600128  0  2.294245  0
O  O129  1  0.25177858  0.99455689  0.90825203  1  -1.158626  0  -0.326902  -0.55001  0  2.330115  0
O  O130  1  0.89137040  0.01155919  0.80404650  1  -1.159405  0  -0.320215  -0.545712  0  2.329482  0
O  O131  1  0.78317486  0.00469268  0.89165848  1  -1.161031  0  -0.337681  -0.578156  0  2.365199  0
O  O132  1  0.13941235  0.20211549  0.01214918  1  -1.190762  0  -0.341884  -0.613551  0  2.367651  0
O  O133  1  0.24424960  0.11174783  0.00170197  1  -1.14525  0  -0.304968  -0.530878  0  2.299889  0
O  O134  1  0.01437443  0.20103151  0.88399484  1  -1.239551  0  -0.649487  -0.896525  0  2.061289  0
O  O135  1  0.00358406  0.24564961  0.07142906  1  -1.253178  0  -0.564014  -0.737756  0  2.067326  0
O  O136  1  0.02790338  0.09936061  0.78719716  1  -1.243395  0  -0.597974  -0.76312  0  2.09134  0
O  O137  1  0.01767142  0.89326012  0.80911436  1  -1.228278  0  -0.64985  -0.901147  0  1.975468  0
O  O138  1  0.94671530  0.05865301  0.94242814  1  -1.209014  0  -0.764199  -1.060021  0  2.214317  0
O  O139  1  0.10622845  0.07864810  0.92288733  1  -1.230978  0  -0.656424  -0.958842  0  2.364767  0
O  O140  1  0.14525157  0.00226884  0.21123764  1  -1.166917  0  -0.304694  -0.554321  0  2.299114  0
O  O141  1  0.24219963  0.00581514  0.11501333  1  -1.176705  0  -0.348119  -0.582586  0  2.406199  0
O  O142  1  0.86732758  0.79964111  0.02242281  1  -1.160354  0  -0.320085  -0.568495  0  2.364327  0
O  O143  1  0.76992159  0.89724203  0.01820443  1  -1.154635  0  -0.334488  -0.573781  0  2.340608  0
O  O144  1  0.12788678  0.79320336  0.01318592  1  -1.161174  0  -0.319932  -0.560921  0  2.393726  0
O  O145  1  0.23605444  0.88110024  0.01740123  1  -1.162529  0  -0.331269  -0.572328  0  2.31409  0
O  O146  1  0.87165196  0.00011097  0.20291917  1  -1.177248  0  -0.324877  -0.601261  0  2.371708  0
O  O147  1  0.77238676  0.01379484  0.10777373  1  -1.157647  0  -0.330429  -0.555175  0  2.328452  0
O  O148  1  0.00896185  0.91918619  0.24998390  1  -1.233351  0  -0.560722  -0.735481  0  2.070131  0
O  O149  1  0.00730416  0.09207623  0.22214519  1  -1.192562  0  -0.696052  -0.935178  0  1.918535  0
O  O150  1  0.00183941  0.78097962  0.11418163  1  -1.208972  0  -0.700177  -0.912338  0  1.869586  0
O  O151  1  0.00179454  0.78701613  0.91718939  1  -1.247426  0  -0.596792  -0.767977  0  2.096404  0
O  O152  1  0.09184151  0.91683728  0.09980769  1  -1.253307  0  -0.63751  -0.954323  0  2.243846  0
O  O153  1  0.93563849  0.94556405  0.07179738  1  -1.222238  0  -0.750829  -1.066389  0  2.164525  0
O  O154  1  0.07919453  0.06201368  0.06337279  1  -1.213204  0  -0.7576  -1.05034  0  2.173261  0
O  O155  1  0.91944556  0.91813421  0.93113208  1  -1.248663  0  -0.645584  -0.942997  0  2.288621  0
O  O156  1  0.92323511  0.09187372  0.08001408  1  -1.249183  0  -0.647561  -0.964368  0  2.318855  0
O  O157  1  0.07803935  0.93795783  0.95708706  1  -1.217061  0  -0.758167  -1.075083  0  2.206042  0
