# generated using pymatgen
data_Ag2H6C11N3O4F3
_symmetry_space_group_name_H-M   'P 1'
_cell_length_a   7.29801543
_cell_length_b   10.94222575
_cell_length_c   17.09670000
_cell_angle_alpha   90.00000000
_cell_angle_beta   90.00000000
_cell_angle_gamma   91.99317487
_symmetry_Int_Tables_number   1
_chemical_formula_structural   Ag2H6C11N3O4F3
_chemical_formula_sum   'Ag8 H24 C44 N12 O16 F12'
_cell_volume   1364.45714970
_cell_formula_units_Z   4
loop_
 _symmetry_equiv_pos_site_id
 _symmetry_equiv_pos_as_xyz
  1  'x, y, z'
loop_
 _atom_site_type_symbol
 _atom_site_label
 _atom_site_symmetry_multiplicity
 _atom_site_fract_x
 _atom_site_fract_y
 _atom_site_fract_z
 _atom_site_occupancy
 _atom_site_hle17_bader_spin_density
 _atom_site_hle17_ddec_charge
 _atom_site_hle17_ddec_spin_density
 _atom_site_hle17_ddec_sum_bond_order
 _atom_site_hle17_magmom
 _atom_site_hse06_10hf_bader_spin_density
 _atom_site_hse06_10hf_ddec_charge
 _atom_site_hse06_10hf_ddec_spin_density
 _atom_site_hse06_10hf_ddec_sum_bond_order
 _atom_site_hse06_10hf_magmom
 _atom_site_hse06_bader_spin_density
 _atom_site_hse06_ddec_charge
 _atom_site_hse06_ddec_spin_density
 _atom_site_hse06_ddec_sum_bond_order
 _atom_site_hse06_magmom
 _atom_site_pbe_bader_charge
 _atom_site_pbe_bader_spin_density
 _atom_site_pbe_cm5_charge
 _atom_site_pbe_ddec_charge
 _atom_site_pbe_ddec_spin_density
 _atom_site_pbe_ddec_sum_bond_order
 _atom_site_pbe_magmom
Ag  Ag0  1  0.46261199  0.74308369  0.14831810  1  0  0.50547  0  1.458077  0  0  0.358983  0  1.891864  0  0  0.386982  0  1.850539  0  0.570455  0  0.470358  0.339914  0  1.920223  0
Ag  Ag1  1  0.03740016  0.25691856  0.64831634  1  0  0.505525  0  1.458106  0  0  0.359075  0  1.891904  0  0  0.387071  0  1.850579  0  0.570517  0  0.470365  0.340008  0  1.920258  0
Ag  Ag2  1  0.53739513  0.25692130  0.85168541  1  0  0.505497  0  1.45801  0  0  0.359011  0  1.891788  0  0  0.38701  0  1.850463  0  0.570401  0  0.470338  0.339943  0  1.920148  0
Ag  Ag3  1  0.96260247  0.74307911  0.35168600  1  0  0.5055  0  1.458102  0  0  0.35901  0  1.891889  0  0  0.387009  0  1.850559  0  0.570565  0  0.470355  0.339945  0  1.920245  0
Ag  Ag4  1  0.27408170  0.00733750  0.82856926  1  0  0.586554  0  1.332729  0  0  0.445089  0  1.769831  0  0  0.480129  0  1.717596  0  0.602513  0  0.438708  0.420479  0  1.805856  0
Ag  Ag5  1  0.22591944  0.99266383  0.32856809  1  0  0.586538  0  1.332706  0  0  0.445061  0  1.769818  0  0  0.48009  0  1.717602  0  0.602459  0  0.438702  0.420338  0  1.805978  0
Ag  Ag6  1  0.72591204  0.99264737  0.17142899  1  0  0.586524  0  1.332791  0  0  0.445066  0  1.769911  0  0  0.480082  0  1.717718  0  0.602369  0  0.438703  0.420457  0  1.805942  0
Ag  Ag7  1  0.77407819  0.00734299  0.67143074  1  0  0.58653  0  1.332737  0  0  0.445059  0  1.769839  0  0  0.480082  0  1.717637  0  0.602468  0  0.438711  0.420448  0  1.805866  0
H  H8  1  0.11034777  0.16038801  0.10146520  1  0  0.385432  0  0.923915  0  0  0.354881  0  1.000879  0  0  0.367655  0  0.987373  0  0.649579  0  0.290383  0.346045  0  1.008962  0
H  H9  1  0.38965308  0.83960783  0.60146578  1  0  0.385637  0  0.923885  0  0  0.355114  0  1.0008  0  0  0.367888  0  0.987103  0  0.649737  0  0.290496  0.346269  0  1.00891  0
H  H10  1  0.88963827  0.83960692  0.89852662  1  0  0.385677  0  0.923795  0  0  0.354979  0  1.001005  0  0  0.367789  0  0.987247  0  0.649654  0  0.290425  0.346115  0  1.009154  0
H  H11  1  0.61034695  0.16039258  0.39853480  1  0  0.385407  0  0.923922  0  0  0.354891  0  1.000849  0  0  0.367661  0  0.987353  0  0.649608  0  0.290405  0.346041  0  1.008964  0
H  H12  1  0.47944916  0.74851731  0.32146964  1  0  0.09657  0  0.957432  0  0  0.108659  0  1.017131  0  0  0.110465  0  1.015184  0  0.178897  0  0.116516  0.107196  0  1.018747  0
H  H13  1  0.02056436  0.25148493  0.82146438  1  0  0.096597  0  0.957393  0  0  0.108626  0  1.01719  0  0  0.110434  0  1.015233  0  0.178026  0  0.116465  0.107156  0  1.018807  0
H  H14  1  0.52057025  0.25148676  0.67853562  1  0  0.096623  0  0.957279  0  0  0.108652  0  1.017078  0  0  0.110459  0  1.015122  0  0.17804  0  0.116464  0.107181  0  1.018693  0
H  H15  1  0.97944560  0.74852188  0.17853679  1  0  0.096598  0  0.957333  0  0  0.108618  0  1.017128  0  0  0.110426  0  1.015169  0  0.178999  0  0.116467  0.107147  0  1.018743  0
H  H16  1  0.66621128  0.40367861  0.40628601  1  0  0.107252  0  0.955896  0  0  0.117281  0  1.014211  0  0  0.120595  0  1.011275  0  0.131413  0  0.105012  0.114718  0  1.016543  0
H  H17  1  0.83379715  0.59631906  0.90628542  1  0  0.107292  0  0.955805  0  0  0.11728  0  1.014188  0  0  0.12059  0  1.011248  0  0.131668  0  0.105028  0.114731  0  1.016492  0
H  H18  1  0.33380090  0.59631815  0.59371224  1  0  0.107232  0  0.955914  0  0  0.117266  0  1.014235  0  0  0.120574  0  1.011298  0  0.131595  0  0.105014  0.114718  0  1.016543  0
H  H19  1  0.16620459  0.40368775  0.09371165  1  0  0.107279  0  0.955869  0  0  0.11729  0  1.014209  0  0  0.1206  0  1.01127  0  0.131497  0  0.105024  0.114738  0  1.016512  0
H  H20  1  0.54420159  0.61410043  0.43291454  1  0  0.117436  0  0.940158  0  0  0.128314  0  0.99532  0  0  0.131537  0  0.994358  0  0.141166  0  0.109209  0.125915  0  0.996305  0
H  H21  1  0.95581095  0.38589724  0.93291103  1  0  0.117463  0  0.94014  0  0  0.12837  0  0.995274  0  0  0.131604  0  0.994303  0  0.141156  0  0.109249  0.12597  0  0.996264  0
H  H22  1  0.45581890  0.38589816  0.56708780  1  0  0.117431  0  0.940174  0  0  0.12835  0  0.995295  0  0  0.131586  0  0.994323  0  0.140987  0  0.109249  0.12595  0  0.996282  0
H  H23  1  0.04419641  0.61411232  0.06708897  1  0  0.117465  0  0.940196  0  0  0.128346  0  0.99536  0  0  0.131575  0  0.994392  0  0.141022  0  0.109232  0.125945  0  0.99635  0
H  H24  1  0.64862080  0.49179353  0.16054209  1  0  0.073757  0  0.960908  0  0  0.079997  0  1.030383  0  0  0.082752  0  1.027098  0  0.105941  0  0.106171  0.077808  0  1.033005  0
H  H25  1  0.85138371  0.50820780  0.66053917  1  0  0.073731  0  0.960841  0  0  0.079958  0  1.030346  0  0  0.082702  0  1.027073  0  0.105965  0  0.106159  0.07777  0  1.032968  0
H  H26  1  0.35137943  0.50821054  0.83945732  1  0  0.073724  0  0.960984  0  0  0.079946  0  1.03048  0  0  0.082703  0  1.027192  0  0.106008  0  0.106175  0.077759  0  1.033104  0
H  H27  1  0.14861632  0.49179261  0.33945849  1  0  0.073746  0  0.960962  0  0  0.079975  0  1.030448  0  0  0.082731  0  1.027163  0  0.106016  0  0.106166  0.077769  0  1.033115  0
H  H28  1  0.71801946  0.34294672  0.26648184  1  0  0.113324  0  0.936685  0  0  0.125183  0  0.992117  0  0  0.128183  0  0.99124  0  0.12029  0  0.108683  0.1231  0  0.992722  0
H  H29  1  0.78198358  0.65705278  0.76648067  1  0  0.113307  0  0.936649  0  0  0.125166  0  0.9921  0  0  0.128166  0  0.991222  0  0.120322  0  0.108665  0.123108  0  0.992638  0
H  H30  1  0.28198482  0.65705644  0.73351524  1  0  0.113251  0  0.93665  0  0  0.125115  0  0.9921  0  0  0.128114  0  0.991223  0  0.120342  0  0.108655  0.123057  0  0.99264  0
H  H31  1  0.21801376  0.34294855  0.23351582  1  0  0.113248  0  0.93672  0  0  0.125097  0  0.992188  0  0  0.128098  0  0.99131  0  0.120608  0  0.108639  0.123011  0  0.9928  0
C  C32  1  0.23421686  0.02185704  0.00640942  1  0  -0.021239  0  3.74763  0  0  -0.024376  0  3.999008  0  0  -0.028341  0  4.023769  0  0.376356  0  0.070225  -0.021888  0  3.982517  0
C  C33  1  0.26578683  0.97814063  0.50641001  1  0  -0.021318  0  3.74751  0  0  -0.024467  0  3.998927  0  0  -0.028434  0  4.023687  0  0.37589  0  0.070177  -0.02198  0  3.982425  0
C  C34  1  0.76577164  0.97813240  0.99358882  1  0  -0.02126  0  3.747428  0  0  -0.024299  0  3.998736  0  0  -0.028262  0  4.023494  0  0.3762  0  0.070255  -0.02181  0  3.982246  0
C  C35  1  0.73421888  0.02186344  0.49358882  1  0  -0.021364  0  3.747561  0  0  -0.024542  0  3.999042  0  0  -0.028506  0  4.023801  0  0.376418  0  0.070191  -0.02206  0  3.982564  0
C  C36  1  0.53467926  0.65902158  0.31130862  1  0  0.111241  0  3.703252  0  0  0.07933  0  3.949672  0  0  0.08682  0  3.968365  0  0.425362  0  0.036315  0.074463  0  3.937039  0
C  C37  1  0.96533210  0.34097975  0.81130452  1  0  0.11117  0  3.703387  0  0  0.079315  0  3.949802  0  0  0.086815  0  3.968488  0  0.425934  0  0.036355  0.07446  0  3.937165  0
C  C38  1  0.46533467  0.34098249  0.68869548  1  0  0.11123  0  3.703227  0  0  0.079366  0  3.949631  0  0  0.086867  0  3.968318  0  0.426287  0  0.0364  0.074513  0  3.936991  0
C  C39  1  0.03467370  0.65902615  0.18869723  1  0  0.111293  0  3.703144  0  0  0.079444  0  3.94954  0  0  0.086942  0  3.968228  0  0.425557  0  0.036424  0.074589  0  3.936898  0
C  C40  1  0.63862774  0.46672770  0.35875110  1  0  -0.004688  0  3.703031  0  0  -0.024251  0  3.949381  0  0  -0.020512  0  3.967636  0  -0.035888  0  -0.067624  -0.026482  0  3.93712  0
C  C41  1  0.86138073  0.53327089  0.85874876  1  0  -0.004631  0  3.702966  0  0  -0.024181  0  3.949348  0  0  -0.020435  0  3.967597  0  -0.036085  0  -0.067605  -0.026403  0  3.937069  0
C  C42  1  0.36137914  0.53327271  0.64124656  1  0  -0.004677  0  3.703087  0  0  -0.024257  0  3.949472  0  0  -0.020509  0  3.96772  0  -0.036135  0  -0.0676  -0.026479  0  3.937189  0
C  C43  1  0.13862228  0.46673410  0.14124890  1  0  -0.004657  0  3.703161  0  0  -0.024219  0  3.949544  0  0  -0.020472  0  3.967795  0  -0.035936  0  -0.067612  -0.026437  0  3.937251  0
C  C44  1  0.26220471  0.96045071  0.07740617  1  0  0.004265  0  3.731543  0  0  -0.001899  0  3.984074  0  0  -0.004596  0  4.006145  0  0.456047  0  0.075214  -0.000232  0  3.96936  0
C  C45  1  0.23780460  0.03954971  0.57740675  1  0  0.004401  0  3.73134  0  0  -0.001801  0  3.98396  0  0  -0.004498  0  4.006032  0  0.456045  0  0.075263  -0.000134  0  3.969238  0
C  C46  1  0.73778544  0.03954422  0.92259208  1  0  0.004213  0  3.731548  0  0  -0.002009  0  3.984133  0  0  -0.004711  0  4.006209  0  0.455604  0  0.075185  -0.000343  0  3.96942  0
C  C47  1  0.76219969  0.96045345  0.42259266  1  0  0.00442  0  3.731233  0  0  -0.001806  0  3.983899  0  0  -0.004507  0  4.005976  0  0.455688  0  0.075232  -0.000158  0  3.969226  0
C  C48  1  0.57146193  0.58211317  0.37387332  1  0  -0.126627  0  3.74295  0  0  -0.136147  0  3.993447  0  0  -0.143891  0  4.014177  0  -0.1245  0  -0.086887  -0.131264  0  3.979758  0
C  C49  1  0.92854800  0.41788724  0.87387157  1  0  -0.126611  0  3.742978  0  0  -0.136156  0  3.993461  0  0  -0.14391  0  4.014178  0  -0.12404  0  -0.086917  -0.131272  0  3.979786  0
C  C50  1  0.42855185  0.41788816  0.62612668  1  0  -0.126591  0  3.742996  0  0  -0.136155  0  3.993491  0  0  -0.143913  0  4.014208  0  -0.124187  0  -0.086947  -0.131271  0  3.979811  0
C  C51  1  0.07145643  0.58211866  0.12612668  1  0  -0.126692  0  3.742872  0  0  -0.136236  0  3.993369  0  0  -0.143988  0  4.014092  0  -0.12458  0  -0.086931  -0.131352  0  3.979686  0
C  C52  1  0.62783319  0.51455313  0.22167962  1  0  0.111197  0  3.722681  0  0  0.076506  0  3.975006  0  0  0.082773  0  3.996885  0  0.463038  0  0.03643  0.072522  0  3.960136  0
C  C53  1  0.87217283  0.48545095  0.72167845  1  0  0.111332  0  3.722473  0  0  0.076675  0  3.974817  0  0  0.082946  0  3.996698  0  0.462862  0  0.036454  0.07269  0  3.959962  0
C  C54  1  0.37216855  0.48545369  0.77832038  1  0  0.111233  0  3.722584  0  0  0.076576  0  3.974899  0  0  0.082839  0  3.996777  0  0.462684  0  0.036429  0.072591  0  3.960044  0
C  C55  1  0.12782862  0.51455039  0.27832038  1  0  0.111215  0  3.722663  0  0  0.076533  0  3.974972  0  0  0.082792  0  3.996857  0  0.462524  0  0.03641  0.072524  0  3.960175  0
C  C56  1  0.66730755  0.43263631  0.28109284  1  0  -0.111654  0  3.721311  0  0  -0.123724  0  3.970105  0  0  -0.131608  0  3.99407  0  -0.007652  0  -0.083095  -0.118771  0  3.953961  0
C  C57  1  0.83270092  0.56736228  0.78109167  1  0  -0.111791  0  3.72148  0  0  -0.123855  0  3.970243  0  0  -0.13175  0  3.994229  0  -0.007739  0  -0.083136  -0.118881  0  3.954056  0
C  C58  1  0.33269924  0.56736228  0.71890599  1  0  -0.111532  0  3.721415  0  0  -0.123614  0  3.970209  0  0  -0.131497  0  3.994177  0  -0.007545  0  -0.083076  -0.118641  0  3.954022  0
C  C59  1  0.16729920  0.43263997  0.21890482  1  0  -0.111562  0  3.721602  0  0  -0.123636  0  3.970367  0  0  -0.13152  0  3.994334  0  -0.007549  0  -0.083041  -0.118694  0  3.954257  0
C  C60  1  0.34743645  0.84623572  0.98199126  1  0  0.132636  0  3.812351  0  0  0.108066  0  4.077734  0  0  0.113821  0  4.097414  0  1.084204  0  0.185161  0.104351  0  4.0644  0
C  C61  1  0.15256445  0.15376103  0.48199243  1  0  0.132656  0  3.812285  0  0  0.108139  0  4.077658  0  0  0.113896  0  4.097338  0  1.084258  0  0.185229  0.10431  0  4.064569  0
C  C62  1  0.65255753  0.15375372  0.01801049  1  0  0.132361  0  3.812382  0  0  0.107764  0  4.077733  0  0  0.113521  0  4.097401  0  1.084044  0  0.185086  0.104051  0  4.064398  0
C  C63  1  0.84743866  0.84624578  0.51801049  1  0  0.132502  0  3.81224  0  0  0.107991  0  4.077657  0  0  0.11375  0  4.097329  0  1.084057  0  0.185134  0.104274  0  4.06432  0
C  C64  1  0.16618473  0.14475102  0.98868086  1  0  0.633287  0  3.881729  0  0  0.577963  0  4.189449  0  0  0.611396  0  4.181842  0  1.58105  0  0.212565  0.55516  0  4.194181  0
C  C65  1  0.33380630  0.85524026  0.48868086  1  0  0.63328  0  3.881761  0  0  0.578038  0  4.189423  0  0  0.611475  0  4.181813  0  1.58146  0  0.212658  0.55524  0  4.194142  0
C  C66  1  0.83380632  0.85523477  0.01131505  1  0  0.633156  0  3.881841  0  0  0.577768  0  4.189591  0  0  0.6112  0  4.181991  0  1.581364  0  0.212581  0.554968  0  4.194317  0
C  C67  1  0.66620064  0.14476107  0.51131739  1  0  0.633272  0  3.881525  0  0  0.578045  0  4.189177  0  0  0.611479  0  4.181568  0  1.581083  0  0.212687  0.555234  0  4.193923  0
C  C68  1  0.39916403  0.73484820  0.93741482  1  0  0.746757  0  3.658674  0  0  0.668564  0  4.003434  0  0  0.700143  0  3.975012  0  1.718812  0  0.31016  0.64613  0  4.02361  0
C  C69  1  0.10083427  0.26515130  0.43741541  1  0  0.747046  0  3.65834  0  0  0.668702  0  4.003302  0  0  0.700277  0  3.97489  0  1.718869  0  0.310176  0.645991  0  4.02398  0
C  C70  1  0.60082853  0.26514033  0.06258986  1  0  0.747176  0  3.658476  0  0  0.669073  0  4.003023  0  0  0.700673  0  3.974578  0  1.718992  0  0.310304  0.646643  0  4.023194  0
C  C71  1  0.89915924  0.73485552  0.56258986  1  0  0.747078  0  3.658415  0  0  0.668633  0  4.003506  0  0  0.700218  0  3.97508  0  1.719387  0  0.310167  0.646206  0  4.023675  0
C  C72  1  0.22269185  0.99785330  0.15857505  1  0  0.623319  0  3.938058  0  0  0.570069  0  4.229174  0  0  0.605144  0  4.222394  0  1.583264  0  0.20302  0.546211  0  4.23321  0
C  C73  1  0.27731609  0.00214711  0.65857680  1  0  0.62347  0  3.937861  0  0  0.57021  0  4.229042  0  0  0.605285  0  4.222264  0  1.583284  0  0.20308  0.546352  0  4.233085  0
C  C74  1  0.77730114  0.00214346  0.84142320  1  0  0.623396  0  3.937903  0  0  0.570109  0  4.229086  0  0  0.605182  0  4.222316  0  1.58343  0  0.203022  0.546253  0  4.233128  0
C  C75  1  0.72268394  0.99785330  0.34142320  1  0  0.623488  0  3.937951  0  0  0.570241  0  4.229133  0  0  0.605316  0  4.222355  0  1.583289  0  0.203102  0.546346  0  4.233279  0
N  N76  1  0.33607621  0.84989533  0.06058479  1  0  -0.345221  0  3.305272  0  0  -0.276164  0  3.592457  0  0  -0.294356  0  3.610405  0  -1.17747  0  -0.365997  -0.263662  0  3.58006  0
N  N77  1  0.16392895  0.15010417  0.56058479  1  0  -0.345329  0  3.305324  0  0  -0.276284  0  3.592571  0  0  -0.294473  0  3.610514  0  -1.177395  0  -0.366022  -0.263785  0  3.580181  0
N  N78  1  0.66391522  0.15009777  0.93941638  1  0  -0.345061  0  3.305389  0  0  -0.275991  0  3.592599  0  0  -0.294178  0  3.610546  0  -1.177239  0  -0.365925  -0.263492  0  3.580204  0
N  N79  1  0.83607260  0.84989899  0.43941521  1  0  -0.345234  0  3.305143  0  0  -0.276139  0  3.592348  0  0  -0.294328  0  3.610293  0  -1.177245  0  -0.36597  -0.263638  0  3.579948  0
N  N80  1  0.56179239  0.62607690  0.23628887  1  0  -0.307525  0  3.392563  0  0  -0.211146  0  3.668327  0  0  -0.232548  0  3.688187  0  -1.204182  0  -0.358491  -0.196719  0  3.654379  0
N  N81  1  0.93821759  0.37392443  0.73628537  1  0  -0.307574  0  3.392462  0  0  -0.211267  0  3.668272  0  0  -0.232666  0  3.688122  0  -1.204346  0  -0.358504  -0.19684  0  3.654329  0
N  N82  1  0.43821742  0.37392717  0.76371288  1  0  -0.307627  0  3.392396  0  0  -0.211277  0  3.66816  0  0  -0.23268  0  3.688015  0  -1.204196  0  -0.358505  -0.19685  0  3.654217  0
N  N83  1  0.06178390  0.62607782  0.26371347  1  0  -0.30764  0  3.392511  0  0  -0.211243  0  3.668228  0  0  -0.232646  0  3.688086  0  -1.204434  0  -0.358526  -0.196817  0  3.654277  0
N  N84  1  0.28953755  0.94777377  0.94675522  1  0  -0.359631  0  3.339901  0  0  -0.292133  0  3.635688  0  0  -0.312113  0  3.65504  0  -1.174877  0  -0.365202  -0.278396  0  3.622267  0
N  N85  1  0.21046198  0.05222299  0.44675522  1  0  -0.359712  0  3.339763  0  0  -0.292189  0  3.635521  0  0  -0.312175  0  3.654877  0  -1.174863  0  -0.365272  -0.278508  0  3.62228  0
N  N86  1  0.71045350  0.05221202  0.05324536  1  0  -0.359585  0  3.339746  0  0  -0.292109  0  3.63552  0  0  -0.312086  0  3.654862  0  -1.174891  0  -0.365234  -0.278372  0  3.622096  0
N  N87  1  0.78954387  0.94778383  0.55324419  1  0  -0.359552  0  3.339733  0  0  -0.29203  0  3.635504  0  0  -0.312008  0  3.654848  0  -1.17478  0  -0.365203  -0.278293  0  3.622078  0
O  O88  1  0.10034514  0.20855361  0.04695585  1  0  -0.537925  0  2.108945  0  0  -0.489681  0  2.336197  0  0  -0.51245  0  2.322105  0  -1.17035  0  -0.326801  -0.473882  0  2.34472  0
O  O89  1  0.39964763  0.79144498  0.54696052  1  0  -0.53801  0  2.108956  0  0  -0.489914  0  2.336294  0  0  -0.512687  0  2.322063  0  -1.170517  0  -0.327001  -0.474112  0  2.344835  0
O  O90  1  0.89964359  0.79144040  0.95303421  1  0  -0.537969  0  2.109132  0  0  -0.48961  0  2.336494  0  0  -0.512401  0  2.32224  0  -1.170525  0  -0.326778  -0.4738  0  2.345054  0
O  O91  1  0.60035137  0.20856184  0.45304240  1  0  -0.53776  0  2.108916  0  0  -0.48965  0  2.336229  0  0  -0.512423  0  2.322143  0  -1.17043  0  -0.326847  -0.473879  0  2.344816  0
O  O92  1  0.17248821  0.18624849  0.92117134  1  0  -0.576371  0  2.027681  0  0  -0.527482  0  2.290856  0  0  -0.549897  0  2.277911  0  -1.157597  0  -0.299458  -0.511776  0  2.299282  0
O  O93  1  0.32748500  0.81374278  0.42117543  1  0  -0.576378  0  2.027847  0  0  -0.527514  0  2.29106  0  0  -0.549902  0  2.278053  0  -1.157591  0  -0.299436  -0.511813  0  2.299491  0
O  O94  1  0.82750558  0.81373730  0.07881989  1  0  -0.57633  0  2.02776  0  0  -0.527437  0  2.291017  0  0  -0.549829  0  2.278027  0  -1.157473  0  -0.299511  -0.511732  0  2.299442  0
O  O95  1  0.67252227  0.18626495  0.57882574  1  0  -0.576483  0  2.027561  0  0  -0.527599  0  2.290738  0  0  -0.549999  0  2.277765  0  -1.157633  0  -0.299544  -0.511893  0  2.299164  0
O  O96  1  0.13749159  0.09573864  0.17075284  1  0  -0.601153  0  2.024848  0  0  -0.548616  0  2.261168  0  0  -0.572905  0  2.246635  0  -1.162179  0  -0.31434  -0.531721  0  2.270137  0
O  O97  1  0.36251337  0.90425720  0.67075401  1  0  -0.601292  0  2.024784  0  0  -0.548732  0  2.261095  0  0  -0.573024  0  2.246508  0  -1.162226  0  -0.314383  -0.531819  0  2.270037  0
O  O98  1  0.86249308  0.90425629  0.82924249  1  0  -0.60126  0  2.024756  0  0  -0.548641  0  2.261174  0  0  -0.572951  0  2.246568  0  -1.162205  0  -0.314321  -0.531719  0  2.270129  0
O  O99  1  0.63748515  0.09574047  0.32924599  1  0  -0.601278  0  2.024855  0  0  -0.548724  0  2.261166  0  0  -0.573014  0  2.246639  0  -1.162224  0  -0.314394  -0.531879  0  2.270233  0
O  O100  1  0.27523195  0.92748225  0.21322477  1  0  -0.602721  0  2.163776  0  0  -0.51652  0  2.454856  0  0  -0.547674  0  2.438551  0  -1.119437  0  -0.325524  -0.494846  0  2.465441  0
O  O101  1  0.22478161  0.07252090  0.71322594  1  0  -0.602807  0  2.163779  0  0  -0.516604  0  2.454875  0  0  -0.547759  0  2.438569  0  -1.119402  0  -0.325547  -0.49493  0  2.465448  0
O  O102  1  0.72477111  0.07252365  0.78677406  1  0  -0.60277  0  2.163735  0  0  -0.516548  0  2.454837  0  0  -0.547703  0  2.438531  0  -1.119481  0  -0.325565  -0.494873  0  2.465411  0
O  O103  1  0.77521695  0.92747768  0.28677464  1  0  -0.602794  0  2.163794  0  0  -0.516604  0  2.454904  0  0  -0.547758  0  2.438595  0  -1.119441  0  -0.325568  -0.494935  0  2.46549  0
F  F104  1  0.48822076  0.76398148  0.86948943  1  0  -0.252832  0  1.170399  0  0  -0.208667  0  1.339603  0  0  -0.220066  0  1.32426  0  -0.61909  0  -0.090242  -0.200383  0  1.350006  0
F  F105  1  0.01176946  0.23602077  0.36949236  1  0  -0.252898  0  1.170375  0  0  -0.208726  0  1.339645  0  0  -0.220118  0  1.324298  0  -0.619067  0  -0.090219  -0.19922  0  1.348873  0
F  F106  1  0.51177709  0.23600339  0.13051466  1  0  -0.252939  0  1.170563  0  0  -0.20876  0  1.339696  0  0  -0.220222  0  1.324402  0  -0.619241  0  -0.090257  -0.200478  0  1.3501  0
F  F107  1  0.98822306  0.76399336  0.63051174  1  0  -0.252935  0  1.170506  0  0  -0.208692  0  1.339774  0  0  -0.220137  0  1.324472  0  -0.619153  0  -0.090242  -0.200412  0  1.350178  0
F  F108  1  0.50879191  0.66118607  0.97970661  1  0  -0.243187  0  1.160596  0  0  -0.209927  0  1.337703  0  0  -0.218984  0  1.319178  0  -0.624107  0  -0.095609  -0.203423  0  1.350677  0
F  F109  1  0.99120980  0.33881435  0.47971070  1  0  -0.243286  0  1.160498  0  0  -0.20998  0  1.337638  0  0  -0.219038  0  1.319118  0  -0.624147  0  -0.095663  -0.203618  0  1.350744  0
F  F110  1  0.49118959  0.33880063  0.02029865  1  0  -0.243335  0  1.16056  0  0  -0.210106  0  1.337629  0  0  -0.219157  0  1.319095  0  -0.623611  0  -0.095682  -0.203604  0  1.350603  0
F  F111  1  0.00878475  0.66118607  0.52029924  1  0  -0.243309  0  1.16041  0  0  -0.209987  0  1.337573  0  0  -0.219037  0  1.319047  0  -0.62392  0  -0.095697  -0.203486  0  1.350545  0
F  F112  1  0.24737629  0.66403639  0.91700972  1  0  -0.257717  0  1.151436  0  0  -0.208099  0  1.306398  0  0  -0.218391  0  1.290513  0  -0.611053  0  -0.094845  -0.200602  0  1.31743  0
F  F113  1  0.25262064  0.33596311  0.41701030  1  0  -0.257813  0  1.151401  0  0  -0.208123  0  1.306374  0  0  -0.218416  0  1.290494  0  -0.611051  0  -0.094842  -0.200769  0  1.317526  0
F  F114  1  0.75260975  0.33595854  0.08299145  1  0  -0.257806  0  1.151346  0  0  -0.208223  0  1.306272  0  0  -0.218509  0  1.290378  0  -0.611272  0  -0.094884  -0.200729  0  1.317303  0
F  F115  1  0.74737330  0.66405194  0.58299555  1  0  -0.257763  0  1.151506  0  0  -0.20806  0  1.306515  0  0  -0.218343  0  1.290628  0  -0.611452  0  -0.094764  -0.200565  0  1.317544  0
