# generated using pymatgen
data_Zn4H45C42N3O16
_symmetry_space_group_name_H-M   'P 1'
_cell_length_a   19.32459961
_cell_length_b   19.48719692
_cell_length_c   19.62294729
_cell_angle_alpha   58.29763322
_cell_angle_beta   57.91264703
_cell_angle_gamma   57.93965902
_symmetry_Int_Tables_number   1
_chemical_formula_structural   Zn4H45C42N3O16
_chemical_formula_sum   'Zn8 H90 C84 N6 O32'
_cell_volume   4991.45514732
_cell_formula_units_Z   2
loop_
 _symmetry_equiv_pos_site_id
 _symmetry_equiv_pos_as_xyz
  1  'x, y, z'
loop_
 _atom_site_type_symbol
 _atom_site_label
 _atom_site_symmetry_multiplicity
 _atom_site_fract_x
 _atom_site_fract_y
 _atom_site_fract_z
 _atom_site_occupancy
 _atom_site_pbe_bader_charge
 _atom_site_pbe_bader_spin_density
 _atom_site_pbe_cm5_charge
 _atom_site_pbe_ddec_charge
 _atom_site_pbe_ddec_spin_density
 _atom_site_pbe_ddec_sum_bond_order
 _atom_site_pbe_magmom
Zn  Zn0  1  0.12416097  0.94937567  0.96195874  1  1.307398  0  0.667986  0.959152  0  2.383413  0
Zn  Zn1  1  0.96024159  0.12646663  0.94714437  1  1.312219  0  0.668073  0.957667  0  2.398545  0
Zn  Zn2  1  0.94499132  0.96600142  0.12237826  1  1.312339  0  0.668106  0.958805  0  2.390965  0
Zn  Zn3  1  0.95564779  0.96077936  0.95743919  1  1.307132  0  0.667909  0.948356  0  2.411677  0
Zn  Zn4  1  0.37290570  0.53851773  0.53913521  1  1.304781  0  0.669978  0.959427  0  2.400669  0
Zn  Zn5  1  0.54527724  0.37191382  0.53483914  1  1.303952  0  0.670816  0.962893  0  2.384623  0
Zn  Zn6  1  0.54053724  0.54000517  0.53462346  1  1.304363  0  0.663656  0.948793  0  2.380686  0
Zn  Zn7  1  0.53924084  0.54115007  0.37067622  1  1.310626  0  0.670004  0.95914  0  2.403905  0
H  H8  1  0.25333684  0.12000517  0.86184691  1  0.107302  0  0.109235  0.132593  0  0.992164  0
H  H9  1  0.23911872  0.16622384  0.76396729  1  0.072573  0  0.105477  0.121741  0  0.967056  0
H  H10  1  0.10362257  0.26133763  0.88947449  1  0.046383  0  0.094122  0.094369  0  1.005628  0
H  H11  1  0.15053494  0.30394938  0.77836027  1  0.007817  0  0.093895  0.090694  0  0.997548  0
H  H12  1  0.36365376  0.26569074  0.78500954  1  0.058803  0  0.097022  0.098968  0  0.996241  0
H  H13  1  0.34890717  0.18379474  0.78724851  1  0.055477  0  0.098089  0.100972  0  0.994531  0
H  H14  1  0.33612733  0.26456776  0.65309313  1  0.040715  0  0.104135  0.117547  0  0.962148  0
H  H15  1  0.24788956  0.35010033  0.68900206  1  0.05656  0  0.09835  0.110212  0  1.008754  0
H  H16  1  0.15522829  0.18440997  0.06239401  1  0.435968  0  0.304968  0.300729  0  0.971333  0
H  H17  1  0.11126842  0.28594412  0.99674353  1  0.471577  0  0.311759  0.322941  0  0.946455  0
H  H18  1  0.07814940  0.41327511  0.82043740  1  0.04788  0  0.100955  0.099069  0  1.017529  0
H  H19  1  0.03269500  0.55918529  0.81698681  1  0.064991  0  0.104119  0.098677  0  0.989057  0
H  H20  1  0.12253938  0.59526619  0.84020112  1  0.043275  0  0.10174  0.096678  0  0.994502  0
H  H21  1  0.26004251  0.48205451  0.86701864  1  0.024071  0  0.094012  0.084696  0  1.006767  0
H  H22  1  0.30581108  0.33572194  0.87056273  1  0.033332  0  0.09945  0.098173  0  1.007489  0
H  H23  1  0.11370613  0.86349356  0.25115972  1  0.081648  0  0.109693  0.131555  0  0.983746  0
H  H24  1  0.16179378  0.76472493  0.23665489  1  0.06913  0  0.105485  0.120933  0  0.969362  0
H  H25  1  0.25840563  0.89013906  0.10777056  1  0.058456  0  0.094648  0.095301  0  1.003353  0
H  H26  1  0.30142021  0.77798138  0.15183384  1  0.017987  0  0.093332  0.089605  0  0.998863  0
H  H27  1  0.25637121  0.78157006  0.36593084  1  0.047975  0  0.096988  0.099658  0  0.995277  0
H  H28  1  0.17767549  0.78263669  0.34686533  1  0.042011  0  0.096485  0.098229  0  0.996125  0
H  H29  1  0.26338457  0.64600584  0.33846030  1  0.049786  0  0.104345  0.117644  0  0.961647  0
H  H30  1  0.34686727  0.68403069  0.24894327  1  0.059063  0  0.098046  0.110015  0  1.007149  0
H  H31  1  0.16820147  0.06180762  0.17694896  1  0.441835  0  0.30265  0.300703  0  0.974817  0
H  H32  1  0.26948124  0.00080900  0.12150983  1  0.476079  0  0.31516  0.326184  0  0.937277  0
H  H33  1  0.41248485  0.81522652  0.08700489  1  0.052538  0  0.100947  0.099306  0  1.018778  0
H  H34  1  0.55913701  0.81021408  0.04648886  1  0.050572  0  0.103397  0.097849  0  0.989682  0
H  H35  1  0.59094636  0.83599601  0.13676648  1  0.050531  0  0.10018  0.09388  0  0.997482  0
H  H36  1  0.47266149  0.86710822  0.26954858  1  0.04109  0  0.09378  0.085321  0  1.005177  0
H  H37  1  0.32551096  0.87177241  0.31063281  1  0.040208  0  0.099502  0.098325  0  1.007709  0
H  H38  1  0.24368668  0.73286786  0.64681784  1  0.09986  0  0.111539  0.134776  0  0.983197  0
H  H39  1  0.26894250  0.65830152  0.73894517  1  0.062588  0  0.106735  0.123061  0  0.96595  0
H  H40  1  0.39203811  0.75703438  0.60800441  1  0.057598  0  0.09121  0.089784  0  1.010812  0
H  H41  1  0.35199245  0.72675068  0.71967256  1  0.026856  0  0.091842  0.087713  0  0.999053  0
H  H42  1  0.13005909  0.90734763  0.73001044  1  0.065833  0  0.095695  0.097622  0  0.997287  0
H  H43  1  0.15110914  0.80785748  0.73230331  1  0.051695  0  0.098275  0.100415  0  0.993477  0
H  H44  1  0.17459625  0.74118967  0.86066548  1  0.062869  0  0.106228  0.121815  0  0.956993  0
H  H45  1  0.25886150  0.78127069  0.81475486  1  0.045039  0  0.097486  0.109112  0  1.009266  0
H  H46  1  0.30323828  0.92869964  0.44590227  1  0.44053  0  0.321551  0.329195  0  0.917349  0
H  H47  1  0.36261820  0.90667024  0.50215669  1  0.454673  0  0.313746  0.316488  0  0.941153  0
H  H48  1  0.41267315  0.81079242  0.68399009  1  0.06356  0  0.099294  0.098752  0  1.019456  0
H  H49  1  0.45145938  0.91236855  0.68442189  1  0.039422  0  0.101842  0.097215  0  0.991449  0
H  H50  1  0.35810173  0.06713613  0.65580086  1  0.052099  0  0.099617  0.09302  0  1.000726  0
H  H51  1  0.22413732  0.11939221  0.62625059  1  0.023507  0  0.099736  0.094668  0  0.993838  0
H  H52  1  0.18439144  0.01754090  0.62704149  1  0.039955  0  0.1032  0.105151  0  0.996361  0
H  H53  1  0.87867834  0.25169114  0.10958811  1  0.101056  0  0.108857  0.131868  0  0.984618  0
H  H54  1  0.77492658  0.24473275  0.16104577  1  0.076373  0  0.106789  0.123068  0  0.966239  0
H  H55  1  0.91119075  0.11215931  0.24683977  1  0.062779  0  0.096367  0.100516  0  0.985555  0
H  H56  1  0.79742929  0.14801922  0.29477145  1  0.022695  0  0.095342  0.092165  0  0.994457  0
H  H57  1  0.78446100  0.37138643  0.25351564  1  0.049453  0  0.096855  0.099676  0  0.99627  0
H  H58  1  0.78771617  0.34844462  0.17724292  1  0.034966  0  0.09763  0.099017  0  0.997321  0
H  H59  1  0.65144504  0.33575824  0.26463888  1  0.045458  0  0.105195  0.119356  0  0.96052  0
H  H60  1  0.69437122  0.24668325  0.34395363  1  0.070871  0  0.098791  0.112362  0  1.002399  0
H  H61  1  0.06748342  0.20806178  0.19233728  1  0.43352  0  0.315578  0.314882  0  0.931434  0
H  H62  1  0.00488643  0.15057246  0.28558119  1  0.459259  0  0.314392  0.324645  0  0.940234  0
H  H63  1  0.83703770  0.08393122  0.40121249  1  0.047324  0  0.103626  0.103717  0  1.013261  0
H  H64  1  0.82844872  0.04340172  0.54662397  1  0.076713  0  0.105862  0.100787  0  0.986492  0
H  H65  1  0.83705196  0.14083103  0.58524995  1  0.043713  0  0.10254  0.097421  0  0.99584  0
H  H66  1  0.85361730  0.28141620  0.47521301  1  0.045312  0  0.095518  0.088402  0  1.002659  0
H  H67  1  0.86166184  0.32262884  0.32955907  1  0.08208  0  0.09903  0.09864  0  1.010487  0
H  H68  1  0.63937607  0.25165323  0.73281311  1  0.078134  0  0.112413  0.136764  0  0.984062  0
H  H69  1  0.73865222  0.26753030  0.66309770  1  0.049549  0  0.105851  0.12158  0  0.96894  0
H  H70  1  0.60387684  0.39603082  0.75626709  1  0.055726  0  0.091876  0.091889  0  1.005734  0
H  H71  1  0.71762903  0.35592026  0.72664463  1  0.009192  0  0.092131  0.087547  0  0.999537  0
H  H72  1  0.72262652  0.13764545  0.90749605  1  0.058196  0  0.095744  0.096508  0  0.996807  0
H  H73  1  0.72321820  0.15722443  0.81005901  1  0.049315  0  0.09871  0.101846  0  0.994627  0
H  H74  1  0.85776060  0.17354560  0.74167363  1  0.060871  0  0.105692  0.120829  0  0.958728  0
H  H75  1  0.81501965  0.25954978  0.77743432  1  0.071827  0  0.097649  0.110064  0  1.006347  0
H  H76  1  0.43531018  0.31437914  0.93356489  1  0.457389  0  0.32141  0.328707  0  0.91821  0
H  H77  1  0.49686575  0.36629717  0.91650477  1  0.448093  0  0.312675  0.316249  0  0.944021  0
H  H78  1  0.68150752  0.41739478  0.80828314  1  0.038717  0  0.099489  0.098235  0  1.021464  0
H  H79  1  0.68463847  0.45672507  0.90695481  1  0.056855  0  0.101573  0.096891  0  0.991894  0
H  H80  1  0.65749277  0.36517291  0.06035464  1  0.046724  0  0.099914  0.093805  0  0.999321  0
H  H81  1  0.62659815  0.23258981  0.11404797  1  0.07329  0  0.100556  0.095862  0  0.992645  0
H  H82  1  0.62421548  0.19258091  0.01521095  1  0.036763  0  0.103089  0.103957  0  0.996206  0
H  H83  1  0.73985442  0.63914486  0.24411514  1  0.121813  0  0.111717  0.135458  0  0.980604  0
H  H84  1  0.66775061  0.73624587  0.26274996  1  0.040478  0  0.106379  0.121805  0  0.968803  0
H  H85  1  0.76449601  0.60365412  0.38704857  1  0.043742  0  0.091337  0.090045  0  1.009038  0
H  H86  1  0.73315558  0.71601204  0.34889925  1  0.005647  0  0.09248  0.08842  0  1.000449  0
H  H87  1  0.91720825  0.72565594  0.13170865  1  0.0497  0  0.095619  0.09633  0  0.994926  0
H  H88  1  0.81998475  0.72399438  0.14885210  1  0.042186  0  0.098443  0.101446  0  0.99165  0
H  H89  1  0.74142264  0.85230188  0.17752741  1  0.058611  0  0.105565  0.120076  0  0.960668  0
H  H90  1  0.78522821  0.81192347  0.25624316  1  0.036213  0  0.09768  0.109407  0  1.009543  0
H  H91  1  0.94167063  0.43892455  0.30123632  1  0.466427  0  0.320159  0.327057  0  0.919893  0
H  H92  1  0.92104605  0.49775794  0.35701037  1  0.44938  0  0.313537  0.316471  0  0.942494  0
H  H93  1  0.81621394  0.68675522  0.40516806  1  0.050753  0  0.099476  0.099076  0  1.018292  0
H  H94  1  0.91798970  0.68824582  0.44329430  1  0.045551  0  0.102396  0.097814  0  0.990116  0
H  H95  1  0.07573321  0.65315714  0.35487491  1  0.043823  0  0.099778  0.093359  0  1.002294  0
H  H96  1  0.13060661  0.61699499  0.22594093  1  0.056423  0  0.100185  0.095395  0  0.993192  0
H  H97  1  0.02847294  0.61716321  0.18661018  1  0.034552  0  0.102738  0.104037  0  0.997435  0
C  C98  1  0.13975268  0.12090951  0.87103543  1  1.567308  0  0.226778  0.663179  0  4.105805  0
C  C99  1  0.20432979  0.16483387  0.83069261  1  -0.062781  0  -0.161814  -0.294515  0  3.895413  0
C  C100  1  0.16602393  0.25453005  0.83602621  1  -0.010014  0  -0.162295  -0.174045  0  3.896264  0
C  C101  1  0.22867723  0.27160935  0.84742017  1  0.023081  0  -0.004856  -0.016022  0  3.777681  0
C  C102  1  0.31982733  0.25271199  0.77750553  1  -0.019148  0  -0.15764  -0.166744  0  3.870015  0
C  C103  1  0.31459945  0.30696267  0.68688660  1  -0.019475  0  -0.161363  -0.284624  0  3.890987  0
C  C104  1  0.37051352  0.36271268  0.63043755  1  1.557752  0  0.227517  0.664606  0  4.106303  0
C  C105  1  0.23326838  0.20684405  0.93716101  1  1.406359  0  0.239212  0.549168  0  4.071619  0
C  C106  1  0.19592927  0.36335142  0.84508319  1  -0.02679  0  -0.013182  0.064337  0  3.929529  0
C  C107  1  0.11891705  0.42737808  0.83051048  1  -0.035922  0  -0.094692  -0.139012  0  3.984512  0
C  C108  1  0.09283116  0.51031780  0.82867785  1  -0.044323  0  -0.089779  -0.07312  0  4.027145  0
C  C109  1  0.14308926  0.53059830  0.84165480  1  -0.067418  0  -0.092575  -0.084279  0  4.027626  0
C  C110  1  0.21999404  0.46717317  0.85664975  1  -0.010076  0  -0.097392  -0.083667  0  4.058325  0
C  C111  1  0.24583453  0.38479322  0.85835586  1  -0.033421  0  -0.096521  -0.137296  0  3.986522  0
C  C112  1  0.11795667  0.87212065  0.13811014  1  1.57892  0  0.226912  0.6626  0  4.105342  0
C  C113  1  0.16055943  0.83158901  0.20299277  1  -0.060782  0  -0.160861  -0.289361  0  3.894754  0
C  C114  1  0.25083891  0.83589365  0.16808336  1  -0.023581  0  -0.162642  -0.175158  0  3.907651  0
C  C115  1  0.26588392  0.84514203  0.23264691  1  0.036355  0  -0.006337  -0.017502  0  3.781693  0
C  C116  1  0.24691860  0.77356270  0.32050317  1  -0.006597  0  -0.158734  -0.166949  0  3.870595  0
C  C117  1  0.30459663  0.68239941  0.31476676  1  -0.022902  0  -0.161113  -0.283064  0  3.890509  0
C  C118  1  0.36276195  0.62926897  0.36761553  1  1.559035  0  0.228734  0.665855  0  4.106948  0
C  C119  1  0.19831741  0.93368057  0.24294475  1  1.426372  0  0.236972  0.544117  0  4.086228  0
C  C120  1  0.35781429  0.84321237  0.20240616  1  -0.018866  0  -0.012337  0.068429  0  3.928751  0
C  C121  1  0.42466786  0.82641466  0.12792989  1  -0.078054  0  -0.094834  -0.140041  0  3.98718  0
C  C122  1  0.50804281  0.82371140  0.10463281  1  -0.038592  0  -0.089468  -0.072159  0  4.026285  0
C  C123  1  0.52591305  0.83815400  0.15513540  1  0.00635  0  -0.09329  -0.084241  0  4.029043  0
C  C124  1  0.45964277  0.85552604  0.22942314  1  -0.118681  0  -0.097971  -0.083375  0  4.059712  0
C  C125  1  0.37684645  0.85797877  0.25254505  1  -0.004768  0  -0.097797  -0.14035  0  3.991634  0
C  C126  1  0.36221637  0.63149060  0.62542780  1  1.557378  0  0.228644  0.665846  0  4.107824  0
C  C127  1  0.29732484  0.69566196  0.67185612  1  -0.06052  0  -0.161407  -0.294471  0  3.898714  0
C  C128  1  0.33246684  0.75447346  0.66455272  1  -0.04069  0  -0.163225  -0.17181  0  3.911955  0
C  C129  1  0.26435881  0.84642110  0.65910391  1  0.039047  0  -0.008182  -0.020264  0  3.792986  0
C  C130  1  0.17851664  0.84218109  0.73594118  1  -0.017106  0  -0.159685  -0.167043  0  3.878575  0
C  C131  1  0.19138623  0.79998908  0.82237902  1  -0.031449  0  -0.162369  -0.287867  0  3.896152  0
C  C132  1  0.13414358  0.85763031  0.87607621  1  1.549256  0  0.2286  0.66756  0  4.107594  0
C  C133  1  0.24593967  0.88337688  0.57594463  1  1.417164  0  0.238298  0.540304  0  4.099652  0
C  C134  1  0.29510298  0.90628242  0.65603660  1  -0.070635  0  -0.013929  0.062548  0  3.936715  0
C  C135  1  0.37059667  0.87825182  0.67128225  1  -0.050196  0  -0.098647  -0.14741  0  3.998008  0
C  C136  1  0.39296428  0.93583792  0.67130443  1  -0.024709  0  -0.094251  -0.079775  0  4.03943  0
C  C137  1  0.34065105  0.02254334  0.65539910  1  -0.035669  0  -0.095574  -0.088048  0  4.037867  0
C  C138  1  0.26559634  0.05164233  0.63912989  1  0.004852  0  -0.09559  -0.081608  0  4.049413  0
C  C139  1  0.24325712  0.99413320  0.63965853  1  -0.068905  0  -0.096216  -0.14152  0  3.989273  0
C  C140  1  0.87517501  0.14184363  0.11734223  1  1.565178  0  0.227518  0.663928  0  4.106086  0
C  C141  1  0.84327852  0.20657999  0.15727941  1  -0.075885  0  -0.162369  -0.293983  0  3.907601  0
C  C142  1  0.85224592  0.16985422  0.24397457  1  -0.016178  0  -0.159778  -0.170702  0  3.898596  0
C  C143  1  0.85500461  0.23665825  0.26244277  1  0.029849  0  -0.004608  -0.015283  0  3.77145  0
C  C144  1  0.77963667  0.32315830  0.24474764  1  -0.003166  0  -0.158748  -0.169627  0  3.872323  0
C  C145  1  0.68934517  0.31362848  0.30341865  1  -0.025076  0  -0.160682  -0.285601  0  3.889865  0
C  C146  1  0.63452055  0.36682336  0.36153729  1  1.54866  0  0.227618  0.664174  0  4.107814  0
C  C147  1  0.94329672  0.25065437  0.19888890  1  1.39202  0  0.241764  0.545816  0  4.057959  0
C  C148  1  0.84951117  0.20674369  0.35409965  1  -0.04453  0  -0.015333  0.057278  0  3.938423  0
C  C149  1  0.84033033  0.12820923  0.41643311  1  -0.044956  0  -0.092273  -0.137813  0  3.980058  0
C  C150  1  0.83571311  0.10485043  0.49911777  1  -0.046336  0  -0.087213  -0.068848  0  4.018827  0
C  C151  1  0.84058069  0.15933280  0.52080777  1  -0.024161  0  -0.092011  -0.084919  0  4.024837  0
C  C152  1  0.85001213  0.23787119  0.45915713  1  -0.039578  0  -0.097492  -0.080284  0  4.056881  0
C  C153  1  0.85429126  0.26108030  0.37710025  1  -0.102276  0  -0.099744  -0.149109  0  4.002884  0
C  C154  1  0.62977081  0.36504060  0.62741830  1  1.564169  0  0.227199  0.663696  0  4.10644  0
C  C155  1  0.67000163  0.30087278  0.69585120  1  -0.029742  0  -0.162199  -0.294729  0  3.903375  0
C  C156  1  0.66131038  0.33690185  0.75408166  1  -0.005582  0  -0.162991  -0.171377  0  3.91048  0
C  C157  1  0.65396247  0.27093051  0.84588187  1  0.01966  0  -0.007142  -0.017847  0  3.788289  0
C  C158  1  0.72962153  0.18422205  0.84240997  1  -0.013607  0  -0.159187  -0.168309  0  3.876325  0
C  C159  1  0.81984303  0.19323725  0.79855292  1  -0.067554  0  -0.161676  -0.286177  0  3.893285  0
C  C160  1  0.87344730  0.13704406  0.85597043  1  1.569216  0  0.22835  0.665438  0  4.108569  0
C  C161  1  0.56700124  0.25659435  0.88271742  1  1.418255  0  0.237593  0.539643  0  4.094262  0
C  C162  1  0.65329330  0.30145539  0.90396030  1  -0.04558  0  -0.014193  0.058538  0  3.941776  0
C  C163  1  0.66946290  0.37609109  0.87511919  1  -0.049012  0  -0.098549  -0.145895  0  4.000809  0
C  C164  1  0.67103831  0.39876508  0.93107244  1  -0.056431  0  -0.094806  -0.081079  0  4.042548  0
C  C165  1  0.65588441  0.34754145  0.01698887  1  -0.001585  0  -0.095257  -0.087225  0  4.037731  0
C  C166  1  0.63879599  0.27327958  0.04693008  1  -0.077349  0  -0.096026  -0.081705  0  4.04784  0
C  C167  1  0.63763637  0.25073733  0.99104644  1  -0.041497  0  -0.095036  -0.138811  0  3.989748  0
C  C168  1  0.63372376  0.62735730  0.35875615  1  1.561024  0  0.228395  0.664629  0  4.104531  0
C  C169  1  0.70229742  0.66854401  0.29412978  1  -0.059717  0  -0.161189  -0.29319  0  3.900153  0
C  C170  1  0.76162862  0.66056625  0.32900388  1  -0.007956  0  -0.163752  -0.172323  0  3.916163  0
C  C171  1  0.85476754  0.65431096  0.26227709  1  0.045099  0  -0.007311  -0.019167  0  3.790054  0
C  C172  1  0.85072032  0.73052675  0.17762382  1  0.00649  0  -0.159055  -0.165457  0  3.874256  0
C  C173  1  0.80251949  0.81843092  0.19066548  1  -0.039388  0  -0.161165  -0.28507  0  3.896129  0
C  C174  1  0.85485584  0.87754945  0.13227894  1  1.57725  0  0.228626  0.6667  0  4.10741  0
C  C175  1  0.89262842  0.56943039  0.24523195  1  1.414305  0  0.237746  0.539499  0  4.094808  0
C  C176  1  0.91447495  0.65226334  0.29255167  1  -0.079056  0  -0.013602  0.060203  0  3.943663  0
C  C177  1  0.88493507  0.67144811  0.36510244  1  -0.073193  0  -0.098001  -0.145342  0  3.995866  0
C  C178  1  0.94262674  0.67203629  0.38714424  1  -0.027732  0  -0.09353  -0.078164  0  4.035649  0
C  C179  1  0.03098742  0.65259341  0.33753784  1  -0.072036  0  -0.095541  -0.089764  0  4.040306  0
C  C180  1  0.06158829  0.63255618  0.26534155  1  -0.011788  0  -0.095834  -0.081811  0  4.051393  0
C  C181  1  0.00391883  0.63269551  0.24325740  1  0.009942  0  -0.096585  -0.142195  0  3.996273  0
N  N182  1  0.16311875  0.23061079  0.00403476  1  -1.247769  0  -0.584086  -0.666524  0  3.347184  0
N  N183  1  0.21524718  0.00381491  0.17474894  1  -1.274689  0  -0.581814  -0.663627  0  3.344677  0
N  N184  1  0.31257197  0.90273448  0.50191466  1  -1.253215  0  -0.580014  -0.664168  0  3.320627  0
N  N185  1  0.01386667  0.19128652  0.22413122  1  -1.224474  0  -0.581764  -0.673034  0  3.311258  0
N  N186  1  0.49351533  0.32134428  0.90796663  1  -1.256045  0  -0.579794  -0.664925  0  3.321383  0
N  N187  1  0.91461933  0.49589065  0.31009840  1  -1.267854  0  -0.580764  -0.664768  0  3.320115  0
O  O188  1  0.99677566  0.00089751  0.99747276  1  -1.221044  0  -0.576374  -1.034988  0  2.566672  0
O  O189  1  0.05865039  0.16513969  0.89460630  1  -1.186257  0  -0.31691  -0.544994  0  2.313068  0
O  O190  1  0.17296983  0.04175453  0.87830456  1  -1.189372  0  -0.32703  -0.568544  0  2.316982  0
O  O191  1  0.45067569  0.32622045  0.62317591  1  -1.180516  0  -0.320643  -0.55169  0  2.29054  0
O  O192  1  0.33275409  0.44195496  0.59362561  1  -1.183477  0  -0.32402  -0.559925  0  2.306556  0
O  O193  1  0.29273317  0.13636781  0.94829193  1  -1.146757  0  -0.319417  -0.505919  0  2.031303  0
O  O194  1  0.16297349  0.89699980  0.05886880  1  -1.181096  0  -0.315603  -0.543516  0  2.304635  0
O  O195  1  0.03853975  0.87831281  0.16939309  1  -1.189459  0  -0.329194  -0.571462  0  2.317329  0
O  O196  1  0.32651258  0.62368866  0.44598763  1  -1.180237  0  -0.32063  -0.553769  0  2.300841  0
O  O197  1  0.44342415  0.59334605  0.32969761  1  -1.180637  0  -0.323526  -0.558271  0  2.304903  0
O  O198  1  0.13132240  0.94103785  0.30651862  1  -1.150685  0  -0.322346  -0.508764  0  2.032893  0
O  O199  1  0.44265479  0.62220229  0.59355982  1  -1.174285  0  -0.31847  -0.548625  0  2.312108  0
O  O200  1  0.32927764  0.59184238  0.62212971  1  -1.180488  0  -0.325272  -0.564267  0  2.326873  0
O  O201  1  0.05433235  0.89546862  0.88228684  1  -1.181668  0  -0.319613  -0.550318  0  2.319047  0
O  O202  1  0.17008057  0.86331222  0.91095172  1  -1.173748  0  -0.32401  -0.559856  0  2.301805  0
O  O203  1  0.17866332  0.89032811  0.57604369  1  -1.130349  0  -0.315428  -0.496271  0  2.033589  0
O  O204  1  0.89733456  0.06196885  0.16177061  1  -1.176303  0  -0.315187  -0.542716  0  2.297447  0
O  O205  1  0.87716813  0.17375281  0.04079328  1  -1.189296  0  -0.330168  -0.574316  0  2.324255  0
O  O206  1  0.62715597  0.44596564  0.32608411  1  -1.176793  0  -0.321048  -0.554351  0  2.308457  0
O  O207  1  0.59945447  0.32871371  0.44076792  1  -1.182143  0  -0.32205  -0.556938  0  2.294576  0
O  O208  1  0.95152827  0.30816988  0.12826121  1  -1.148124  0  -0.307658  -0.492301  0  2.045636  0
O  O209  1  0.59878073  0.44486055  0.61711631  1  -1.179393  0  -0.31737  -0.545916  0  2.304748  0
O  O210  1  0.63005625  0.33232643  0.58549159  1  -1.187678  0  -0.326656  -0.56973  0  2.334041  0
O  O211  1  0.88016444  0.05810443  0.89259420  1  -1.185575  0  -0.318827  -0.549796  0  2.316632  0
O  O212  1  0.90752218  0.17299290  0.86294250  1  -1.170635  0  -0.323388  -0.557435  0  2.305307  0
O  O213  1  0.56381840  0.19442145  0.88386391  1  -1.135233  0  -0.313377  -0.49411  0  2.036564  0
O  O214  1  0.62328737  0.59808727  0.43772630  1  -1.17907  0  -0.318096  -0.547366  0  2.307614  0
O  O215  1  0.59200696  0.62517990  0.32732582  1  -1.179625  0  -0.32578  -0.565476  0  2.331118  0
O  O216  1  0.89096503  0.88467010  0.05356257  1  -1.181106  0  -0.318481  -0.54726  0  2.31316  0
O  O217  1  0.85832342  0.91554369  0.16657495  1  -1.18408  0  -0.325585  -0.561793  0  2.303209  0
O  O218  1  0.89748499  0.56764329  0.18092193  1  -1.136469  0  -0.314547  -0.49579  0  2.036709  0
O  O219  1  0.50051832  0.49802784  0.49564775  1  -1.203722  0  -0.577213  -1.036463  0  2.568361  0
