# generated using pymatgen
data_CuH7C10N2O7
_symmetry_space_group_name_H-M   'P 1'
_cell_length_a   6.62257422
_cell_length_b   9.64427126
_cell_length_c   9.50880894
_cell_angle_alpha   96.42908604
_cell_angle_beta   109.52264370
_cell_angle_gamma   94.35330427
_symmetry_Int_Tables_number   1
_chemical_formula_structural   CuH7C10N2O7
_chemical_formula_sum   'Cu2 H14 C20 N4 O14'
_cell_volume   564.63212571
_cell_formula_units_Z   2
loop_
 _symmetry_equiv_pos_site_id
 _symmetry_equiv_pos_as_xyz
  1  'x, y, z'
loop_
 _atom_site_type_symbol
 _atom_site_label
 _atom_site_symmetry_multiplicity
 _atom_site_fract_x
 _atom_site_fract_y
 _atom_site_fract_z
 _atom_site_occupancy
 _atom_site_hle17_bader_spin_density
 _atom_site_hle17_ddec_charge
 _atom_site_hle17_ddec_spin_density
 _atom_site_hle17_ddec_sum_bond_order
 _atom_site_hle17_magmom
 _atom_site_hse06_10hf_bader_spin_density
 _atom_site_hse06_10hf_ddec_charge
 _atom_site_hse06_10hf_ddec_spin_density
 _atom_site_hse06_10hf_ddec_sum_bond_order
 _atom_site_hse06_10hf_magmom
 _atom_site_hse06_bader_spin_density
 _atom_site_hse06_ddec_charge
 _atom_site_hse06_ddec_spin_density
 _atom_site_hse06_ddec_sum_bond_order
 _atom_site_hse06_magmom
 _atom_site_pbe_bader_spin_density
 _atom_site_pbe_cm5_charge
 _atom_site_pbe_ddec_charge
 _atom_site_pbe_ddec_spin_density
 _atom_site_pbe_ddec_sum_bond_order
 _atom_site_pbe_magmom
Cu  Cu0  1  0.42349549  0.86859646  0.45214768  1  0  0.49115  0  1.691028  0  0  0.373417  0  2.153829  0  0  0.390387  0  2.097821  0  0  0.471694  0.366108  0  2.189234  0
Cu  Cu1  1  0.57649814  0.13139843  0.54784508  1  0  0.491135  0  1.691038  0  0  0.373381  0  2.15387  0  0  0.390356  0  2.097818  0  0  0.471643  0.36609  0  2.189173  0
H  H2  1  0.39444369  0.98033082  0.12983242  1  0  0.116808  0  0.937638  0  0  0.123668  0  1.002352  0  0  0.127889  0  0.998828  0  0  0.111102  0.119921  0  1.006248  0
H  H3  1  0.60555108  0.01966940  0.87017274  1  0  0.116841  0  0.937503  0  0  0.123625  0  1.002312  0  0  0.127847  0  0.998787  0  0  0.111106  0.119882  0  1.006198  0
H  H4  1  0.04141826  0.33337045  0.38093754  1  0  0.138514  0  0.947071  0  0  0.142788  0  1.013319  0  0  0.14746  0  1.010395  0  0  0.116997  0.138898  0  1.016184  0
H  H5  1  0.95857938  0.66662867  0.61905974  1  0  0.138508  0  0.94711  0  0  0.142785  0  1.013357  0  0  0.147456  0  1.010433  0  0  0.116994  0.138894  0  1.016219  0
H  H6  1  0.00154887  0.19077224  0.03064103  1  0  0.414066  0  0.778998  0  0  0.399089  0  0.829473  0  0  0.408593  0  0.819899  0  0  0.349169  0.39231  0  0.836501  0
H  H7  1  0.99844747  0.80923739  0.96935709  1  0  0.414101  0  0.77898  0  0  0.399092  0  0.829521  0  0  0.408596  0  0.819946  0  0  0.349169  0.392312  0  0.836551  0
H  H8  1  0.64722897  0.61992476  0.16885872  1  0  0.40145  0  0.892243  0  0  0.370146  0  0.969407  0  0  0.383614  0  0.954697  0  0  0.300441  0.360762  0  0.978657  0
H  H9  1  0.35277550  0.38007649  0.83114244  1  0  0.401429  0  0.892253  0  0  0.370138  0  0.96941  0  0  0.383607  0  0.954706  0  0  0.300433  0.360756  0  0.97866  0
H  H10  1  0.25964142  0.56151219  0.28472651  1  0  0.438913  0  0.832253  0  0  0.416798  0  0.884793  0  0  0.424748  0  0.873052  0  0  0.306822  0.411197  0  0.893167  0
H  H11  1  0.74036927  0.43848803  0.71527595  1  0  0.438931  0  0.83226  0  0  0.416798  0  0.884784  0  0  0.424746  0  0.873049  0  0  0.306833  0.411196  0  0.893158  0
H  H12  1  0.25444127  0.57236768  0.44863439  1  0  0.418485  0  0.886268  0  0  0.386069  0  0.953384  0  0  0.395945  0  0.939129  0  0  0.286265  0.379134  0  0.963415  0
H  H13  1  0.74556816  0.42763462  0.55136591  1  0  0.418503  0  0.886273  0  0  0.386082  0  0.95339  0  0  0.395958  0  0.939135  0  0  0.286274  0.379147  0  0.963421  0
H  H14  1  0.01068330  0.73393349  0.30324445  1  0  0.317411  0  0.894018  0  0  0.297289  0  0.955603  0  0  0.30607  0  0.948691  0  0  0.322687  0.291488  0  0.959777  0
H  H15  1  0.98931595  0.26606564  0.69675320  1  0  0.317408  0  0.894054  0  0  0.297288  0  0.955626  0  0  0.306071  0  0.94872  0  0  0.322683  0.291488  0  0.959803  0
C  C16  1  0.76595285  0.86489194  0.23387215  1  0  0.502203  0  3.856029  0  0  0.447583  0  4.154369  0  0  0.476127  0  4.155616  0  0  0.229743  0.429021  0  4.152341  0
C  C17  1  0.23404162  0.13510719  0.76612652  1  0  0.502219  0  3.856016  0  0  0.447577  0  4.154417  0  0  0.476105  0  4.15569  0  0  0.229751  0.429019  0  4.152385  0
C  C18  1  0.73852821  0.01407589  0.24070025  1  0  -0.074789  0  3.782939  0  0  -0.062982  0  4.028141  0  0  -0.067313  0  4.045423  0  0  -0.009805  -0.060919  0  4.017472  0
C  C19  1  0.26146814  0.98592433  0.75930422  1  0  -0.074746  0  3.782856  0  0  -0.062925  0  4.028053  0  0  -0.067246  0  4.045338  0  0  -0.009798  -0.060862  0  4.017367  0
C  C20  1  0.53463006  0.05882377  0.18114345  1  0  -0.063223  0  3.69325  0  0  -0.100621  0  3.956013  0  0  -0.097463  0  3.969656  0  0  -0.068113  -0.103063  0  3.949052  0
C  C21  1  0.46536268  0.94117433  0.81885893  1  0  -0.063222  0  3.693217  0  0  -0.10057  0  3.955936  0  0  -0.0974  0  3.969538  0  0  -0.068105  -0.103009  0  3.948966  0
C  C22  1  0.51212996  0.20197297  0.19044368  1  0  -0.070735  0  3.716912  0  0  -0.059573  0  3.953941  0  0  -0.064618  0  3.972067  0  0  -0.005189  -0.056976  0  3.942989  0
C  C23  1  0.48786477  0.79802724  0.80955938  1  0  -0.070947  0  3.717203  0  0  -0.05971  0  3.954087  0  0  -0.064758  0  3.972213  0  0  -0.005262  -0.057117  0  3.943151  0
C  C24  1  0.69694644  0.30195156  0.26100277  1  0  -0.029501  0  3.687521  0  0  -0.016396  0  3.923051  0  0  -0.017182  0  3.938647  0  0  0.00939  -0.016004  0  3.912863  0
C  C25  1  0.30304788  0.69804653  0.73899786  1  0  -0.029393  0  3.687809  0  0  -0.016336  0  3.923265  0  0  -0.017122  0  3.938863  0  0  0.009416  -0.01595  0  3.913076  0
C  C26  1  0.89856525  0.25811245  0.32237553  1  0  -0.084828  0  3.650011  0  0  -0.120568  0  3.906647  0  0  -0.12065  0  3.920646  0  0  -0.074035  -0.121056  0  3.898726  0
C  C27  1  0.10142903  0.74188563  0.67762299  1  0  -0.084832  0  3.650005  0  0  -0.120574  0  3.906641  0  0  -0.12066  0  3.920647  0  0  -0.074059  -0.121064  0  3.89871  0
C  C28  1  0.92096057  0.11435655  0.31158632  1  0  -0.015113  0  3.760694  0  0  -0.009175  0  4.003489  0  0  -0.009052  0  4.020826  0  0  -0.002542  -0.009557  0  3.99289  0
C  C29  1  0.07903725  0.88564361  0.68841007  1  0  -0.015118  0  3.760553  0  0  -0.009162  0  4.003378  0  0  -0.009044  0  4.020717  0  0  -0.0025  -0.009544  0  3.992761  0
C  C30  1  0.13305843  0.06942188  0.37639459  1  0  0.434782  0  3.908922  0  0  0.393991  0  4.185415  0  0  0.417714  0  4.194859  0  0  0.200408  0.377355  0  4.180083  0
C  C31  1  0.86693940  0.93057829  0.62360285  1  0  0.434876  0  3.908759  0  0  0.394008  0  4.185405  0  0  0.417732  0  4.19485  0  0  0.200397  0.377375  0  4.180044  0
C  C32  1  0.29668101  0.25206109  0.13701285  1  0  0.661837  0  3.780677  0  0  0.61071  0  4.083705  0  0  0.643279  0  4.07481  0  0  0.238037  0.587832  0  4.090695  0
C  C33  1  0.70331420  0.74793282  0.86299069  1  0  0.661802  0  3.780871  0  0  0.610725  0  4.083789  0  0  0.643306  0  4.074871  0  0  0.238027  0.587834  0  4.090787  0
C  C34  1  0.68625730  0.45747940  0.27907827  1  0  0.669988  0  3.842435  0  0  0.612127  0  4.153462  0  0  0.645276  0  4.143684  0  0  0.237888  0.589932  0  4.158911  0
C  C35  1  0.31374718  0.54252186  0.72092395  1  0  0.669743  0  3.842523  0  0  0.612021  0  4.153374  0  0  0.645173  0  4.143578  0  0  0.237824  0.589842  0  4.158806  0
N  N36  1  0.97069494  0.83583292  0.29816474  1  0  -0.25763  0  3.357003  0  0  -0.201708  0  3.592657  0  0  -0.219773  0  3.608049  0  0  -0.288785  -0.1898  0  3.581669  0
N  N37  1  0.02930455  0.16416728  0.70183624  1  0  -0.257639  0  3.357111  0  0  -0.20171  0  3.592813  0  0  -0.219777  0  3.608212  0  0  -0.288795  -0.18981  0  3.581842  0
N  N38  1  0.15327492  0.93181881  0.36750185  1  0  -0.331138  0  3.347438  0  0  -0.27558  0  3.667555  0  0  -0.293259  0  3.675744  0  0  -0.318707  -0.264353  0  3.662417  0
N  N39  1  0.84672555  0.06817821  0.63249585  1  0  -0.331127  0  3.347342  0  0  -0.275562  0  3.667518  0  0  -0.293241  0  3.675696  0  0  -0.318663  -0.264337  0  3.66231  0
O  O40  1  0.60942020  0.76889812  0.17153468  1  0  -0.561586  0  1.988168  0  0  -0.51638  0  2.218618  0  0  -0.53861  0  2.209327  0  0  -0.301693  -0.500306  0  2.2239  0
O  O41  1  0.39058070  0.23110103  0.82846651  1  0  -0.561561  0  1.988072  0  0  -0.516347  0  2.218511  0  0  -0.538575  0  2.209232  0  0  -0.301676  -0.500266  0  2.223778  0
O  O42  1  0.29577378  0.16433937  0.44072531  1  0  -0.552811  0  2.241097  0  0  -0.484438  0  2.538476  0  0  -0.511372  0  2.52627  0  0  -0.341978  -0.465971  0  2.545773  0
O  O43  1  0.70422688  0.83565871  0.55927255  1  0  -0.552856  0  2.240924  0  0  -0.484477  0  2.538384  0  0  -0.511413  0  2.52619  0  0  -0.341986  -0.465996  0  2.54571  0
O  O44  1  0.26087690  0.37330850  0.16275149  1  0  -0.525844  0  1.947027  0  0  -0.485936  0  2.157552  0  0  -0.504009  0  2.147936  0  0  -0.265231  -0.474139  0  2.165055  0
O  O45  1  0.73912252  0.62670011  0.83725143  1  0  -0.525718  0  1.947258  0  0  -0.485856  0  2.157788  0  0  -0.503931  0  2.148162  0  0  -0.265185  -0.474058  0  2.165297  0
O  O46  1  0.13633678  0.14778296  0.05642419  1  0  -0.536385  0  2.070217  0  0  -0.489875  0  2.284201  0  0  -0.510645  0  2.271588  0  0  -0.327205  -0.475112  0  2.293135  0
O  O47  1  0.86365683  0.85222036  0.94357369  1  0  -0.536426  0  2.070177  0  0  -0.489912  0  2.284153  0  0  -0.51069  0  2.271536  0  0  -0.327224  -0.475144  0  2.293087  0
O  O48  1  0.66726431  0.51255996  0.15633887  1  0  -0.525476  0  2.103881  0  0  -0.479538  0  2.322759  0  0  -0.502106  0  2.307985  0  0  -0.320389  -0.4633  0  2.332287  0
O  O49  1  0.33274302  0.48743921  0.84366482  1  0  -0.525384  0  2.103822  0  0  -0.479514  0  2.32266  0  0  -0.502077  0  2.307876  0  0  -0.320361  -0.463281  0  2.332184  0
O  O50  1  0.70813255  0.52302546  0.40415923  1  0  -0.553643  0  1.968443  0  0  -0.501536  0  2.182325  0  0  -0.523491  0  2.173351  0  0  -0.275938  -0.486758  0  2.187358  0
O  O51  1  0.29187011  0.47697472  0.59584036  1  0  -0.553548  0  1.96841  0  0  -0.501499  0  2.182239  0  0  -0.52346  0  2.17326  0  0  -0.27591  -0.486725  0  2.187267  0
O  O52  1  0.22434331  0.62374015  0.35952420  1  0  -0.822911  0  1.83944  0  0  -0.769354  0  2.019702  0  0  -0.787548  0  1.988788  0  0  -0.581017  -0.756649  0  2.040822  0
O  O53  1  0.77566950  0.37626320  0.64047593  1  0  -0.822971  0  1.839486  0  0  -0.76938  0  2.019772  0  0  -0.787574  0  1.988857  0  0  -0.581043  -0.75667  0  2.040881  0
