# generated using pymatgen
data_CoH6C3(N2Cl)2
_symmetry_space_group_name_H-M   'P 1'
_cell_length_a   6.63595647
_cell_length_b   7.34218887
_cell_length_c   8.62623714
_cell_angle_alpha   108.24668820
_cell_angle_beta   105.06471886
_cell_angle_gamma   106.67599784
_symmetry_Int_Tables_number   1
_chemical_formula_structural   CoH6C3(N2Cl)2
_chemical_formula_sum   'Co2 H12 C6 N8 Cl4'
_cell_volume   352.98432025
_cell_formula_units_Z   2
loop_
 _symmetry_equiv_pos_site_id
 _symmetry_equiv_pos_as_xyz
  1  'x, y, z'
loop_
 _atom_site_type_symbol
 _atom_site_label
 _atom_site_symmetry_multiplicity
 _atom_site_fract_x
 _atom_site_fract_y
 _atom_site_fract_z
 _atom_site_occupancy
 _atom_site_hle17_ddec_charge
 _atom_site_hle17_ddec_spin_density
 _atom_site_hle17_ddec_sum_bond_order
 _atom_site_hle17_magmom
 _atom_site_hse06_10hf_ddec_charge
 _atom_site_hse06_10hf_ddec_spin_density
 _atom_site_hse06_10hf_ddec_sum_bond_order
 _atom_site_hse06_10hf_magmom
 _atom_site_hse06_ddec_charge
 _atom_site_hse06_ddec_spin_density
 _atom_site_hse06_ddec_sum_bond_order
 _atom_site_hse06_magmom
 _atom_site_pbe_cm5_charge
 _atom_site_pbe_ddec_charge
 _atom_site_pbe_ddec_spin_density
 _atom_site_pbe_ddec_sum_bond_order
 _atom_site_pbe_magmom
Co  Co0  1  0.99999569  0.99999379  0.99999281  1  0.702482  -2.697766  2.300381  -2.46  0.730094  -2.782641  2.679172  -2.573  0.828946  -2.848059  2.586771  -2.671  0.478616  0.63803  -2.698706  2.759424  -2.458
Co  Co1  1  0.49998026  0.99998569  0.99998907  1  0.47906  -1.126831  2.754022  -1.028  0.484714  -0.999247  3.181688  -0.933  0.560667  -0.996556  3.104873  -0.948  0.497153  0.448929  -1.021577  3.224982  -0.936
H  H2  1  0.44573484  0.67758637  0.44166341  1  0.142192  -0.000277  0.964491  0.0  0.160137  -0.00045  1.026622  0.0  0.163538  -0.000281  1.024573  0.0  0.090354  0.157286  -0.000635  1.028416  0.0
H  H3  1  0.55424237  0.32241262  0.55836653  1  0.142164  -0.00027  0.964615  0.0  0.160154  -0.00045  1.026724  0.0  0.163555  -0.000281  1.024677  0.0  0.090388  0.1573  -0.000635  1.028517  0.0
H  H4  1  0.38711229  0.67090744  0.22700755  1  0.156346  -1.3e-05  0.937725  0.0  0.172717  -0.000334  0.999999  0.0  0.176802  -0.000201  0.997117  0.0  0.095131  0.168857  -0.000436  1.003166  0.0
H  H5  1  0.61288393  0.32910182  0.77297784  1  0.156318  -4e-06  0.937717  0.0  0.172682  -0.000334  1.000034  0.0  0.176763  -0.0002  0.997157  0.0  0.095142  0.168809  -0.000435  1.003216  0.0
H  H6  1  0.42741493  0.45641211  0.26473260  1  0.138619  0.000374  1.010195  0.0  0.145469  0.000298  1.088573  0.0  0.148203  0.000317  1.087359  0.0  0.0922  0.14363  0.00027  1.088942  0.0
H  H7  1  0.57259473  0.54355500  0.73525632  1  0.138636  0.000379  1.010194  0.0  0.145574  0.000298  1.08851  0.0  0.148309  0.000317  1.087295  0.0  0.092234  0.143732  0.00027  1.08888  0.0
H  H8  1  0.92489993  0.77509809  0.50851920  1  0.128017  -0.000226  0.923895  0.0  0.146675  -0.000346  0.986975  0.0  0.148082  -0.000234  0.986354  0.0  0.117153  0.145579  -0.00045  0.987283  0.0
H  H9  1  0.07512399  0.22490971  0.49148262  1  0.128047  -0.000228  0.923744  0.0  0.146692  -0.000347  0.986856  0.0  0.148103  -0.000234  0.986227  0.0  0.117137  0.145596  -0.000451  0.987161  0.0
H  H10  1  0.07429037  0.88188332  0.38909885  1  0.122906  -0.000313  0.969544  0.0  0.143102  -0.000474  1.032144  0.0  0.145651  -0.000227  1.030672  0.0  0.09958  0.140925  -0.000709  1.033124  0.0
H  H11  1  0.92574604  0.11811662  0.61091589  1  0.122963  -0.000312  0.969506  0.0  0.143118  -0.000474  1.032153  0.0  0.145681  -0.000227  1.030667  0.0  0.099587  0.140921  -0.000709  1.033145  0.0
H  H12  1  0.21981106  0.81884172  0.55720968  1  0.122837  -0.000296  0.959562  0.0  0.136418  -0.000505  1.032549  0.0  0.13786  -0.000338  1.032159  0.0  0.106216  0.134794  -0.000682  1.033618  0.0
H  H13  1  0.78018999  0.18114566  0.44277747  1  0.122866  -0.000296  0.959673  0.0  0.136409  -0.000505  1.032667  0.0  0.137853  -0.000337  1.032281  0.0  0.106231  0.134789  -0.000682  1.033737  0.0
C  C14  1  0.11137408  0.47050840  0.25514993  1  0.392308  0.007057  3.629751  0.004  0.354806  0.002206  3.901999  0.0  0.372453  0.001982  3.912308  0.0  0.257817  0.342231  0.003089  3.894766  0.001
C  C15  1  0.88860902  0.52949106  0.74485227  1  0.392297  0.007103  3.629741  0.004  0.354789  0.002213  3.901982  0.0  0.372436  0.001985  3.912297  0.0  0.257707  0.342216  0.0031  3.894748  0.001
C  C16  1  0.35683696  0.57352641  0.29991325  1  -0.410556  -0.000548  3.682744  -0.001  -0.484403  -0.000858  3.918306  -0.001  -0.489748  -0.000531  3.919706  -0.001  -0.243031  -0.479865  -0.001209  3.91769  -0.002
C  C17  1  0.64322543  0.42649114  0.70009741  1  -0.41056  -0.000562  3.683896  -0.002  -0.484498  -0.000857  3.919409  -0.001  -0.489823  -0.00053  3.920763  -0.001  -0.243056  -0.479944  -0.001207  3.918805  -0.002
C  C18  1  0.05561386  0.77404191  0.45322766  1  -0.189322  -0.001262  3.580983  -0.002  -0.306089  -0.0015  3.82404  -0.002  -0.303981  -0.000951  3.829314  -0.002  -0.12804  -0.306529  -0.002088  3.820692  -0.003
C  C19  1  0.94438836  0.22594075  0.54676187  1  -0.189359  -0.001261  3.580894  -0.002  -0.306066  -0.0015  3.82388  -0.002  -0.303973  -0.000952  3.829148  -0.002  -0.127983  -0.306491  -0.002088  3.820557  -0.003
N  N20  1  0.98412827  0.56213043  0.32223915  1  0.027198  0.001129  3.496745  -0.001  0.143973  0.000678  3.690325  0.0  0.133526  0.000349  3.707965  0.0  -0.113511  0.149449  0.000859  3.681101  0.0
N  N21  1  0.01587728  0.43786007  0.67775205  1  0.027162  0.001124  3.496787  -0.001  0.144045  0.000678  3.690208  0.0  0.133601  0.00035  3.707847  0.0  -0.113476  0.149492  0.000859  3.681033  0.0
N  N22  1  0.76511855  0.42605175  0.25019448  1  -0.050978  0.025854  2.824838  0.02  -0.061939  0.009594  3.09017  0.007  -0.049167  0.007207  3.093505  0.005  -0.054738  -0.071698  0.011408  3.090985  0.009
N  N23  1  0.23485356  0.57395852  0.74980866  1  -0.051066  0.02585  2.825253  0.02  -0.062134  0.009599  3.090644  0.007  -0.04936  0.007213  3.093974  0.005  -0.054889  -0.071885  0.01141  3.091466  0.009
N  N24  1  0.75938803  0.25396871  0.14083451  1  -0.001382  0.02283  3.385118  0.016  0.022072  0.013215  3.706814  0.01  0.012292  0.012105  3.716051  0.009  -0.127597  0.023329  0.01495  3.704392  0.011
N  N25  1  0.24059341  0.74604174  0.85916464  1  -0.001474  0.022861  3.385613  0.016  0.022024  0.01322  3.707326  0.01  0.012238  0.012112  3.716554  0.009  -0.127693  0.023274  0.014955  3.704924  0.011
N  N26  1  0.96960902  0.27383794  0.14110352  1  -0.29777  -0.021675  3.168603  -0.041  -0.276992  -0.019771  3.470693  -0.032  -0.298766  -0.017569  3.482998  -0.029  -0.228216  -0.260286  -0.021054  3.463734  -0.034
N  N27  1  0.03038499  0.72619437  0.85890991  1  -0.29757  -0.021695  3.168324  -0.041  -0.276825  -0.019776  3.470425  -0.032  -0.298589  -0.017576  3.482717  -0.029  -0.228145  -0.260129  -0.021058  3.46348  -0.034
Cl  Cl28  1  0.28878451  0.16498757  0.90288502  1  -0.368967  -0.027581  1.263541  -0.056  -0.401766  -0.034425  1.573768  -0.052  -0.450677  -0.02188  1.552734  -0.036  -0.202164  -0.362653  -0.04886  1.587063  -0.071
Cl  Cl29  1  0.71120594  0.83501823  0.09711802  1  -0.369021  -0.027577  1.263537  -0.056  -0.401836  -0.034423  1.573781  -0.052  -0.450748  -0.02188  1.552744  -0.036  -0.202195  -0.362727  -0.048858  1.587089  -0.071
Cl  Cl30  1  0.32437960  0.04570921  0.23875543  1  -0.502202  -0.093265  1.110505  -0.146  -0.501569  -0.076392  1.386925  -0.108  -0.540872  -0.057448  1.362535  -0.082  -0.248966  -0.468493  -0.094322  1.404422  -0.133
Cl  Cl31  1  0.67561880  0.95429367  0.76124018  1  -0.502193  -0.093265  1.110457  -0.146  -0.501549  -0.076391  1.38688  -0.108  -0.540856  -0.057446  1.362493  -0.082  -0.248948  -0.468467  -0.094321  1.404366  -0.133
