# generated using pymatgen
data_CaH8C10(O3F2)2
_symmetry_space_group_name_H-M   'P 1'
_cell_length_a   7.68859273
_cell_length_b   10.39509900
_cell_length_c   10.39504231
_cell_angle_alpha   116.01710726
_cell_angle_beta   96.87410460
_cell_angle_gamma   96.87388231
_symmetry_Int_Tables_number   1
_chemical_formula_structural   CaH8C10(O3F2)2
_chemical_formula_sum   'Ca2 H16 C20 O12 F8'
_cell_volume   727.31666830
_cell_formula_units_Z   2
loop_
 _symmetry_equiv_pos_site_id
 _symmetry_equiv_pos_as_xyz
  1  'x, y, z'
loop_
 _atom_site_type_symbol
 _atom_site_label
 _atom_site_symmetry_multiplicity
 _atom_site_fract_x
 _atom_site_fract_y
 _atom_site_fract_z
 _atom_site_occupancy
 _atom_site_pbe_bader_spin_density
 _atom_site_pbe_cm5_charge
 _atom_site_pbe_ddec_charge
 _atom_site_pbe_ddec_spin_density
 _atom_site_pbe_ddec_sum_bond_order
 _atom_site_pbe_magmom
Ca  Ca0  1  0.74999990  0.96522078  0.03477859  1  0  0.898634  1.358369  0  1.525197  0
Ca  Ca1  1  0.24999952  0.03478029  0.96522131  1  0  0.898631  1.358365  0  1.525221  0
H  H2  1  0.02031649  0.28646123  0.41984497  1  0  0.094708  0.088454  0  0.994489  0
H  H3  1  0.47968196  0.58015367  0.71353917  1  0  0.094695  0.088422  0  0.994553  0
H  H4  1  0.97968529  0.71353876  0.58015466  1  0  0.094706  0.088451  0  0.994471  0
H  H5  1  0.52031802  0.41984412  0.28646125  1  0  0.094676  0.088392  0  0.994503  0
H  H6  1  0.93903931  0.17417121  0.49863422  1  0  0.084423  0.079311  0  1.019279  0
H  H7  1  0.56095801  0.50136511  0.82582832  1  0  0.084445  0.079347  0  1.019258  0
H  H8  1  0.06096223  0.82582768  0.50136586  1  0  0.084425  0.079315  0  1.019293  0
H  H9  1  0.43904353  0.49863378  0.17417273  1  0  0.084454  0.079326  0  1.019264  0
H  H10  1  0.78635279  0.21979313  0.38797276  1  0  0.09892  0.093156  0  1.00686  0
H  H11  1  0.71364438  0.61202770  0.78020635  1  0  0.098915  0.093161  0  1.00684  0
H  H12  1  0.21364900  0.78020686  0.61202782  1  0  0.098905  0.093152  0  1.006859  0
H  H13  1  0.28635585  0.38797118  0.21979457  1  0  0.098914  0.093134  0  1.006835  0
H  H14  1  0.05598575  0.06509509  0.26619066  1  0  0.305783  0.351026  0  0.988349  0
H  H15  1  0.44401295  0.73380677  0.93490523  1  0  0.305779  0.351014  0  0.988371  0
H  H16  1  0.94401448  0.93490381  0.73380739  1  0  0.305799  0.351038  0  0.988343  0
H  H17  1  0.55598597  0.26619211  0.06509558  1  0  0.30579  0.351009  0  0.988385  0
C  C18  1  0.90497832  0.24249117  0.04285079  1  0  0.231522  0.637515  0  4.206054  0
C  C19  1  0.59502920  0.95714440  0.75750370  1  0  0.231552  0.637681  0  4.205887  0
C  C20  1  0.09502085  0.75750880  0.95714956  1  0  0.231558  0.637584  0  4.205933  0
C  C21  1  0.40497021  0.04285667  0.24249619  1  0  0.231569  0.637769  0  4.205905  0
C  C22  1  0.95298561  0.37504232  0.02062170  1  0  -0.019992  -0.214245  0  4.027385  0
C  C23  1  0.54701353  0.97937775  0.62495898  1  0  -0.019941  -0.214259  0  4.027441  0
C  C24  1  0.04701618  0.62495767  0.97937889  1  0  -0.020008  -0.214335  0  4.027387  0
C  C25  1  0.45298482  0.02062440  0.37504226  1  0  -0.020004  -0.214353  0  4.027459  0
C  C26  1  0.96051556  0.51523266  0.13167081  1  0  0.097154  0.160077  0  4.085349  0
C  C27  1  0.53947888  0.86832819  0.48476570  1  0  0.097088  0.160087  0  4.085347  0
C  C28  1  0.03948623  0.48476733  0.86832882  1  0  0.097176  0.160161  0  4.085348  0
C  C29  1  0.46051766  0.13167176  0.51523538  1  0  0.097179  0.160173  0  4.085333  0
C  C30  1  0.00698055  0.63779520  0.11155634  1  0  0.09967  0.163462  0  4.079148  0
C  C31  1  0.49301385  0.88844796  0.36220593  1  0  0.099615  0.163417  0  4.079226  0
C  C32  1  0.99302018  0.36220587  0.88844463  1  0  0.099618  0.163361  0  4.079247  0
C  C33  1  0.50698426  0.11155309  0.63779576  1  0  0.099517  0.163254  0  4.079453  0
C  C34  1  0.91884435  0.19322060  0.40223744  1  0  -0.14613  -0.106041  0  3.950645  0
C  C35  1  0.58115383  0.59776385  0.80678146  1  0  -0.146127  -0.106069  0  3.950699  0
C  C36  1  0.08115719  0.80677830  0.59776168  1  0  -0.146115  -0.106044  0  3.950649  0
C  C37  1  0.41884640  0.40223504  0.19321947  1  0  -0.146129  -0.105981  0  3.950562  0
O  O38  1  0.75888546  0.22314259  0.08265020  1  0  -0.317733  -0.577071  0  2.239229  0
O  O39  1  0.74110877  0.91734838  0.77685457  1  0  -0.317725  -0.577077  0  2.239542  0
O  O40  1  0.24111370  0.77685739  0.91734919  1  0  -0.317774  -0.57711  0  2.239195  0
O  O41  1  0.25889170  0.08265161  0.22314398  1  0  -0.317741  -0.577126  0  2.239608  0
O  O42  1  0.01225245  0.15515814  0.01934815  1  0  -0.363608  -0.625752  0  2.282278  0
O  O43  1  0.48774604  0.98065007  0.84484749  1  0  -0.363668  -0.625922  0  2.281917  0
O  O44  1  0.98774671  0.84484183  0.98065124  1  0  -0.363596  -0.625752  0  2.2822  0
O  O45  1  0.51225468  0.01935101  0.15515349  1  0  -0.363645  -0.625923  0  2.281875  0
O  O46  1  0.92791578  0.06522362  0.27298857  1  0  -0.459603  -0.518093  0  2.393812  0
O  O47  1  0.57208096  0.72701076  0.93477670  1  0  -0.459621  -0.51808  0  2.393854  0
O  O48  1  0.07208339  0.93477636  0.72701082  1  0  -0.45962  -0.518099  0  2.393821  0
O  O49  1  0.42791952  0.27298922  0.06522281  1  0  -0.459617  -0.51808  0  2.393845  0
F  F50  1  0.92735281  0.53396964  0.26329682  1  0  -0.082083  -0.106457  0  1.375078  0
F  F51  1  0.57263664  0.73670212  0.46602421  1  0  -0.082044  -0.106423  0  1.375037  0
F  F52  1  0.07264823  0.46602708  0.73670130  1  0  -0.082113  -0.106498  0  1.375061  0
F  F53  1  0.42735859  0.26329783  0.53397579  1  0  -0.082079  -0.106452  0  1.375071  0
F  F54  1  0.01767180  0.77141696  0.22452647  1  0  -0.072324  -0.104465  0  1.406895  0
F  F55  1  0.48231701  0.77547516  0.22858378  1  0  -0.072265  -0.10445  0  1.406905  0
F  F56  1  0.98233179  0.22858523  0.77547236  1  0  -0.072286  -0.10444  0  1.406904  0
F  F57  1  0.51768109  0.22452589  0.77141792  1  0  -0.072227  -0.104384  0  1.40704  0
