# generated using pymatgen
data_CdH6C6(N2O)2
_symmetry_space_group_name_H-M   'P 1'
_cell_length_a   12.66850431
_cell_length_b   12.66927962
_cell_length_c   12.57720000
_cell_angle_alpha   96.53911331
_cell_angle_beta   96.53951525
_cell_angle_gamma   96.59910839
_symmetry_Int_Tables_number   1
_chemical_formula_structural   CdH6C6(N2O)2
_chemical_formula_sum   'Cd6 H36 C36 N24 O12'
_cell_volume   1975.67301536
_cell_formula_units_Z   6
loop_
 _symmetry_equiv_pos_site_id
 _symmetry_equiv_pos_as_xyz
  1  'x, y, z'
loop_
 _atom_site_type_symbol
 _atom_site_label
 _atom_site_symmetry_multiplicity
 _atom_site_fract_x
 _atom_site_fract_y
 _atom_site_fract_z
 _atom_site_occupancy
 _atom_site_hle17_bader_spin_density
 _atom_site_hle17_ddec_charge
 _atom_site_hle17_ddec_spin_density
 _atom_site_hle17_ddec_sum_bond_order
 _atom_site_hle17_magmom
 _atom_site_hse06_10hf_bader_spin_density
 _atom_site_hse06_10hf_ddec_charge
 _atom_site_hse06_10hf_ddec_spin_density
 _atom_site_hse06_10hf_ddec_sum_bond_order
 _atom_site_hse06_10hf_magmom
 _atom_site_hse06_bader_spin_density
 _atom_site_hse06_ddec_charge
 _atom_site_hse06_ddec_spin_density
 _atom_site_hse06_ddec_sum_bond_order
 _atom_site_hse06_magmom
 _atom_site_pbe_bader_charge
 _atom_site_pbe_bader_spin_density
 _atom_site_pbe_cm5_charge
 _atom_site_pbe_ddec_charge
 _atom_site_pbe_ddec_spin_density
 _atom_site_pbe_ddec_sum_bond_order
 _atom_site_pbe_magmom
Cd  Cd0  1  0.96269980  0.67186904  0.23223924  1  0  1.0943  0  1.77688  0  0  0.89188  0  2.230839  0  0  0.945175  0  2.181546  0  1.210298  0  0.791892  0.854265  0  2.264559  0
Cd  Cd1  1  0.23206617  0.96278664  0.67277843  1  0  1.093817  0  1.779776  0  0  0.8916  0  2.233803  0  0  0.944922  0  2.184471  0  1.210479  0  0.792427  0.854068  0  2.267526  0
Cd  Cd2  1  0.67104569  0.23353483  0.96275762  1  0  1.094068  0  1.787864  0  0  0.892335  0  2.243489  0  0  0.945328  0  2.194125  0  1.210029  0  0.792527  0.854933  0  2.277255  0
Cd  Cd3  1  0.03729905  0.32813010  0.76775989  1  0  1.094281  0  1.776888  0  0  0.891853  0  2.230843  0  0  0.945212  0  2.181529  0  1.210324  0  0.791915  0.854239  0  2.264561  0
Cd  Cd4  1  0.76793458  0.03721491  0.32722358  1  0  1.093788  0  1.779799  0  0  0.891553  0  2.233842  0  0  0.944879  0  2.18451  0  1.210524  0  0.792392  0.85402  0  2.267567  0
Cd  Cd5  1  0.32895247  0.76646512  0.03724312  1  0  1.094079  0  1.787823  0  0  0.892332  0  2.243431  0  0  0.945325  0  2.194079  0  1.21002  0  0.792522  0.854933  0  2.277205  0
H  H6  1  0.90630342  0.51136347  0.91734759  1  0  0.127553  0  0.947261  0  0  0.144964  0  1.011587  0  0  0.146337  0  1.01219  0  0.061361  0  0.095797  0.144048  0  1.011082  0
H  H7  1  0.91892902  0.90709287  0.51161523  1  0  0.126647  0  0.948004  0  0  0.144115  0  1.012492  0  0  0.145457  0  1.013153  0  0.07379  0  0.095389  0.143221  0  1.011956  0
H  H8  1  0.51054847  0.91951601  0.90746043  1  0  0.125646  0  0.948507  0  0  0.143764  0  1.012421  0  0  0.145132  0  1.013028  0  0.075592  0  0.095127  0.142858  0  1.01191  0
H  H9  1  0.09369664  0.48863888  0.08265125  1  0  0.127553  0  0.947289  0  0  0.144976  0  1.011599  0  0  0.146349  0  1.012203  0  0.061365  0  0.095802  0.14406  0  1.011094  0
H  H10  1  0.08107333  0.09290867  0.48838617  1  0  0.126651  0  0.948043  0  0  0.144125  0  1.012523  0  0  0.145466  0  1.013184  0  0.073823  0  0.095378  0.14323  0  1.011988  0
H  H11  1  0.48945397  0.08048634  0.09253789  1  0  0.125709  0  0.948447  0  0  0.143837  0  1.012342  0  0  0.145206  0  1.01295  0  0.075534  0  0.095179  0.142931  0  1.011831  0
H  H12  1  0.76436752  0.49500067  0.90925177  1  0  0.132517  0  0.926448  0  0  0.154696  0  0.979892  0  0  0.156709  0  0.979121  0  0.053164  0  0.10303  0.153238  0  0.980508  0
H  H13  1  0.91081152  0.76514869  0.49534942  1  0  0.132164  0  0.927356  0  0  0.154571  0  0.980657  0  0  0.156559  0  0.979924  0  0.073985  0  0.103238  0.153149  0  0.981209  0
H  H14  1  0.49426193  0.91169596  0.76447623  1  0  0.132294  0  0.928011  0  0  0.154522  0  0.981689  0  0  0.156529  0  0.980922  0  0.077287  0  0.103124  0.153097  0  0.982243  0
H  H15  1  0.23562895  0.50499847  0.09074391  1  0  0.13255  0  0.926494  0  0  0.154724  0  0.979959  0  0  0.156748  0  0.979153  0  0.053233  0  0.103059  0.153279  0  0.98054  0
H  H16  1  0.08918833  0.23485206  0.50465240  1  0  0.1322  0  0.92736  0  0  0.154614  0  0.980639  0  0  0.156616  0  0.979867  0  0.073947  0  0.103268  0.153198  0  0.981184  0
H  H17  1  0.50573872  0.08830478  0.23552330  1  0  0.1323  0  0.928024  0  0  0.154554  0  0.981677  0  0  0.156561  0  0.980909  0  0.077284  0  0.103132  0.153128  0  0.982232  0
H  H18  1  0.84171300  0.60942568  0.98868246  1  0  0.132296  0  0.937081  0  0  0.152777  0  0.994164  0  0  0.155056  0  0.992958  0  0.088645  0  0.101446  0.15117  0  0.994998  0
H  H19  1  0.98975984  0.84247977  0.61059679  1  0  0.131937  0  0.936357  0  0  0.152807  0  0.993193  0  0  0.155116  0  0.991942  0  0.083857  0  0.101447  0.151196  0  0.994035  0
H  H20  1  0.60871451  0.99059026  0.84237036  1  0  0.132502  0  0.935879  0  0  0.153481  0  0.992549  0  0  0.155749  0  0.991352  0  0.047738  0  0.101619  0.151868  0  0.99338  0
H  H21  1  0.15828643  0.39057186  0.01131655  1  0  0.132295  0  0.937008  0  0  0.152764  0  0.994121  0  0  0.155043  0  0.992908  0  0.08864  0  0.101449  0.151159  0  0.994945  0
H  H22  1  0.01024160  0.15752097  0.38940362  1  0  0.131953  0  0.936345  0  0  0.152807  0  0.9932  0  0  0.155119  0  0.991939  0  0.083917  0  0.101442  0.151197  0  0.994041  0
H  H23  1  0.39128625  0.00941129  0.15762927  1  0  0.132534  0  0.935862  0  0  0.153514  0  0.992537  0  0  0.155782  0  0.99134  0  0.047303  0  0.101635  0.151901  0  0.993367  0
H  H24  1  0.95522277  0.40343727  0.48534326  1  0  0.352979  0  0.891609  0  0  0.329225  0  0.965631  0  0  0.340153  0  0.955561  0  0.517239  0  0.29853  0.322508  0  0.971803  0
H  H25  1  0.48328881  0.95406601  0.40292830  1  0  0.350033  0  0.897569  0  0  0.328459  0  0.962931  0  0  0.338026  0  0.955073  0  0.524792  0  0.299793  0.321993  0  0.968603  0
H  H26  1  0.40305823  0.48387394  0.95449243  1  0  0.353824  0  0.887685  0  0  0.328139  0  0.964637  0  0  0.339471  0  0.952751  0  0.528229  0  0.299411  0.321651  0  0.970348  0
H  H27  1  0.04477888  0.59656508  0.51465974  1  0  0.353004  0  0.891707  0  0  0.329183  0  0.965805  0  0  0.338734  0  0.956938  0  0.517255  0  0.298496  0.322467  0  0.971976  0
H  H28  1  0.51671094  0.04593394  0.59707024  1  0  0.350064  0  0.897534  0  0  0.328487  0  0.962894  0  0  0.338053  0  0.955035  0  0.524809  0  0.299814  0.32202  0  0.968567  0
H  H29  1  0.59694072  0.51612601  0.04550760  1  0  0.353802  0  0.887709  0  0  0.33002  0  0.961519  0  0  0.339455  0  0.952772  0  0.528215  0  0.2994  0.321636  0  0.970368  0
H  H30  1  0.88809263  0.30705204  0.37367776  1  0  0.345422  0  0.934162  0  0  0.319395  0  1.004834  0  0  0.328869  0  0.997599  0  0.526108  0  0.293975  0.312988  0  1.009956  0
H  H31  1  0.37225960  0.88711411  0.30597028  1  0  0.342566  0  0.936  0  0  0.319035  0  1.006497  0  0  0.328101  0  0.999232  0  0.556735  0  0.293698  0.312664  0  1.01157  0
H  H32  1  0.30658451  0.37268672  0.88749561  1  0  0.3431  0  0.935797  0  0  0.319319  0  1.00585  0  0  0.328395  0  0.998596  0  0.521571  0  0.293863  0.312938  0  1.010939  0
H  H33  1  0.11190670  0.69294470  0.62632274  1  0  0.345496  0  0.934068  0  0  0.319466  0  1.00477  0  0  0.328844  0  0.997732  0  0.526104  0  0.293967  0.313081  0  1.009857  0
H  H34  1  0.62774115  0.11288744  0.69403174  1  0  0.342636  0  0.935887  0  0  0.319077  0  1.006417  0  0  0.328142  0  0.999156  0  0.556696  0  0.293693  0.312707  0  1.011491  0
H  H35  1  0.69341465  0.62731483  0.11250383  1  0  0.343118  0  0.935778  0  0  0.319341  0  1.00583  0  0  0.328413  0  0.998579  0  0.521608  0  0.293864  0.312955  0  1.010924  0
H  H36  1  0.71304828  0.08590990  0.12431810  1  0  0.292008  0  0.961814  0  0  0.280656  0  1.026078  0  0  0.287715  0  1.021466  0  0.412269  0  0.272621  0.275737  0  1.029322  0
H  H37  1  0.12443055  0.71204211  0.08385566  1  0  0.291006  0  0.965382  0  0  0.279922  0  1.028649  0  0  0.286999  0  1.024112  0  0.43659  0  0.272329  0.274994  0  1.03183  0
H  H38  1  0.08503095  0.12446847  0.71320444  1  0  0.291797  0  0.96329  0  0  0.280416  0  1.027282  0  0  0.287472  0  1.022715  0  0.446381  0  0.272468  0.275504  0  1.030483  0
H  H39  1  0.28695247  0.91409165  0.87568311  1  0  0.292006  0  0.961799  0  0  0.280657  0  1.026062  0  0  0.287715  0  1.02145  0  0.412583  0  0.272615  0.275737  0  1.029307  0
H  H40  1  0.87556931  0.28795864  0.91614377  1  0  0.291069  0  0.965367  0  0  0.279951  0  1.028671  0  0  0.287029  0  1.024132  0  0.436587  0  0.272335  0.275024  0  1.031851  0
H  H41  1  0.91496949  0.87553067  0.28679567  1  0  0.29181  0  0.9633  0  0  0.280434  0  1.027285  0  0  0.28749  0  1.022713  0  0.446385  0  0.272466  0.275522  0  1.030486  0
C  C42  1  0.84461499  0.46406744  0.05933847  1  0  0.441737  0  3.739026  0  0  0.421805  0  4.008514  0  0  0.437274  0  4.024854  0  1.022301  0  0.21021  0.411608  0  3.997054  0
C  C43  1  0.05977403  0.84532896  0.46408731  1  0  0.44041  0  3.740265  0  0  0.420929  0  4.009453  0  0  0.436441  0  4.025723  0  1.026451  0  0.210291  0.410699  0  3.998008  0
C  C44  1  0.46322114  0.06043707  0.84546974  1  0  0.440085  0  3.744048  0  0  0.420211  0  4.014045  0  0  0.435638  0  4.03048  0  0.990475  0  0.210118  0.410068  0  4.00244  0
C  C45  1  0.15538635  0.53593251  0.94066025  1  0  0.441635  0  3.739123  0  0  0.421723  0  4.008607  0  0  0.437207  0  4.024898  0  1.022298  0  0.210212  0.411539  0  3.997098  0
C  C46  1  0.94022572  0.15467099  0.53591281  1  0  0.440366  0  3.740271  0  0  0.420858  0  4.0095  0  0  0.436358  0  4.025762  0  1.026476  0  0.210258  0.410636  0  3.998047  0
C  C47  1  0.53677940  0.93956288  0.15452968  1  0  0.440176  0  3.743926  0  0  0.420232  0  4.014037  0  0  0.43566  0  4.030471  0  0.990541  0  0.210146  0.410088  0  4.002433  0
C  C48  1  0.92937799  0.45757023  0.33886186  1  0  0.596641  0  3.887023  0  0  0.551408  0  4.169885  0  0  0.581961  0  4.168508  0  1.400756  0  0.235852  0.530903  0  4.170016  0
C  C49  1  0.33780199  0.92925260  0.45744373  1  0  0.598455  0  3.887048  0  0  0.551646  0  4.173026  0  0  0.582304  0  4.171561  0  1.398754  0  0.235625  0.531124  0  4.173147  0
C  C50  1  0.45708516  0.33846201  0.92920859  1  0  0.5961  0  3.886646  0  0  0.550616  0  4.170531  0  0  0.58107  0  4.169508  0  1.399387  0  0.235446  0.530112  0  4.170607  0
C  C51  1  0.07061533  0.54241689  0.66113765  1  0  0.596678  0  3.886869  0  0  0.551252  0  4.170025  0  0  0.581885  0  4.168572  0  1.400638  0  0.235759  0.530748  0  4.170157  0
C  C52  1  0.66219786  0.07074815  0.54256286  1  0  0.598424  0  3.886995  0  0  0.551666  0  4.172916  0  0  0.582323  0  4.171453  0  1.398754  0  0.235659  0.531144  0  4.173036  0
C  C53  1  0.54290982  0.66153793  0.07078860  1  0  0.596126  0  3.886711  0  0  0.550601  0  4.170784  0  0  0.581078  0  4.169593  0  1.399267  0  0.23546  0.530116  0  4.170692  0
C  C54  1  0.88535068  0.42740218  0.22394925  1  0  -0.00922  0  3.769431  0  0  -0.016104  0  4.025025  0  0  -0.018397  0  4.047932  0  0.399382  0  0.067839  -0.014711  0  4.009489  0
C  C55  1  0.22340620  0.88550122  0.42701215  1  0  -0.010391  0  3.766071  0  0  -0.015923  0  4.020408  0  0  -0.018279  0  4.043511  0  0.382206  0  0.068702  -0.014493  0  4.004758  0
C  C56  1  0.42674432  0.22409469  0.88552444  1  0  -0.007353  0  3.765991  0  0  -0.015588  0  4.023115  0  0  -0.017982  0  4.04616  0  0.421896  0  0.068247  -0.014179  0  4.007603  0
C  C57  1  0.11464659  0.57259697  0.77604970  1  0  -0.009292  0  3.769211  0  0  -0.016155  0  4.024888  0  0  -0.018479  0  4.04785  0  0.399476  0  0.067864  -0.014758  0  4.00935  0
C  C58  1  0.77659514  0.11449872  0.57298895  1  0  -0.010351  0  3.76617  0  0  -0.015887  0  4.020507  0  0  -0.018243  0  4.04361  0  0.382309  0  0.068733  -0.014459  0  4.004857  0
C  C59  1  0.57325464  0.77590525  0.11447560  1  0  -0.007349  0  3.766008  0  0  -0.015572  0  4.023089  0  0  -0.017971  0  4.046165  0  0.421956  0  0.068253  -0.014158  0  4.007596  0
C  C60  1  0.82928235  0.33509122  0.16095025  1  0  0.028205  0  3.735486  0  0  0.019194  0  3.989977  0  0  0.01847  0  4.012283  0  0.406077  0  0.071878  0.01964  0  3.974854  0
C  C61  1  0.16061129  0.82907754  0.33434064  1  0  0.028705  0  3.738912  0  0  0.019807  0  3.992689  0  0  0.019027  0  4.015212  0  0.428667  0  0.071734  0.0203  0  3.977435  0
C  C62  1  0.33423042  0.16116819  0.82990166  1  0  0.027421  0  3.738561  0  0  0.020266  0  3.991696  0  0  0.019546  0  4.014101  0  0.405033  0  0.072063  0.020717  0  3.976528  0
C  C63  1  0.17071820  0.66490872  0.83904837  1  0  0.028334  0  3.735386  0  0  0.019348  0  3.989847  0  0  0.018636  0  4.012156  0  0.406076  0  0.071935  0.019784  0  3.974732  0
C  C64  1  0.83938995  0.17092161  0.66566036  1  0  0.028758  0  3.73883  0  0  0.019816  0  3.992672  0  0  0.01904  0  4.015187  0  0.428849  0  0.071731  0.020309  0  3.977419  0
C  C65  1  0.66576923  0.83883095  0.17009757  1  0  0.027411  0  3.738619  0  0  0.020266  0  3.991719  0  0  0.019545  0  4.014139  0  0.405042  0  0.072049  0.020713  0  3.976563  0
C  C66  1  0.79443138  0.22522764  0.18388830  1  0  0.570989  0  3.952615  0  0  0.5268  0  4.231833  0  0  0.556785  0  4.2339  0  1.372045  0  0.20822  0.506628  0  4.229628  0
C  C67  1  0.18343820  0.79363175  0.22400794  1  0  0.571852  0  3.95153  0  0  0.527671  0  4.231288  0  0  0.557565  0  4.233344  0  1.377814  0  0.208898  0.507464  0  4.229138  0
C  C68  1  0.22445547  0.18398012  0.79465137  1  0  0.570374  0  3.951141  0  0  0.5259  0  4.230975  0  0  0.555813  0  4.233064  0  1.367506  0  0.208369  0.505692  0  4.228793  0
C  C69  1  0.20557017  0.77477391  0.81611301  1  0  0.570942  0  3.952657  0  0  0.526774  0  4.231847  0  0  0.556748  0  4.233914  0  1.372091  0  0.208197  0.506605  0  4.229643  0
C  C70  1  0.81656224  0.20636739  0.77599297  1  0  0.571888  0  3.951512  0  0  0.527738  0  4.231243  0  0  0.557631  0  4.233302  0  1.377857  0  0.208936  0.507531  0  4.229095  0
C  C71  1  0.77554528  0.81602143  0.20534905  1  0  0.570337  0  3.95116  0  0  0.525863  0  4.23099  0  0  0.555775  0  4.233079  0  1.367511  0  0.208361  0.505652  0  4.228814  0
C  C72  1  0.83883156  0.52321212  0.96349833  1  0  -0.393232  0  3.699195  0  0  -0.469954  0  3.933727  0  0  -0.473963  0  3.940059  0  -0.072732  0  -0.233428  -0.467082  0  3.929246  0
C  C73  1  0.96469020  0.83964180  0.52375195  1  0  -0.390607  0  3.698919  0  0  -0.468145  0  3.933392  0  0  -0.472104  0  3.939765  0  -0.093639  0  -0.232943  -0.465296  0  3.928838  0
C  C74  1  0.52249849  0.96543151  0.83956043  1  0  -0.38996  0  3.701006  0  0  -0.468031  0  3.935795  0  0  -0.47201  0  3.942239  0  -0.053036  0  -0.232716  -0.465153  0  3.931158  0
C  C75  1  0.16116650  0.47678703  0.03649912  1  0  -0.393257  0  3.699241  0  0  -0.470027  0  3.933847  0  0  -0.47402  0  3.940125  0  -0.072766  0  -0.233487  -0.467141  0  3.929313  0
C  C76  1  0.03531125  0.16035894  0.47624926  1  0  -0.39064  0  3.698974  0  0  -0.468168  0  3.933443  0  0  -0.47209  0  3.939771  0  -0.093702  0  -0.232933  -0.465327  0  3.928883  0
C  C77  1  0.47750306  0.03457004  0.16043849  1  0  -0.390105  0  3.700972  0  0  -0.468189  0  3.935804  0  0  -0.47217  0  3.942245  0  -0.052599  0  -0.232798  -0.465311  0  3.931168  0
N  N78  1  0.80413401  0.36054402  0.05805209  1  0  -0.493026  0  3.173117  0  0  -0.41674  0  3.433447  0  0  -0.439547  0  3.449703  0  -1.229373  0  -0.363037  -0.40107  0  3.421996  0
N  N79  1  0.05839031  0.80432982  0.36000295  1  0  -0.49378  0  3.174401  0  0  -0.417522  0  3.434809  0  0  -0.440425  0  3.451141  0  -1.229752  0  -0.363616  -0.401774  0  3.423256  0
N  N80  1  0.35948671  0.05883701  0.80530768  1  0  -0.493208  0  3.175275  0  0  -0.417111  0  3.435272  0  0  -0.440013  0  3.451614  0  -1.201833  0  -0.363467  -0.40136  0  3.423683  0
N  N81  1  0.19586744  0.63945673  0.94194593  1  0  -0.493022  0  3.17313  0  0  -0.416759  0  3.433484  0  0  -0.439561  0  3.449697  0  -1.229378  0  -0.363067  -0.401077  0  3.421994  0
N  N82  1  0.94161172  0.19566932  0.63999893  1  0  -0.493833  0  3.174422  0  0  -0.41756  0  3.43487  0  0  -0.440428  0  3.45114  0  -1.229816  0  -0.363635  -0.401814  0  3.423314  0
N  N83  1  0.64051542  0.94116294  0.19469272  1  0  -0.493237  0  3.175227  0  0  -0.417124  0  3.435258  0  0  -0.440026  0  3.4516  0  -1.201845  0  -0.363476  -0.401373  0  3.423671  0
N  N84  1  0.89408178  0.50645672  0.15781345  1  0  -0.486298  0  3.24941  0  0  -0.411632  0  3.521159  0  0  -0.434691  0  3.537994  0  -1.220252  0  -0.372899  -0.395861  0  3.509462  0
N  N85  1  0.15765349  0.89485883  0.50649990  1  0  -0.485314  0  3.250149  0  0  -0.411435  0  3.521975  0  0  -0.434416  0  3.538725  0  -1.233695  0  -0.374259  -0.395699  0  3.510298  0
N  N86  1  0.50580171  0.15851290  0.89437716  1  0  -0.487993  0  3.249468  0  0  -0.413227  0  3.522161  0  0  -0.436157  0  3.538906  0  -1.247637  0  -0.374125  -0.397538  0  3.510522  0
N  N87  1  0.10592014  0.49354163  0.84218594  1  0  -0.486275  0  3.24941  0  0  -0.411599  0  3.521149  0  0  -0.434643  0  3.537946  0  -1.220302  0  -0.372907  -0.395823  0  3.509434  0
N  N88  1  0.84234615  0.10514031  0.49350250  1  0  -0.485281  0  3.250288  0  0  -0.411389  0  3.522118  0  0  -0.434356  0  3.538867  0  -1.23401  0  -0.374242  -0.395656  0  3.510439  0
N  N89  1  0.49419746  0.84148865  0.10562387  1  0  -0.487994  0  3.249425  0  0  -0.413211  0  3.52215  0  0  -0.436139  0  3.538884  0  -1.247647  0  -0.374153  -0.397523  0  3.510494  0
N  N90  1  0.92303690  0.38350738  0.40564807  1  0  -0.667838  0  3.084997  0  0  -0.622339  0  3.312472  0  0  -0.647813  0  3.304305  0  -1.347662  0  -0.558157  -0.606242  0  3.316817  0
N  N91  1  0.40410329  0.92248538  0.38282661  1  0  -0.666124  0  3.093316  0  0  -0.622631  0  3.318897  0  0  -0.646601  0  3.312636  0  -1.377895  0  -0.558274  -0.606694  0  3.322977  0
N  N92  1  0.38300067  0.40466877  0.92269951  1  0  -0.666198  0  3.085974  0  0  -0.620848  0  3.316506  0  0  -0.645763  0  3.307281  0  -1.351689  0  -0.55763  -0.604906  0  3.320672  0
N  N93  1  0.07696236  0.61649497  0.59434989  1  0  -0.668048  0  3.084729  0  0  -0.622421  0  3.312316  0  0  -0.646416  0  3.305631  0  -1.347585  0  -0.558172  -0.606336  0  3.316628  0
N  N94  1  0.59589825  0.07751617  0.61717311  1  0  -0.66618  0  3.093383  0  0  -0.622668  0  3.318982  0  0  -0.646635  0  3.31272  0  -1.377947  0  -0.558287  -0.606733  0  3.323064  0
N  N95  1  0.61699829  0.59533118  0.07730132  1  0  -0.666186  0  3.085902  0  0  -0.622241  0  3.313888  0  0  -0.645763  0  3.307216  0  -1.351612  0  -0.55762  -0.604902  0  3.320606  0
N  N96  1  0.73409978  0.16106804  0.10497762  1  0  -0.784256  0  2.987045  0  0  -0.723438  0  3.260208  0  0  -0.75261  0  3.255495  0  -1.261631  0  -0.571438  -0.703316  0  3.262819  0
N  N97  1  0.10489013  0.73368824  0.15928645  1  0  -0.782961  0  2.985286  0  0  -0.722116  0  3.257733  0  0  -0.751414  0  3.253156  0  -1.298276  0  -0.570595  -0.701923  0  3.260276  0
N  N98  1  0.15997592  0.10511307  0.73497832  1  0  -0.782936  0  2.985018  0  0  -0.721924  0  3.257935  0  0  -0.751173  0  3.253348  0  -1.299981  0  -0.57025  -0.701763  0  3.260481  0
N  N99  1  0.26590008  0.83893271  0.89502340  1  0  -0.784264  0  2.987065  0  0  -0.723453  0  3.260225  0  0  -0.752625  0  3.255515  0  -1.262031  0  -0.571426  -0.70333  0  3.262835  0
N  N100  1  0.89511052  0.26631251  0.84071467  1  0  -0.783023  0  2.985245  0  0  -0.722147  0  3.257704  0  0  -0.751452  0  3.253133  0  -1.298309  0  -0.570606  -0.701954  0  3.260246  0
N  N101  1  0.84002372  0.89488608  0.26502249  1  0  -0.78294  0  2.985064  0  0  -0.721928  0  3.257959  0  0  -0.751173  0  3.253364  0  -1.300008  0  -0.570253  -0.701769  0  3.260508  0
O  O102  1  0.97155125  0.55393142  0.37099357  1  0  -0.627005  0  1.965979  0  0  -0.560286  0  2.197797  0  0  -0.585716  0  2.185552  0  -1.165776  0  -0.319616  -0.542421  0  2.20539  0
O  O103  1  0.37004913  0.97161864  0.55428338  1  0  -0.625589  0  1.96028  0  0  -0.560087  0  2.191614  0  0  -0.585596  0  2.179762  0  -1.167844  0  -0.320695  -0.542383  0  2.199145  0
O  O104  1  0.55344016  0.37078859  0.97139535  1  0  -0.626476  0  1.962818  0  0  -0.559867  0  2.195019  0  0  -0.585337  0  2.182913  0  -1.165608  0  -0.319911  -0.541549  0  2.202352  0
O  O105  1  0.02844950  0.44607012  0.62900527  1  0  -0.626815  0  1.966224  0  0  -0.560036  0  2.198121  0  0  -0.586031  0  2.186419  0  -1.165817  0  -0.319519  -0.542176  0  2.205715  0
O  O106  1  0.62995052  0.02838050  0.44571505  1  0  -0.625581  0  1.960043  0  0  -0.560108  0  2.191372  0  0  -0.585621  0  2.179523  0  -1.16776  0  -0.320699  -0.542402  0  2.198903  0
O  O107  1  0.44656059  0.62921295  0.02860190  1  0  -0.626551  0  1.963002  0  0  -0.559319  0  2.194883  0  0  -0.585369  0  2.183071  0  -1.165626  0  -0.319918  -0.541586  0  2.202514  0
O  O108  1  0.82543363  0.19949762  0.27828584  1  0  -0.654337  0  2.056466  0  0  -0.572699  0  2.299143  0  0  -0.601941  0  2.287858  0  -1.171725  0  -0.333318  -0.552597  0  2.306347  0
O  O109  1  0.27764904  0.82385109  0.19869208  1  0  -0.653049  0  2.059106  0  0  -0.573049  0  2.304209  0  0  -0.601926  0  2.292574  0  -1.173399  0  -0.333863  -0.552987  0  2.311571  0
O  O110  1  0.19925665  0.27823807  0.82454183  1  0  -0.652305  0  2.055396  0  0  -0.572109  0  2.299608  0  0  -0.601093  0  2.288083  0  -1.171462  0  -0.333  -0.552011  0  2.306899  0
O  O111  1  0.17456791  0.80050393  0.72171626  1  0  -0.654338  0  2.056544  0  0  -0.57274  0  2.299254  0  0  -0.601964  0  2.288027  0  -1.171699  0  -0.333312  -0.552646  0  2.306456  0
O  O112  1  0.72235072  0.17614886  0.80130884  1  0  -0.653117  0  2.059135  0  0  -0.573128  0  2.304238  0  0  -0.602005  0  2.292605  0  -1.173379  0  -0.3339  -0.553067  0  2.311603  0
O  O113  1  0.80074389  0.72176187  0.17545839  1  0  -0.652289  0  2.055368  0  0  -0.572097  0  2.299545  0  0  -0.601084  0  2.288065  0  -1.171448  0  -0.332969  -0.551996  0  2.30687  0
