# generated using pymatgen
data_SrH7C7NO6
_symmetry_space_group_name_H-M   'P 1'
_cell_length_a   6.61709111
_cell_length_b   6.85664434
_cell_length_c   19.82150144
_cell_angle_alpha   90.00010011
_cell_angle_beta   90.00006322
_cell_angle_gamma   92.04666369
_symmetry_Int_Tables_number   1
_chemical_formula_structural   SrH7C7NO6
_chemical_formula_sum   'Sr4 H28 C28 N4 O24'
_cell_volume   898.74843850
_cell_formula_units_Z   4
loop_
 _symmetry_equiv_pos_site_id
 _symmetry_equiv_pos_as_xyz
  1  'x, y, z'
loop_
 _atom_site_type_symbol
 _atom_site_label
 _atom_site_symmetry_multiplicity
 _atom_site_fract_x
 _atom_site_fract_y
 _atom_site_fract_z
 _atom_site_occupancy
 _atom_site_hle17_bader_spin_density
 _atom_site_hle17_ddec_charge
 _atom_site_hle17_ddec_spin_density
 _atom_site_hle17_ddec_sum_bond_order
 _atom_site_hle17_magmom
 _atom_site_hse06_10hf_bader_spin_density
 _atom_site_hse06_10hf_ddec_charge
 _atom_site_hse06_10hf_ddec_spin_density
 _atom_site_hse06_10hf_ddec_sum_bond_order
 _atom_site_hse06_10hf_magmom
 _atom_site_hse06_bader_spin_density
 _atom_site_hse06_ddec_charge
 _atom_site_hse06_ddec_spin_density
 _atom_site_hse06_ddec_sum_bond_order
 _atom_site_hse06_magmom
 _atom_site_pbe_bader_spin_density
 _atom_site_pbe_cm5_charge
 _atom_site_pbe_ddec_charge
 _atom_site_pbe_ddec_spin_density
 _atom_site_pbe_ddec_sum_bond_order
 _atom_site_pbe_magmom
Sr  Sr0  1  0.62644178  0.41716173  0.68907821  1  0  1.595299  0  1.111683  0  0  1.450546  0  1.477553  0  0  1.488341  0  1.433044  0  0  0.949819  1.422693  0  1.509269  0
Sr  Sr1  1  0.87355617  0.58283871  0.18907834  1  0  1.595318  0  1.111669  0  0  1.450584  0  1.477523  0  0  1.488383  0  1.433009  0  0  0.949824  1.422731  0  1.509237  0
Sr  Sr2  1  0.37355841  0.58283841  0.31092220  1  0  1.595318  0  1.111643  0  0  1.450574  0  1.477517  0  0  1.48837  0  1.433006  0  0  0.949824  1.422721  0  1.509229  0
Sr  Sr3  1  0.12644105  0.41716288  0.81092157  1  0  1.595321  0  1.111644  0  0  1.450577  0  1.477507  0  0  1.488373  0  1.432997  0  0  0.949834  1.422726  0  1.509221  0
H  H4  1  0.25831377  0.72938259  0.69955575  1  0  0.433329  0  0.865959  0  0  0.402711  0  0.928731  0  0  0.413208  0  0.91336  0  0  0.308115  0.395262  0  0.939644  0
H  H5  1  0.24168686  0.27061958  0.19955514  1  0  0.433327  0  0.865958  0  0  0.402712  0  0.928728  0  0  0.413209  0  0.913357  0  0  0.30811  0.395262  0  0.939644  0
H  H6  1  0.74168647  0.27061900  0.30044416  1  0  0.433312  0  0.865983  0  0  0.40269  0  0.928763  0  0  0.413187  0  0.913393  0  0  0.308111  0.395241  0  0.939677  0
H  H7  1  0.75831338  0.72938201  0.80044426  1  0  0.433334  0  0.865951  0  0  0.402721  0  0.928713  0  0  0.413218  0  0.913343  0  0  0.308122  0.395273  0  0.939626  0
H  H8  1  0.41102435  0.74791458  0.76190323  1  0  0.403001  0  0.919657  0  0  0.370423  0  0.988095  0  0  0.382021  0  0.970936  0  0  0.301089  0.362185  0  1.000282  0
H  H9  1  0.08897645  0.25208646  0.26190255  1  0  0.402995  0  0.919651  0  0  0.370412  0  0.988098  0  0  0.382011  0  0.970938  0  0  0.301085  0.362175  0  1.000285  0
H  H10  1  0.58897589  0.25208702  0.23809668  1  0  0.403007  0  0.919652  0  0  0.370424  0  0.988099  0  0  0.382024  0  0.970936  0  0  0.3011  0.362186  0  1.000287  0
H  H11  1  0.91102530  0.74791514  0.73809736  1  0  0.402962  0  0.919695  0  0  0.370383  0  0.988136  0  0  0.38198  0  0.970979  0  0  0.301071  0.362146  0  1.000323  0
H  H12  1  0.65107280  0.94687356  0.68250269  1  0  0.423189  0  0.87821  0  0  0.392798  0  0.941758  0  0  0.403144  0  0.926434  0  0  0.299661  0.385414  0  0.952706  0
H  H13  1  0.84892971  0.05312831  0.18250249  1  0  0.423176  0  0.878223  0  0  0.392786  0  0.94177  0  0  0.403133  0  0.926445  0  0  0.299654  0.385403  0  0.952716  0
H  H14  1  0.34893047  0.05312804  0.31749772  1  0  0.42319  0  0.878203  0  0  0.392802  0  0.941748  0  0  0.403149  0  0.926424  0  0  0.299659  0.385418  0  0.952694  0
H  H15  1  0.15107204  0.94687328  0.81749742  1  0  0.423182  0  0.87822  0  0  0.392795  0  0.941763  0  0  0.403141  0  0.926439  0  0  0.299662  0.385412  0  0.952709  0
H  H16  1  0.58015531  0.00674059  0.75574205  1  0  0.430691  0  0.868353  0  0  0.401111  0  0.929837  0  0  0.411073  0  0.914983  0  0  0.307305  0.394058  0  0.94036  0
H  H17  1  0.91984595  0.99326165  0.25574144  1  0  0.430663  0  0.868391  0  0  0.401115  0  0.929805  0  0  0.411072  0  0.914964  0  0  0.307319  0.394063  0  0.940327  0
H  H18  1  0.41984645  0.99326100  0.24425836  1  0  0.430663  0  0.868386  0  0  0.401117  0  0.929799  0  0  0.411073  0  0.914958  0  0  0.307319  0.394064  0  0.940322  0
H  H19  1  0.08015580  0.00673995  0.74425797  1  0  0.430707  0  0.868327  0  0  0.40112  0  0.929824  0  0  0.411084  0  0.914968  0  0  0.3073  0.394067  0  0.940347  0
H  H20  1  0.24878968  0.29310424  0.49935635  1  0  0.112784  0  0.967324  0  0  0.118019  0  1.037435  0  0  0.122328  0  1.03401  0  0  0.112842  0.11482  0  1.040157  0
H  H21  1  0.25120601  0.70690093  0.99935695  1  0  0.112824  0  0.967229  0  0  0.118049  0  1.037362  0  0  0.122356  0  1.033939  0  0  0.112854  0.11485  0  1.040083  0
H  H22  1  0.75121040  0.70689298  0.50064305  1  0  0.112794  0  0.967329  0  0  0.118036  0  1.037424  0  0  0.122344  0  1.034003  0  0  0.112843  0.114837  0  1.040146  0
H  H23  1  0.74878985  0.29310504  0.00064296  1  0  0.112805  0  0.967315  0  0  0.118038  0  1.037421  0  0  0.122346  0  1.033999  0  0  0.11285  0.114839  0  1.040144  0
H  H24  1  0.66505075  0.14609063  0.41318077  1  0  0.123948  0  0.934474  0  0  0.132486  0  0.995057  0  0  0.136952  0  0.991775  0  0  0.121146  0.129279  0  0.997492  0
H  H25  1  0.83494626  0.85390512  0.91318199  1  0  0.124003  0  0.934439  0  0  0.132536  0  0.995026  0  0  0.137001  0  0.991743  0  0  0.121173  0.129329  0  0.99746  0
H  H26  1  0.33494933  0.85390659  0.58681914  1  0  0.123943  0  0.934455  0  0  0.132479  0  0.995046  0  0  0.136944  0  0.991764  0  0  0.121144  0.129271  0  0.99748  0
H  H27  1  0.16505080  0.14609209  0.08681842  1  0  0.123976  0  0.934433  0  0  0.132514  0  0.995009  0  0  0.13698  0  0.991726  0  0  0.121171  0.129307  0  0.997445  0
H  H28  1  0.51648529  0.19891665  0.52854538  1  0  0.076027  0  0.966124  0  0  0.082863  0  1.033357  0  0  0.086121  0  1.030428  0  0  0.118535  0.080374  0  1.035772  0
H  H29  1  0.98351350  0.80108004  0.02854720  1  0  0.076042  0  0.966149  0  0  0.08287  0  1.033391  0  0  0.086127  0  1.030462  0  0  0.118534  0.080381  0  1.035805  0
H  H30  1  0.48351636  0.80108202  0.47145453  1  0  0.075994  0  0.966154  0  0  0.082837  0  1.033387  0  0  0.086095  0  1.030457  0  0  0.118519  0.080347  0  1.035801  0
H  H31  1  0.01648508  0.19891717  0.97145321  1  0  0.076025  0  0.96613  0  0  0.08286  0  1.033378  0  0  0.086116  0  1.030447  0  0  0.118521  0.080372  0  1.035793  0
C  C32  1  0.11585540  0.33262773  0.62967240  1  0  0.658744  0  3.909227  0  0  0.604747  0  4.210574  0  0  0.639138  0  4.201045  0  0  0.22881  0.581449  0  4.216254  0
C  C33  1  0.38414332  0.66736971  0.12967309  1  0  0.658781  0  3.909195  0  0  0.604774  0  4.210533  0  0  0.639182  0  4.201006  0  0  0.228808  0.581477  0  4.216219  0
C  C34  1  0.88414625  0.66737095  0.37032751  1  0  0.658772  0  3.909153  0  0  0.604738  0  4.210557  0  0  0.639129  0  4.20103  0  0  0.228833  0.581437  0  4.216237  0
C  C35  1  0.61585385  0.33263042  0.87032631  1  0  0.658763  0  3.909144  0  0  0.604805  0  4.210437  0  0  0.639195  0  4.200908  0  0  0.228834  0.581505  0  4.21612  0
C  C36  1  0.99238579  0.28749843  0.56651487  1  0  0.083194  0  3.74744  0  0  0.09207  0  3.993005  0  0  0.090949  0  4.012462  0  0  0.114837  0.092451  0  3.980172  0
C  C37  1  0.50761183  0.71250430  0.06651596  1  0  0.083241  0  3.747437  0  0  0.092198  0  3.992897  0  0  0.091012  0  4.01244  0  0  0.114847  0.092578  0  3.980071  0
C  C38  1  0.00761888  0.71250025  0.43348453  1  0  0.083271  0  3.74744  0  0  0.092146  0  3.993026  0  0  0.091019  0  4.012494  0  0  0.114845  0.092533  0  3.980184  0
C  C39  1  0.49238549  0.28750021  0.93348446  1  0  0.083281  0  3.747459  0  0  0.092144  0  3.992999  0  0  0.091019  0  4.012465  0  0  0.114847  0.092523  0  3.980176  0
C  C40  1  0.08655080  0.26761891  0.50403457  1  0  -0.108419  0  3.697049  0  0  -0.144536  0  3.948648  0  0  -0.147185  0  3.969782  0  0  -0.068843  -0.142594  0  3.934709  0
C  C41  1  0.41344617  0.73238372  0.00403531  1  0  -0.108445  0  3.697007  0  0  -0.144598  0  3.948614  0  0  -0.147226  0  3.969765  0  0  -0.068855  -0.142655  0  3.934677  0
C  C42  1  0.91345080  0.73237831  0.49596484  1  0  -0.108457  0  3.697003  0  0  -0.14457  0  3.948577  0  0  -0.147222  0  3.969714  0  0  -0.068815  -0.142631  0  3.934638  0
C  C43  1  0.58654964  0.26762079  0.99596460  1  0  -0.108521  0  3.697063  0  0  -0.144629  0  3.948636  0  0  -0.147277  0  3.969771  0  0  -0.068882  -0.142686  0  3.934701  0
C  C44  1  0.96990553  0.21944398  0.44744617  1  0  -0.026884  0  3.728078  0  0  -0.007667  0  3.968404  0  0  -0.012164  0  3.989601  0  0  -0.000511  -0.004777  0  3.954123  0
C  C45  1  0.53009151  0.78054903  0.94744672  1  0  -0.026847  0  3.72814  0  0  -0.007629  0  3.968439  0  0  -0.012125  0  3.989635  0  0  -0.000484  -0.004741  0  3.954161  0
C  C46  1  0.03009758  0.78055324  0.55255374  1  0  -0.026911  0  3.728111  0  0  -0.007681  0  3.968389  0  0  -0.012171  0  3.989586  0  0  -0.000548  -0.00479  0  3.954109  0
C  C47  1  0.46990399  0.21944673  0.05255318  1  0  -0.026908  0  3.728121  0  0  -0.007661  0  3.96841  0  0  -0.012158  0  3.98961  0  0  -0.000517  -0.004772  0  3.954133  0
C  C48  1  0.06853616  0.20289058  0.37932855  1  0  0.665298  0  3.878882  0  0  0.607366  0  4.180649  0  0  0.640536  0  4.173374  0  0  0.228757  0.584967  0  4.184743  0
C  C49  1  0.43146188  0.79710668  0.87932876  1  0  0.665239  0  3.879108  0  0  0.607347  0  4.180814  0  0  0.640517  0  4.173541  0  0  0.228763  0.584948  0  4.184911  0
C  C50  1  0.93146247  0.79710809  0.62067136  1  0  0.665245  0  3.878988  0  0  0.607329  0  4.180714  0  0  0.640496  0  4.173443  0  0  0.228733  0.584929  0  4.184809  0
C  C51  1  0.56853680  0.20289345  0.12067115  1  0  0.665331  0  3.879006  0  0  0.607349  0  4.180834  0  0  0.640519  0  4.173561  0  0  0.228762  0.58495  0  4.184932  0
C  C52  1  0.76116488  0.18921326  0.45562814  1  0  -0.095912  0  3.664907  0  0  -0.122866  0  3.919214  0  0  -0.124933  0  3.937001  0  0  -0.065242  -0.121403  0  3.907173  0
C  C53  1  0.73883532  0.81078271  0.95562930  1  0  -0.095952  0  3.664916  0  0  -0.122898  0  3.919174  0  0  -0.124963  0  3.936958  0  0  -0.065242  -0.121435  0  3.907141  0
C  C54  1  0.23883672  0.81078396  0.54437177  1  0  -0.095895  0  3.664817  0  0  -0.122844  0  3.919102  0  0  -0.124913  0  3.936889  0  0  -0.065236  -0.121383  0  3.907068  0
C  C55  1  0.26116331  0.18921596  0.04437061  1  0  -0.095912  0  3.66486  0  0  -0.12285  0  3.919127  0  0  -0.124918  0  3.936912  0  0  -0.065259  -0.121389  0  3.907096  0
C  C56  1  0.67862562  0.21685138  0.51944772  1  0  0.127718  0  3.703119  0  0  0.102941  0  3.960973  0  0  0.106832  0  3.977402  0  0  0.05686  0.100352  0  3.949816  0
C  C57  1  0.82137173  0.78314818  0.01944997  1  0  0.127711  0  3.703228  0  0  0.102957  0  3.961053  0  0  0.106851  0  3.977474  0  0  0.056866  0.100368  0  3.949898  0
C  C58  1  0.32137749  0.78314584  0.48055219  1  0  0.127777  0  3.703097  0  0  0.102983  0  3.960966  0  0  0.106876  0  3.977393  0  0  0.056887  0.100394  0  3.94981  0
C  C59  1  0.17862549  0.21685341  0.98055094  1  0  0.127737  0  3.703112  0  0  0.102942  0  3.96097  0  0  0.106839  0  3.977392  0  0  0.05689  0.100352  0  3.949816  0
N  N60  1  0.79013022  0.26776851  0.57367877  1  0  -0.358792  0  3.147202  0  0  -0.311936  0  3.403761  0  0  -0.322432  0  3.420659  0  0  -0.34728  -0.304394  0  3.392264  0
N  N61  1  0.70986587  0.73223279  0.07367994  1  0  -0.358882  0  3.147369  0  0  -0.312064  0  3.4039  0  0  -0.322537  0  3.420817  0  0  -0.347319  -0.304521  0  3.392406  0
N  N62  1  0.20987143  0.73223017  0.42632114  1  0  -0.358878  0  3.14742  0  0  -0.312014  0  3.403987  0  0  -0.322509  0  3.420889  0  0  -0.347303  -0.304472  0  3.392488  0
N  N63  1  0.29012984  0.26776880  0.92632048  1  0  -0.358837  0  3.147376  0  0  -0.31198  0  3.403944  0  0  -0.322475  0  3.420844  0  0  -0.347271  -0.304435  0  3.39245  0
O  O64  1  0.01738451  0.36552872  0.68371169  1  0  -0.729413  0  1.996591  0  0  -0.66059  0  2.242001  0  0  -0.688113  0  2.232378  0  0  -0.384515  -0.641098  0  2.247998  0
O  O65  1  0.48261148  0.63447191  0.18371189  1  0  -0.72938  0  1.996548  0  0  -0.660573  0  2.241967  0  0  -0.688102  0  2.23235  0  0  -0.384486  -0.641074  0  2.247943  0
O  O66  1  0.98261719  0.63447142  0.31628822  1  0  -0.729441  0  1.996577  0  0  -0.66061  0  2.241997  0  0  -0.688132  0  2.232372  0  0  -0.384538  -0.641126  0  2.248017  0
O  O67  1  0.51738272  0.36552968  0.81628751  1  0  -0.729406  0  1.996523  0  0  -0.660611  0  2.241928  0  0  -0.688132  0  2.232305  0  0  -0.384535  -0.64113  0  2.247961  0
O  O68  1  0.30580455  0.33376607  0.62383433  1  0  -0.673353  0  1.946615  0  0  -0.616033  0  2.186684  0  0  -0.641663  0  2.176776  0  0  -0.361177  -0.597915  0  2.19302  0
O  O69  1  0.19419128  0.66623572  0.12383546  1  0  -0.673426  0  1.946611  0  0  -0.616106  0  2.186681  0  0  -0.641734  0  2.176764  0  0  -0.361218  -0.597987  0  2.193017  0
O  O70  1  0.69419715  0.66623407  0.37616558  1  0  -0.673359  0  1.946569  0  0  -0.616035  0  2.186677  0  0  -0.641663  0  2.176768  0  0  -0.361185  -0.597917  0  2.193014  0
O  O71  1  0.80580605  0.33376879  0.87616496  1  0  -0.673382  0  1.946608  0  0  -0.616067  0  2.18665  0  0  -0.641697  0  2.17674  0  0  -0.361187  -0.597946  0  2.192988  0
O  O72  1  0.25695626  0.24275750  0.37456357  1  0  -0.677037  0  1.944805  0  0  -0.615786  0  2.17417  0  0  -0.641022  0  2.165214  0  0  -0.334022  -0.598019  0  2.179829  0
O  O73  1  0.24304030  0.75724120  0.87456419  1  0  -0.676995  0  1.944857  0  0  -0.615757  0  2.174197  0  0  -0.640992  0  2.165241  0  0  -0.334025  -0.597989  0  2.179856  0
O  O74  1  0.74304236  0.75724118  0.62543583  1  0  -0.677019  0  1.944922  0  0  -0.615765  0  2.174246  0  0  -0.640999  0  2.165292  0  0  -0.334001  -0.597997  0  2.179905  0
O  O75  1  0.75695692  0.24276039  0.12543571  1  0  -0.677029  0  1.944848  0  0  -0.615768  0  2.174241  0  0  -0.641003  0  2.165286  0  0  -0.33401  -0.598  0  2.1799  0
O  O76  1  0.95511451  0.15223388  0.32960038  1  0  -0.658861  0  2.046045  0  0  -0.586448  0  2.260983  0  0  -0.612896  0  2.250754  0  0  -0.297036  -0.568018  0  2.267662  0
O  O77  1  0.54488232  0.84776436  0.82960149  1  0  -0.658887  0  2.046152  0  0  -0.586499  0  2.261108  0  0  -0.612949  0  2.250877  0  0  -0.297057  -0.568069  0  2.267788  0
O  O78  1  0.04488406  0.84776333  0.67039953  1  0  -0.658857  0  2.046059  0  0  -0.586442  0  2.261  0  0  -0.612893  0  2.250775  0  0  -0.297032  -0.568013  0  2.26768  0
O  O79  1  0.45511793  0.15223724  0.17039893  1  0  -0.658893  0  2.046144  0  0  -0.586486  0  2.261125  0  0  -0.612934  0  2.250894  0  0  -0.297056  -0.568058  0  2.267805  0
O  O80  1  0.35090856  0.65479757  0.72820696  1  0  -0.91851  0  1.908858  0  0  -0.858098  0  2.105105  0  0  -0.87836  0  2.07198  0  0  -0.646279  -0.843655  0  2.128368  0
O  O81  1  0.14909213  0.34520329  0.22820686  1  0  -0.918521  0  1.908871  0  0  -0.858117  0  2.105117  0  0  -0.878377  0  2.07199  0  0  -0.646275  -0.843674  0  2.128378  0
O  O82  1  0.64909169  0.34520402  0.27179245  1  0  -0.918524  0  1.908872  0  0  -0.858113  0  2.105129  0  0  -0.878373  0  2.071999  0  0  -0.646299  -0.843671  0  2.128391  0
O  O83  1  0.85090812  0.65479830  0.77179254  1  0  -0.918474  0  1.908881  0  0  -0.858067  0  2.105124  0  0  -0.878326  0  2.072  0  0  -0.646268  -0.843625  0  2.128385  0
O  O84  1  0.61150436  0.05814158  0.71060876  1  0  -0.886017  0  1.813192  0  0  -0.834108  0  1.99548  0  0  -0.851862  0  1.962852  0  0  -0.642867  -0.821416  0  2.018449  0
O  O85  1  0.88849674  0.94186043  0.21060811  1  0  -0.885983  0  1.813271  0  0  -0.834092  0  1.995566  0  0  -0.851843  0  1.962937  0  0  -0.642876  -0.821402  0  2.018534  0
O  O86  1  0.38849740  0.94186002  0.28939165  1  0  -0.886  0  1.813233  0  0  -0.834107  0  1.995521  0  0  -0.851858  0  1.962892  0  0  -0.642879  -0.821416  0  2.01849  0
O  O87  1  0.11150350  0.05814116  0.78939180  1  0  -0.886032  0  1.813171  0  0  -0.834123  0  1.995459  0  0  -0.851878  0  1.962829  0  0  -0.642867  -0.821432  0  2.018426  0
