# generated using pymatgen
data_SmH11C14Br2N2O9
_symmetry_space_group_name_H-M   'P 1'
_cell_length_a   8.48690893
_cell_length_b   10.03283626
_cell_length_c   11.80882484
_cell_angle_alpha   108.88069963
_cell_angle_beta   104.43072572
_cell_angle_gamma   99.57254293
_symmetry_Int_Tables_number   1
_chemical_formula_structural   SmH11C14Br2N2O9
_chemical_formula_sum   'Sm2 H22 C28 Br4 N4 O18'
_cell_volume   887.29039088
_cell_formula_units_Z   2
loop_
 _symmetry_equiv_pos_site_id
 _symmetry_equiv_pos_as_xyz
  1  'x, y, z'
loop_
 _atom_site_type_symbol
 _atom_site_label
 _atom_site_symmetry_multiplicity
 _atom_site_fract_x
 _atom_site_fract_y
 _atom_site_fract_z
 _atom_site_occupancy
 _atom_site_hle17_bader_spin_density
 _atom_site_hle17_ddec_charge
 _atom_site_hle17_ddec_spin_density
 _atom_site_hle17_ddec_sum_bond_order
 _atom_site_hle17_magmom
 _atom_site_hse06_10hf_bader_spin_density
 _atom_site_hse06_10hf_ddec_charge
 _atom_site_hse06_10hf_ddec_spin_density
 _atom_site_hse06_10hf_ddec_sum_bond_order
 _atom_site_hse06_10hf_magmom
 _atom_site_hse06_bader_spin_density
 _atom_site_hse06_ddec_charge
 _atom_site_hse06_ddec_spin_density
 _atom_site_hse06_ddec_sum_bond_order
 _atom_site_hse06_magmom
 _atom_site_pbe_bader_spin_density
 _atom_site_pbe_cm5_charge
 _atom_site_pbe_ddec_charge
 _atom_site_pbe_ddec_spin_density
 _atom_site_pbe_ddec_sum_bond_order
 _atom_site_pbe_magmom
Sm  Sm0  1  0.01569090  0.20733614  0.51134950  1  0  2.303576  0  1.615828  0  0  2.212658  0  1.960676  0  0  2.25777  0  1.918247  0  0  1.48399  2.114951  0  2.111244  0
Sm  Sm1  1  0.98430934  0.79266454  0.48865087  1  0  2.303557  0  1.61586  0  0  2.212632  0  1.960715  0  0  2.257744  0  1.918285  0  0  1.483963  2.11489  0  2.111345  0
H  H2  1  0.08599595  0.49176336  0.74840425  1  0  0.429837  0  0.876061  0  0  0.399905  0  0.938766  0  0  0.411105  0  0.92232  0  0  0.296677  0.391914  0  0.950311  0
H  H3  1  0.91400309  0.50823731  0.25159761  1  0  0.429851  0  0.876043  0  0  0.399915  0  0.938756  0  0  0.411113  0  0.922312  0  0  0.29668  0.391925  0  0.950299  0
H  H4  1  0.09797871  0.54161402  0.63590729  1  0  0.43819  0  0.860137  0  0  0.40941  0  0.921434  0  0  0.419495  0  0.906599  0  0  0.303765  0.402073  0  0.932014  0
H  H5  1  0.90202342  0.45838885  0.36409487  1  0  0.438222  0  0.86009  0  0  0.40944  0  0.921394  0  0  0.419526  0  0.906555  0  0  0.303783  0.402104  0  0.931973  0
H  H6  1  0.21041360  0.76794812  0.83460867  1  0  0.142088  0  0.962321  0  0  0.14728  0  1.02926  0  0  0.152343  0  1.023666  0  0  0.130338  0.143421  0  1.033497  0
H  H7  1  0.78958157  0.23204378  0.16538840  1  0  0.14211  0  0.962321  0  0  0.147313  0  1.029237  0  0  0.152364  0  1.023677  0  0  0.130322  0.143453  0  1.033477  0
H  H8  1  0.20440986  0.11105187  0.17066477  1  0  0.121599  0  0.95687  0  0  0.126132  0  1.027671  0  0  0.129425  0  1.025683  0  0  0.107535  0.123638  0  1.029339  0
H  H9  1  0.79560068  0.88894671  0.82933429  1  0  0.121712  0  0.956783  0  0  0.1262  0  1.027625  0  0  0.129494  0  1.025642  0  0  0.107588  0.123709  0  1.02928  0
H  H10  1  0.03427625  0.64982508  0.09788232  1  0  0.139144  0  0.95435  0  0  0.135629  0  1.03489  0  0  0.141996  0  1.02736  0  0  0.128515  0.130853  0  1.04082  0
H  H11  1  0.96571580  0.35017662  0.90211860  1  0  0.139117  0  0.954366  0  0  0.135564  0  1.034949  0  0  0.141932  0  1.027413  0  0  0.128518  0.130789  0  1.040875  0
H  H12  1  0.43066160  0.29602903  0.50433309  1  0  0.141393  0  0.957156  0  0  0.146689  0  1.022095  0  0  0.151073  0  1.018022  0  0  0.139148  0.143541  0  1.024823  0
H  H13  1  0.56933898  0.70397274  0.49566850  1  0  0.141381  0  0.957107  0  0  0.14669  0  1.02206  0  0  0.151075  0  1.017969  0  0  0.139151  0.14354  0  1.024789  0
H  H14  1  0.15270787  0.45930067  0.26422476  1  0  0.139426  0  0.947675  0  0  0.144122  0  1.012747  0  0  0.148955  0  1.008198  0  0  0.135891  0.140407  0  1.01647  0
H  H15  1  0.84729602  0.54070003  0.73577373  1  0  0.139424  0  0.947638  0  0  0.144125  0  1.012722  0  0  0.148957  0  1.008174  0  0  0.135895  0.14041  0  1.01645  0
H  H16  1  0.62593186  0.38177775  0.22024536  1  0  0.124369  0  0.947901  0  0  0.131903  0  1.014672  0  0  0.136473  0  1.009429  0  0  0.114673  0.128466  0  1.018747  0
H  H17  1  0.37407263  0.61822079  0.77975771  1  0  0.124437  0  0.947773  0  0  0.131868  0  1.014694  0  0  0.136439  0  1.009449  0  0  0.114645  0.128432  0  1.018766  0
H  H18  1  0.55938631  0.10186632  0.61866142  1  0  0.163607  0  0.915881  0  0  0.188002  0  0.962919  0  0  0.190605  0  0.96214  0  0  0.11174  0.185947  0  0.96407  0
H  H19  1  0.44060992  0.89813323  0.38133456  1  0  0.16361  0  0.915858  0  0  0.188016  0  0.962888  0  0  0.19062  0  0.962107  0  0  0.111736  0.185962  0  0.964039  0
H  H20  1  0.46814495  0.99472244  0.69343037  1  0  0.130565  0  0.963652  0  0  0.146172  0  1.028943  0  0  0.147874  0  1.029318  0  0  0.090608  0.144695  0  1.029305  0
H  H21  1  0.53185460  0.00527604  0.30656505  1  0  0.130534  0  0.963662  0  0  0.14616  0  1.02894  0  0  0.147861  0  1.029316  0  0  0.090593  0.144684  0  1.029303  0
H  H22  1  0.55660652  0.18973411  0.77319537  1  0  0.122597  0  0.976412  0  0  0.136147  0  1.047434  0  0  0.138162  0  1.047668  0  0  0.083463  0.134439  0  1.047929  0
H  H23  1  0.44339183  0.81026436  0.22680153  1  0  0.122615  0  0.976403  0  0  0.136178  0  1.047402  0  0  0.138192  0  1.047638  0  0  0.083485  0.134471  0  1.0479  0
C  C24  1  0.18848625  0.80656148  0.92535770  1  0  -0.051876  0  3.577447  0  0  -0.114415  0  3.832533  0  0  -0.107087  0  3.842687  0  0  0.023954  -0.118886  0  3.825896  0
C  C25  1  0.81151147  0.19343482  0.07464187  1  0  -0.05196  0  3.577623  0  0  -0.114489  0  3.832732  0  0  -0.10717  0  3.842896  0  0  0.023984  -0.118961  0  3.826097  0
C  C26  1  0.21979972  0.95310942  0.99948974  1  0  0.063646  0  3.775695  0  0  0.082789  0  4.053706  0  0  0.081987  0  4.074485  0  0  -0.012073  0.082693  0  4.03965  0
C  C27  1  0.78019742  0.04688905  0.00050779  1  0  0.0638  0  3.775686  0  0  0.082934  0  4.0537  0  0  0.082133  0  4.074474  0  0  -0.012059  0.082836  0  4.039645  0
C  C28  1  0.18234440  0.99668020  0.11204090  1  0  -0.096628  0  3.704193  0  0  -0.138406  0  3.959809  0  0  -0.134129  0  3.976744  0  0  -0.084596  -0.140562  0  3.948758  0
C  C29  1  0.81765762  0.00331831  0.88795834  1  0  -0.096831  0  3.70426  0  0  -0.138577  0  3.959903  0  0  -0.134304  0  3.976844  0  0  -0.084669  -0.140732  0  3.948852  0
C  C30  1  0.11399771  0.88740336  0.14906730  1  0  -0.061889  0  3.730236  0  0  -0.033722  0  3.964311  0  0  -0.042875  0  3.984358  0  0  -0.004075  -0.029004  0  3.952783  0
C  C31  1  0.88600320  0.11259950  0.85093464  1  0  -0.061887  0  3.730367  0  0  -0.033708  0  3.964413  0  0  -0.042861  0  3.98446  0  0  -0.004045  -0.028988  0  3.952883  0
C  C32  1  0.08597965  0.74073249  0.07494763  1  0  -0.002617  0  3.562809  0  0  -0.071988  0  3.828248  0  0  -0.062215  0  3.836078  0  0  0.03872  -0.078245  0  3.823954  0
C  C33  1  0.91401172  0.25926702  0.92505087  1  0  -0.002554  0  3.562946  0  0  -0.071863  0  3.828379  0  0  -0.062089  0  3.836217  0  0  0.038705  -0.07812  0  3.824081  0
C  C34  1  0.07208058  0.92673766  0.27144893  1  0  0.706232  0  3.882524  0  0  0.661678  0  4.17596  0  0  0.695977  0  4.16601  0  0  0.23192  0.638198  0  4.177787  0
C  C35  1  0.92791845  0.07326301  0.72855123  1  0  0.706283  0  3.88236  0  0  0.661722  0  4.175812  0  0  0.696022  0  4.165863  0  0  0.231985  0.638241  0  4.177637  0
C  C36  1  0.42346512  0.32793712  0.42383979  1  0  -0.015706  0  3.539129  0  0  -0.071738  0  3.801175  0  0  -0.062847  0  3.811688  0  0  0.044849  -0.076979  0  3.794657  0
C  C37  1  0.57653457  0.67206574  0.57616193  1  0  -0.015568  0  3.538997  0  0  -0.071647  0  3.801109  0  0  -0.062754  0  3.81163  0  0  0.044884  -0.076895  0  3.794583  0
C  C38  1  0.26438049  0.42093092  0.28674845  1  0  -0.034978  0  3.535977  0  0  -0.084164  0  3.793672  0  0  -0.07648  0  3.803683  0  0  0.036117  -0.088688  0  3.787725  0
C  C39  1  0.73562251  0.57907087  0.71325103  1  0  -0.034871  0  3.535886  0  0  -0.084087  0  3.793607  0  0  -0.076403  0  3.803622  0  0  0.036137  -0.088618  0  3.787658  0
C  C40  1  0.38572602  0.42242966  0.22708737  1  0  0.063342  0  3.760478  0  0  0.083035  0  4.037063  0  0  0.082043  0  4.056679  0  0  -0.007739  0.082816  0  4.024142  0
C  C41  1  0.61427912  0.57757106  0.77291558  1  0  0.063203  0  3.760598  0  0  0.082937  0  4.037126  0  0  0.081943  0  4.056744  0  0  -0.007779  0.082718  0  4.024206  0
C  C42  1  0.52891076  0.37632222  0.26482192  1  0  -0.077017  0  3.686819  0  0  -0.125273  0  3.948769  0  0  -0.118823  0  3.962177  0  0  -0.075091  -0.129276  0  3.940386  0
C  C43  1  0.47109526  0.62367742  0.73518003  1  0  -0.077035  0  3.686803  0  0  -0.125216  0  3.948746  0  0  -0.118768  0  3.962156  0  0  -0.075095  -0.129229  0  3.940353  0
C  C44  1  0.54676751  0.32911201  0.36535641  1  0  -0.061482  0  3.740842  0  0  -0.032118  0  3.976523  0  0  -0.041873  0  3.99724  0  0  -0.003923  -0.027229  0  3.964466  0
C  C45  1  0.45323608  0.67088761  0.63464596  1  0  -0.061566  0  3.740863  0  0  -0.032228  0  3.976578  0  0  -0.041982  0  3.997291  0  0  -0.003945  -0.02731  0  3.964482  0
C  C46  1  0.70136060  0.28455036  0.41761621  1  0  0.642866  0  3.945109  0  0  0.592868  0  4.245466  0  0  0.62641  0  4.2378  0  0  0.201985  0.571385  0  4.243122  0
C  C47  1  0.29864119  0.71545142  0.58238474  1  0  0.642886  0  3.945152  0  0  0.592946  0  4.245435  0  0  0.626487  0  4.237768  0  0  0.201996  0.571455  0  4.243085  0
C  C48  1  0.31913144  0.12721749  0.62848015  1  0  0.800138  0  3.799512  0  0  0.764631  0  4.090934  0  0  0.799204  0  4.078742  0  0  0.217591  0.741264  0  4.092241  0
C  C49  1  0.68086725  0.87278209  0.37151880  1  0  0.800124  0  3.799489  0  0  0.764618  0  4.090921  0  0  0.799181  0  4.078741  0  0  0.217591  0.741252  0  4.092229  0
C  C50  1  0.48481265  0.09960434  0.68242667  1  0  -0.452863  0  3.631355  0  0  -0.525489  0  3.857441  0  0  -0.532913  0  3.860354  0  0  -0.248179  -0.521035  0  3.857404  0
C  C51  1  0.51518604  0.90039524  0.31757143  1  0  -0.452859  0  3.631362  0  0  -0.525532  0  3.857448  0  0  -0.532952  0  3.860364  0  0  -0.248186  -0.521079  0  3.857413  0
Br  Br52  1  0.31693727  0.09224301  0.94247834  1  0  -0.005163  0  1.336151  0  0  0.001312  0  1.599135  0  0  -0.003861  0  1.595611  0  0  0.090245  0.004878  0  1.601261  0
Br  Br53  1  0.68305734  0.90775107  0.05751924  1  0  -0.005209  0  1.336111  0  0  0.001274  0  1.599089  0  0  -0.003896  0  1.595566  0  0  0.090233  0.00485  0  1.601196  0
Br  Br54  1  0.34754814  0.48552199  0.09073982  1  0  -0.004429  0  1.396247  0  0  -0.002613  0  1.669873  0  0  -0.005744  0  1.661991  0  0  0.083307  -0.000278  0  1.675534  0
Br  Br55  1  0.65245476  0.51447543  0.90925758  1  0  -0.004391  0  1.3964  0  0  -0.002576  0  1.670014  0  0  -0.005708  0  1.662132  0  0  0.083332  -0.000241  0  1.675672  0
N  N56  1  0.12368862  0.70207225  0.96496201  1  0  0.252641  0  3.780901  0  0  0.339686  0  3.998683  0  0  0.339269  0  4.021452  0  0  -0.110262  0.339248  0  3.983326  0
N  N57  1  0.87630577  0.29792510  0.03503727  1  0  0.252597  0  3.781061  0  0  0.339599  0  3.998896  0  0  0.339179  0  4.021661  0  0  -0.110322  0.339165  0  3.983538  0
N  N58  1  0.28483804  0.37345564  0.38428544  1  0  0.312203  0  3.729621  0  0  0.367093  0  3.995773  0  0  0.367335  0  4.016467  0  0  -0.101636  0.365922  0  3.979932  0
N  N59  1  0.71516253  0.62654613  0.61571444  1  0  0.312105  0  3.72958  0  0  0.367021  0  3.995746  0  0  0.367261  0  4.016441  0  0  -0.101643  0.36585  0  3.979904  0
O  O60  1  0.09932201  0.56305687  0.89827832  1  0  -0.510189  0  1.795329  0  0  -0.474104  0  1.997299  0  0  -0.498869  0  1.997329  0  0  -0.222367  -0.457007  0  1.997288  0
O  O61  1  0.90067173  0.43693830  0.10172194  1  0  -0.510158  0  1.795334  0  0  -0.474056  0  1.997301  0  0  -0.498806  0  1.99732  0  0  -0.222326  -0.456966  0  1.997293  0
O  O62  1  0.02499637  0.82103078  0.30253543  1  0  -0.690507  0  2.007652  0  0  -0.647365  0  2.248958  0  0  -0.671367  0  2.23851  0  0  -0.377038  -0.621939  0  2.257108  0
O  O63  1  0.97500331  0.17897207  0.69746460  1  0  -0.690537  0  2.007595  0  0  -0.647375  0  2.248867  0  0  -0.671387  0  2.238437  0  0  -0.377079  -0.621957  0  2.257017  0
O  O64  1  0.08918817  0.06159573  0.33108872  1  0  -0.724998  0  2.025683  0  0  -0.690273  0  2.279669  0  0  -0.714335  0  2.270348  0  0  -0.37801  -0.664448  0  2.286266  0
O  O65  1  0.91081362  0.93840605  0.66891138  1  0  -0.724995  0  2.025623  0  0  -0.690266  0  2.279605  0  0  -0.714329  0  2.270289  0  0  -0.378027  -0.664435  0  2.286201  0
O  O66  1  0.17188538  0.37803728  0.44199606  1  0  -0.597041  0  1.842985  0  0  -0.563453  0  2.090638  0  0  -0.58802  0  2.091898  0  0  -0.283967  -0.538349  0  2.090894  0
O  O67  1  0.82811452  0.62196230  0.55800226  1  0  -0.597044  0  1.842979  0  0  -0.56345  0  2.090628  0  0  -0.588008  0  2.091869  0  0  -0.283973  -0.538341  0  2.090884  0
O  O68  1  0.71730710  0.25228682  0.51358751  1  0  -0.633705  0  1.949913  0  0  -0.595527  0  2.181634  0  0  -0.619218  0  2.175281  0  0  -0.329779  -0.573328  0  2.184754  0
O  O69  1  0.28269537  0.74771716  0.48641670  1  0  -0.633728  0  1.949967  0  0  -0.59556  0  2.181663  0  0  -0.619261  0  2.175328  0  0  -0.329769  -0.57336  0  2.184788  0
O  O70  1  0.81373563  0.28111232  0.36120602  1  0  -0.7283  0  2.023867  0  0  -0.679012  0  2.265511  0  0  -0.702655  0  2.253265  0  0  -0.37168  -0.65524  0  2.272246  0
O  O71  1  0.18626739  0.71888947  0.63879600  1  0  -0.728285  0  2.023925  0  0  -0.679005  0  2.265527  0  0  -0.702652  0  2.25328  0  0  -0.37167  -0.655232  0  2.272273  0
O  O72  1  0.18192626  0.02303878  0.57582016  1  0  -0.857536  0  2.160956  0  0  -0.812771  0  2.420822  0  0  -0.838178  0  2.40843  0  0  -0.444453  -0.780102  0  2.429153  0
O  O73  1  0.81807220  0.97696407  0.42418050  1  0  -0.857535  0  2.160935  0  0  -0.812761  0  2.42078  0  0  -0.838174  0  2.408409  0  0  -0.444474  -0.780095  0  2.42911  0
O  O74  1  0.31582673  0.25472959  0.63258283  1  0  -0.707664  0  1.962453  0  0  -0.668443  0  2.199111  0  0  -0.692075  0  2.188804  0  0  -0.378037  -0.645128  0  2.206433  0
O  O75  1  0.68417351  0.74527108  0.36741585  1  0  -0.70765  0  1.96245  0  0  -0.668422  0  2.199101  0  0  -0.692051  0  2.188798  0  0  -0.37803  -0.645103  0  2.206425  0
O  O76  1  0.07043892  0.45391831  0.65587057  1  0  -0.92287  0  1.897108  0  0  -0.88628  0  2.098115  0  0  -0.903933  0  2.064401  0  0  -0.662114  -0.865034  0  2.125778  0
O  O77  1  0.92956255  0.54608238  0.34413003  1  0  -0.922905  0  1.897093  0  0  -0.88632  0  2.098101  0  0  -0.903972  0  2.064389  0  0  -0.662128  -0.865068  0  2.125763  0
