# generated using pymatgen
data_FeH14C21N2O7
_symmetry_space_group_name_H-M   'P 1'
_cell_length_a   9.56520323
_cell_length_b   10.78202212
_cell_length_c   10.81681761
_cell_angle_alpha   96.82186173
_cell_angle_beta   109.67607499
_cell_angle_gamma   113.15015666
_symmetry_Int_Tables_number   1
_chemical_formula_structural   FeH14C21N2O7
_chemical_formula_sum   'Fe2 H28 C42 N4 O14'
_cell_volume   924.31245758
_cell_formula_units_Z   2
loop_
 _symmetry_equiv_pos_site_id
 _symmetry_equiv_pos_as_xyz
  1  'x, y, z'
loop_
 _atom_site_type_symbol
 _atom_site_label
 _atom_site_symmetry_multiplicity
 _atom_site_fract_x
 _atom_site_fract_y
 _atom_site_fract_z
 _atom_site_occupancy
 _atom_site_pbe_bader_spin_density
 _atom_site_pbe_cm5_charge
 _atom_site_pbe_ddec_charge
 _atom_site_pbe_ddec_spin_density
 _atom_site_pbe_ddec_sum_bond_order
 _atom_site_pbe_magmom
Fe  Fe0  1  0.61812355  0.98597362  0.65149054  1  0  0.691636  0.681446  0  3.148812  0
Fe  Fe1  1  0.38188102  0.01401175  0.34851451  1  0  0.691728  0.681635  0  3.148986  0
H  H2  1  0.37226232  0.59453351  0.68116951  1  0  0.111845  0.117379  0  1.02144  0
H  H3  1  0.62775482  0.40547295  0.31884265  1  0  0.11188  0.117363  0  1.021417  0
H  H4  1  0.35800015  0.18641247  0.61712471  1  0  0.115904  0.128771  0  1.025142  0
H  H5  1  0.64200640  0.81359074  0.38287832  1  0  0.115894  0.128778  0  1.025142  0
H  H6  1  0.79290399  0.55571361  0.65984680  1  0  0.110612  0.111405  0  1.018375  0
H  H7  1  0.20710590  0.44428540  0.34014937  1  0  0.110593  0.111403  0  1.018446  0
H  H8  1  0.23891331  0.79717530  0.56267774  1  0  0.120302  0.087204  0  1.029779  0
H  H9  1  0.76109430  0.20282160  0.43731935  1  0  0.120323  0.087207  0  1.02973  0
H  H10  1  0.04402615  0.80764186  0.66598405  1  0  0.107668  0.123378  0  1.031316  0
H  H11  1  0.95597525  0.19234764  0.33400662  1  0  0.107658  0.12335  0  1.031333  0
H  H12  1  0.14788756  0.99835007  0.87564730  1  0  0.10918  0.113293  0  0.988816  0
H  H13  1  0.85209822  0.00163723  0.12433837  1  0  0.109166  0.113265  0  0.988753  0
H  H14  1  0.41100413  0.22120999  0.06859841  1  0  0.104268  0.113812  0  1.008281  0
H  H15  1  0.58897669  0.77878254  0.93138911  1  0  0.104229  0.113716  0  1.008194  0
H  H16  1  0.71541275  0.38135935  0.16508181  1  0  0.100403  0.106148  0  1.04498  0
H  H17  1  0.28456473  0.61863526  0.83490771  1  0  0.100379  0.106086  0  1.044885  0
H  H18  1  0.00250500  0.44446642  0.15655529  1  0  0.106287  0.115075  0  1.030111  0
H  H19  1  0.99747977  0.55553562  0.84344559  1  0  0.106304  0.115176  0  1.030085  0
H  H20  1  0.15615273  0.37024947  0.04126522  1  0  0.105864  0.112288  0  0.997398  0
H  H21  1  0.84384336  0.62976314  0.95873752  1  0  0.105862  0.112326  0  0.997385  0
H  H22  1  0.00005109  0.16616290  0.83175509  1  0  0.119495  0.086571  0  1.029889  0
H  H23  1  0.99994432  0.83384025  0.16824454  1  0  0.119484  0.086518  0  1.029957  0
H  H24  1  0.83353061  0.92713729  0.63176197  1  0  0.293594  0.370635  0  0.979541  0
H  H25  1  0.16647776  0.07286904  0.36822901  1  0  0.293545  0.370577  0  0.979627  0
H  H26  1  0.90247681  0.08135147  0.61025649  1  0  0.296648  0.379166  0  0.961363  0
H  H27  1  0.09753090  0.91865807  0.38975315  1  0  0.296612  0.379162  0  0.96137  0
H  H28  1  0.99472764  0.35825003  0.64717625  1  0  0.310695  0.375806  0  0.964152  0
H  H29  1  0.00528399  0.64175425  0.35282196  1  0  0.310631  0.375791  0  0.964185  0
C  C30  1  0.59405773  0.59167999  0.67782527  1  0  -0.019863  -0.049904  0  4.000873  0
C  C31  1  0.40596003  0.40832750  0.32218072  1  0  -0.019776  -0.049658  0  4.000868  0
C  C32  1  0.43270825  0.52913421  0.67274440  1  0  -0.066973  -0.089085  0  3.916276  0
C  C33  1  0.56729950  0.47087321  0.32725761  1  0  -0.06708  -0.089271  0  3.91647  0
C  C34  1  0.34908448  0.38412317  0.65357013  1  0  -0.018751  -0.055936  0  3.990254  0
C  C35  1  0.65092545  0.61588428  0.34643717  1  0  -0.01874  -0.055778  0  3.989756  0
C  C36  1  0.42543755  0.29985152  0.63608022  1  0  -0.06213  -0.077366  0  3.873031  0
C  C37  1  0.57457012  0.70015593  0.36393101  1  0  -0.062088  -0.077397  0  3.873004  0
C  C38  1  0.58518430  0.36156047  0.63767186  1  0  -0.016142  -0.049979  0  3.966101  0
C  C39  1  0.41482718  0.63843964  0.36233694  1  0  -0.016111  -0.049905  0  3.966251  0
C  C40  1  0.66932530  0.50746046  0.65980183  1  0  -0.063801  -0.084009  0  3.919957  0
C  C41  1  0.33068566  0.49254069  0.34020323  1  0  -0.063904  -0.084257  0  3.920326  0
C  C42  1  0.68051291  0.74560573  0.69108291  1  0  0.21007  0.552571  0  4.191384  0
C  C43  1  0.31949800  0.25439544  0.30892953  1  0  0.210027  0.552526  0  4.191283  0
C  C44  1  0.17776750  0.31740722  0.64870270  1  0  0.238468  0.584477  0  4.110348  0
C  C45  1  0.82224299  0.68259706  0.35129887  1  0  0.238608  0.584552  0  4.110297  0
C  C46  1  0.67156295  0.27545553  0.62068019  1  0  0.232734  0.590849  0  4.120819  0
C  C47  1  0.32842896  0.72453497  0.37931233  1  0  0.232807  0.591191  0  4.12078  0
C  C48  1  0.28371509  0.87812602  0.65671439  1  0  0.053097  0.103455  0  3.881948  0
C  C49  1  0.71628621  0.12186141  0.34328527  1  0  0.053102  0.103459  0  3.882097  0
C  C50  1  0.17540038  0.88551462  0.71461933  1  0  -0.083369  -0.120122  0  3.960858  0
C  C51  1  0.82459148  0.11447379  0.28537479  1  0  -0.083336  -0.120033  0  3.960843  0
C  C52  1  0.23346344  0.99224583  0.83216637  1  0  -0.068991  -0.079534  0  3.914807  0
C  C53  1  0.76652676  0.00774151  0.16782436  1  0  -0.068975  -0.079469  0  3.91468  0
C  C54  1  0.40503039  0.09104696  0.89477692  1  0  -0.00106  0.045744  0  4.02558  0
C  C55  1  0.59495774  0.90895298  0.10521828  1  0  -0.001073  0.045595  0  4.025589  0
C  C56  1  0.48613343  0.20630563  0.01725368  1  0  -0.082606  -0.113623  0  3.958019  0
C  C57  1  0.51384677  0.79368798  0.98274395  1  0  -0.082582  -0.113536  0  3.957789  0
C  C58  1  0.65513981  0.29433411  0.07189296  1  0  -0.087346  -0.127074  0  3.973169  0
C  C59  1  0.34484328  0.70566687  0.92810638  1  0  -0.087289  -0.126914  0  3.972945  0
C  C60  1  0.75989877  0.27257795  0.01224579  1  0  -0.003231  0.050094  0  4.0312  0
C  C61  1  0.24008997  0.72742514  0.98774902  1  0  -0.003201  0.0502  0  4.031042  0
C  C62  1  0.93557138  0.35303953  0.06617057  1  0  -0.072198  -0.091271  0  3.915882  0
C  C63  1  0.06441739  0.64696567  0.93382541  1  0  -0.072271  -0.091631  0  3.916068  0
C  C64  1  0.02027207  0.31213700  0.00159341  1  0  -0.085993  -0.118663  0  3.992604  0
C  C65  1  0.97972395  0.68787353  0.99841463  1  0  -0.085958  -0.118636  0  3.992567  0
C  C66  1  0.93382234  0.19673851  0.88358767  1  0  0.044342  0.081188  0  3.915094  0
C  C67  1  0.06617808  0.80326784  0.11642031  1  0  0.044357  0.08135  0  3.915016  0
C  C68  1  0.68151042  0.15928646  0.89208235  1  0  0.107432  0.104892  0  3.976647  0
C  C69  1  0.31848662  0.84071565  0.10792136  1  0  0.107387  0.104858  0  3.976581  0
C  C70  1  0.50608225  0.07314762  0.83176327  1  0  0.109984  0.104712  0  3.989136  0
C  C71  1  0.49391629  0.92684718  0.16824747  1  0  0.109938  0.104708  0  3.989111  0
N  N72  1  0.44683952  0.97129572  0.71251688  1  0  -0.345722  -0.203397  0  3.627201  0
N  N73  1  0.55316085  0.02870643  0.28748876  1  0  -0.345789  -0.203452  0  3.627356  0
N  N74  1  0.76544727  0.12185428  0.82562599  1  0  -0.351218  -0.222182  0  3.65131  0
N  N75  1  0.23455042  0.87815097  0.17437179  1  0  -0.35125  -0.222345  0  3.651442  0
O  O76  1  0.82597916  0.79998072  0.69537180  1  0  -0.306135  -0.534798  0  2.22715  0
O  O77  1  0.17402013  0.20001294  0.30461223  1  0  -0.306114  -0.534777  0  2.227301  0
O  O78  1  0.59204153  0.81006061  0.69256108  1  0  -0.306712  -0.499744  0  2.456283  0
O  O79  1  0.40796870  0.18993321  0.30745218  1  0  -0.30671  -0.499793  0  2.45608  0
O  O80  1  0.10850641  0.40372470  0.64436835  1  0  -0.329931  -0.484003  0  2.306663  0
O  O81  1  0.89150350  0.59627642  0.35562992  1  0  -0.329959  -0.484074  0  2.306567  0
O  O82  1  0.10737023  0.19353152  0.64884591  1  0  -0.27685  -0.491551  0  2.200174  0
O  O83  1  0.89263289  0.80646748  0.35115837  1  0  -0.276873  -0.491544  0  2.200323  0
O  O84  1  0.57949453  0.13985806  0.56677539  1  0  -0.290557  -0.501307  0  2.456309  0
O  O85  1  0.42048915  0.86013551  0.43320480  1  0  -0.290604  -0.501571  0  2.456538  0
O  O86  1  0.82822230  0.33813535  0.66313015  1  0  -0.296169  -0.539065  0  2.237803  0
O  O87  1  0.17177692  0.66186257  0.33687098  1  0  -0.296198  -0.539227  0  2.238005  0
O  O88  1  0.79800483  0.99420910  0.58806155  1  0  -0.56475  -0.707648  0  2.278106  0
O  O89  1  0.20200356  0.00580145  0.41193546  1  0  -0.564664  -0.707623  0  2.278095  0
