# generated using pymatgen
data_CdH11C15NO7
_symmetry_space_group_name_H-M   'P 1'
_cell_length_a   7.46186303
_cell_length_b   10.18877976
_cell_length_c   11.91651559
_cell_angle_alpha   106.01808358
_cell_angle_beta   108.23648743
_cell_angle_gamma   101.51227737
_symmetry_Int_Tables_number   1
_chemical_formula_structural   CdH11C15NO7
_chemical_formula_sum   'Cd2 H22 C30 N2 O14'
_cell_volume   785.45185936
_cell_formula_units_Z   2
loop_
 _symmetry_equiv_pos_site_id
 _symmetry_equiv_pos_as_xyz
  1  'x, y, z'
loop_
 _atom_site_type_symbol
 _atom_site_label
 _atom_site_symmetry_multiplicity
 _atom_site_fract_x
 _atom_site_fract_y
 _atom_site_fract_z
 _atom_site_occupancy
 _atom_site_hle17_bader_spin_density
 _atom_site_hle17_ddec_charge
 _atom_site_hle17_ddec_spin_density
 _atom_site_hle17_ddec_sum_bond_order
 _atom_site_hle17_magmom
 _atom_site_hse06_10hf_bader_spin_density
 _atom_site_hse06_10hf_ddec_charge
 _atom_site_hse06_10hf_ddec_spin_density
 _atom_site_hse06_10hf_ddec_sum_bond_order
 _atom_site_hse06_10hf_magmom
 _atom_site_hse06_bader_spin_density
 _atom_site_hse06_ddec_charge
 _atom_site_hse06_ddec_spin_density
 _atom_site_hse06_ddec_sum_bond_order
 _atom_site_hse06_magmom
 _atom_site_pbe_bader_spin_density
 _atom_site_pbe_cm5_charge
 _atom_site_pbe_ddec_charge
 _atom_site_pbe_ddec_spin_density
 _atom_site_pbe_ddec_sum_bond_order
 _atom_site_pbe_magmom
Cd  Cd0  1  0.59998556  0.85008087  0.92991922  1  0  1.255421  0  1.568027  0  0  1.077253  0  2.016783  0  0  1.139105  0  1.953579  0  0  0.768583  1.029106  0  2.063546  0
Cd  Cd1  1  0.40001525  0.14991803  0.07007961  1  0  1.255455  0  1.568046  0  0  1.077289  0  2.016801  0  0  1.139139  0  1.953598  0  0  0.768604  1.029146  0  2.063564  0
H  H2  1  0.39572885  0.62966520  0.07853212  1  0  0.118629  0  0.951002  0  0  0.124776  0  1.0209  0  0  0.129148  0  1.016815  0  0  0.110576  0.121583  0  1.024125  0
H  H3  1  0.60426588  0.37032940  0.92146539  1  0  0.118599  0  0.950986  0  0  0.124734  0  1.020916  0  0  0.129114  0  1.016821  0  0  0.110564  0.121541  0  1.024141  0
H  H4  1  0.02799713  0.85323591  0.21206105  1  0  0.114562  0  0.970186  0  0  0.123734  0  1.034152  0  0  0.127953  0  1.030214  0  0  0.107151  0.120639  0  1.037023  0
H  H5  1  0.97200743  0.14676514  0.78793902  1  0  0.114565  0  0.970153  0  0  0.123744  0  1.034114  0  0  0.127959  0  1.03018  0  0  0.107143  0.120651  0  1.036983  0
H  H6  1  0.94921086  0.41063021  0.17840985  1  0  0.115874  0  0.957718  0  0  0.121178  0  1.027356  0  0  0.124913  0  1.02498  0  0  0.106684  0.118462  0  1.029076  0
H  H7  1  0.05078759  0.58936981  0.82159213  1  0  0.115878  0  0.957659  0  0  0.121182  0  1.027299  0  0  0.124918  0  1.024921  0  0  0.10666  0.118466  0  1.02902  0
H  H8  1  0.73836044  0.72006183  0.21456609  1  0  0.110128  0  0.902941  0  0  0.125393  0  0.960766  0  0  0.126411  0  0.959843  0  0  0.125162  0.124559  0  0.961584  0
H  H9  1  0.26164456  0.27994355  0.78543671  1  0  0.110093  0  0.902881  0  0  0.125345  0  0.960734  0  0  0.126358  0  0.959807  0  0  0.12514  0.124513  0  0.96155  0
H  H10  1  0.67146960  0.53105049  0.17650246  1  0  0.125989  0  0.947949  0  0  0.135731  0  1.012028  0  0  0.138035  0  1.010422  0  0  0.122387  0.133931  0  1.013424  0
H  H11  1  0.32852929  0.46895380  0.82349890  1  0  0.125963  0  0.947991  0  0  0.13572  0  1.012057  0  0  0.138023  0  1.010453  0  0  0.122377  0.133921  0  1.013455  0
H  H12  1  0.12379337  0.66618486  0.42496687  1  0  0.104528  0  0.947514  0  0  0.112079  0  1.011266  0  0  0.115112  0  1.008857  0  0  0.130456  0.109842  0  1.012982  0
H  H13  1  0.87620695  0.33381623  0.57503489  1  0  0.104506  0  0.947542  0  0  0.112069  0  1.011277  0  0  0.115102  0  1.008869  0  0  0.13044  0.109833  0  1.012994  0
H  H14  1  0.88391090  0.72145967  0.71552819  1  0  0.127453  0  0.977675  0  0  0.13398  0  1.04056  0  0  0.138009  0  1.03678  0  0  0.118148  0.130812  0  1.043643  0
H  H15  1  0.11608801  0.27854138  0.28447159  1  0  0.127467  0  0.977657  0  0  0.133988  0  1.040546  0  0  0.138023  0  1.036767  0  0  0.118144  0.130789  0  1.043671  0
H  H16  1  0.55444904  0.67945510  0.54906168  1  0  0.14136  0  0.966879  0  0  0.149475  0  1.02371  0  0  0.153901  0  1.02154  0  0  0.117202  0.146263  0  1.025509  0
H  H17  1  0.44554987  0.32054599  0.45094064  1  0  0.141353  0  0.966957  0  0  0.149469  0  1.02377  0  0  0.153892  0  1.021605  0  0  0.117214  0.146257  0  1.025568  0
H  H18  1  0.52813926  0.63889887  0.32421154  1  0  0.094692  0  0.962419  0  0  0.104521  0  1.025115  0  0  0.10631  0  1.024409  0  0  0.129604  0.103102  0  1.025738  0
H  H19  1  0.47185965  0.36110220  0.67578909  1  0  0.094732  0  0.962408  0  0  0.104573  0  1.025084  0  0  0.106354  0  1.024386  0  0  0.129621  0.103153  0  1.025708  0
H  H20  1  0.83640628  0.08131956  0.15781845  1  0  0.424125  0  0.879114  0  0  0.390726  0  0.947638  0  0  0.401856  0  0.931446  0  0  0.286271  0.382742  0  0.959213  0
H  H21  1  0.16359545  0.91868150  0.84218189  1  0  0.424124  0  0.879115  0  0  0.390736  0  0.947618  0  0  0.401866  0  0.931427  0  0  0.286285  0.382752  0  0.959194  0
H  H22  1  0.99858854  0.01212868  0.12540989  1  0  0.437094  0  0.847964  0  0  0.407382  0  0.91337  0  0  0.417797  0  0.89821  0  0  0.297524  0.399745  0  0.924567  0
H  H23  1  0.00141273  0.98787129  0.87458928  1  0  0.437122  0  0.847923  0  0  0.407387  0  0.91336  0  0  0.417803  0  0.898199  0  0  0.297531  0.399748  0  0.924561  0
C  C24  1  0.24921191  0.37728542  0.10630830  1  0  0.615365  0  3.961537  0  0  0.565233  0  4.252945  0  0  0.598703  0  4.250218  0  0  0.19028  0.542525  0  4.253538  0
C  C25  1  0.75078515  0.62271135  0.89369099  1  0  0.615402  0  3.961682  0  0  0.565264  0  4.253102  0  0  0.598737  0  4.250372  0  0  0.190277  0.542554  0  4.2537  0
C  C26  1  0.18770723  0.51019679  0.13432990  1  0  -0.068487  0  3.774217  0  0  -0.041548  0  4.009568  0  0  -0.051763  0  4.034234  0  0  -0.020651  -0.035286  0  3.993706  0
C  C27  1  0.81229168  0.48980428  0.86567073  1  0  -0.068471  0  3.774095  0  0  -0.041532  0  4.00947  0  0  -0.051752  0  4.034144  0  0  -0.020625  -0.035269  0  3.993609  0
C  C28  1  0.28208540  0.63268996  0.11769428  1  0  -0.077808  0  3.688308  0  0  -0.116295  0  3.941111  0  0  -0.112797  0  3.958708  0  0  -0.075766  -0.119074  0  3.930971  0
C  C29  1  0.71791590  0.36730680  0.88230502  1  0  -0.077689  0  3.68817  0  0  -0.116195  0  3.940996  0  0  -0.112703  0  3.958593  0  0  -0.075751  -0.118972  0  3.93085  0
C  C30  1  0.22626071  0.75707006  0.14702741  1  0  -0.057614  0  3.748059  0  0  -0.031231  0  3.983991  0  0  -0.041164  0  4.007076  0  0  -0.016015  -0.025187  0  3.969392  0
C  C31  1  0.77373728  0.24292880  0.85296918  1  0  -0.057662  0  3.74814  0  0  -0.031247  0  3.984018  0  0  -0.041181  0  4.007104  0  0  -0.015955  -0.025202  0  3.969419  0
C  C32  1  0.31790987  0.88635279  0.12287446  1  0  0.670897  0  3.899477  0  0  0.619042  0  4.186468  0  0  0.655162  0  4.17886  0  0  0.208539  0.594205  0  4.190842  0
C  C33  1  0.68209001  0.11364393  0.87712203  1  0  0.670952  0  3.899444  0  0  0.619123  0  4.186384  0  0  0.655245  0  4.178773  0  0  0.208556  0.594286  0  4.190761  0
C  C34  1  0.07448198  0.75750351  0.19224650  1  0  -0.090984  0  3.671507  0  0  -0.127933  0  3.917039  0  0  -0.125483  0  3.935049  0  0  -0.075789  -0.128321  0  3.904118  0
C  C35  1  0.92551929  0.24249648  0.80775351  1  0  -0.090974  0  3.671514  0  0  -0.127944  0  3.917032  0  0  -0.12549  0  3.935046  0  0  -0.075789  -0.128333  0  3.904108  0
C  C36  1  0.97287423  0.63379875  0.20330438  1  0  0.052966  0  3.779836  0  0  0.074755  0  4.028323  0  0  0.071175  0  4.052608  0  0  -0.019737  0.076904  0  4.011241  0
C  C37  1  0.02712563  0.36620127  0.79669788  1  0  0.052994  0  3.779789  0  0  0.074812  0  4.028246  0  0  0.07123  0  4.052532  0  0  -0.019736  0.076962  0  4.011165  0
C  C38  1  0.03011847  0.51003854  0.17450267  1  0  -0.09924  0  3.668719  0  0  -0.132544  0  3.917972  0  0  -0.130788  0  3.937063  0  0  -0.075913  -0.1325  0  3.90432  0
C  C39  1  0.96987998  0.48996144  0.82549679  1  0  -0.09932  0  3.668616  0  0  -0.132629  0  3.917874  0  0  -0.130872  0  3.936967  0  0  -0.075917  -0.132587  0  3.904221  0
C  C40  1  0.79305096  0.63305372  0.23421812  1  0  -0.074129  0  3.580771  0  0  -0.141774  0  3.829651  0  0  -0.137603  0  3.839471  0  0  -0.048779  -0.144461  0  3.823206  0
C  C41  1  0.20695029  0.36694951  0.76578430  1  0  -0.074082  0  3.580665  0  0  -0.141759  0  3.829587  0  0  -0.137583  0  3.83941  0  0  -0.048792  -0.14445  0  3.823149  0
C  C42  1  0.00335753  0.67246868  0.45700934  1  0  0.085752  0  3.590534  0  0  0.032892  0  3.833735  0  0  0.042461  0  3.84929  0  0  0.072967  0.026394  0  3.824115  0
C  C43  1  0.99664138  0.32753239  0.54299129  1  0  0.085714  0  3.590602  0  0  0.032854  0  3.833789  0  0  0.042428  0  3.84934  0  0  0.072959  0.026356  0  3.824169  0
C  C44  1  0.03021066  0.69749109  0.58281648  1  0  -0.095581  0  3.728185  0  0  -0.069791  0  3.970944  0  0  -0.082345  0  3.993142  0  0  -0.00181  -0.062094  0  3.956368  0
C  C45  1  0.96978872  0.30251105  0.41718449  1  0  -0.095547  0  3.728238  0  0  -0.069763  0  3.970999  0  0  -0.082317  0  3.993199  0  0  -0.001793  -0.062066  0  3.956419  0
C  C46  1  0.86866895  0.70269640  0.61759237  1  0  0.017634  0  3.605215  0  0  -0.018023  0  3.855567  0  0  -0.009666  0  3.86836  0  0  -0.041591  -0.023217  0  3.847181  0
C  C47  1  0.13133091  0.29730361  0.38240905  1  0  0.017668  0  3.605146  0  0  -0.018  0  3.855492  0  0  -0.009653  0  3.868294  0  0  -0.041559  -0.023177  0  3.847132  0
C  C48  1  0.68386771  0.67948135  0.52477716  1  0  -0.088579  0  3.670871  0  0  -0.097309  0  3.920206  0  0  -0.105395  0  3.938147  0  0  -0.060804  -0.092375  0  3.908482  0
C  C49  1  0.31613216  0.32051867  0.47522510  1  0  -0.08862  0  3.670957  0  0  -0.097318  0  3.920266  0  0  -0.105404  0  3.938207  0  0  -0.060818  -0.092384  0  3.908538  0
C  C50  1  0.66634518  0.65655706  0.40156892  1  0  0.107073  0  3.578994  0  0  0.060787  0  3.828099  0  0  0.070078  0  3.843314  0  0  0.07045  0.054815  0  3.817853  0
C  C51  1  0.33365514  0.34344402  0.59843283  1  0  0.107056  0  3.579037  0  0  0.060752  0  3.828129  0  0  0.070052  0  3.843346  0  0  0.070457  0.05478  0  3.817884  0
C  C52  1  0.23460199  0.71685771  0.67607456  1  0  0.639187  0  3.958707  0  0  0.586996  0  4.257312  0  0  0.621473  0  4.251472  0  0  0.201391  0.563743  0  4.260209  0
C  C53  1  0.76540021  0.28314444  0.32392697  1  0  0.639182  0  3.9587  0  0  0.586995  0  4.257303  0  0  0.621473  0  4.251461  0  0  0.201397  0.563742  0  4.260201  0
N  N54  1  0.82583367  0.65553143  0.36989846  1  0  0.006502  0  3.518718  0  0  0.104934  0  3.729354  0  0  0.090825  0  3.754913  0  0  -0.199204  0.11406  0  3.712019  0
N  N55  1  0.17416524  0.34446964  0.63010217  1  0  0.006531  0  3.518674  0  0  0.104965  0  3.729316  0  0  0.090853  0  3.754872  0  0  -0.1992  0.114092  0  3.711982  0
O  O56  1  0.15858395  0.26865344  0.12165808  1  0  -0.625311  0  1.976257  0  0  -0.564898  0  2.208574  0  0  -0.59246  0  2.200626  0  0  -0.319546  -0.544169  0  2.214458  0
O  O57  1  0.84141123  0.73134223  0.87833976  1  0  -0.625348  0  1.976427  0  0  -0.564935  0  2.208759  0  0  -0.592499  0  2.200808  0  0  -0.31957  -0.544212  0  2.214646  0
O  O58  1  0.39438747  0.37940415  0.07000323  1  0  -0.64566  0  1.970668  0  0  -0.579476  0  2.213744  0  0  -0.608951  0  2.204272  0  0  -0.328691  -0.557768  0  2.219108  0
O  O59  1  0.60561054  0.62059157  0.92999770  1  0  -0.645648  0  1.970637  0  0  -0.579478  0  2.213735  0  0  -0.608954  0  2.204263  0  0  -0.328675  -0.55777  0  2.219101  0
O  O60  1  0.45099553  0.88306239  0.07858063  1  0  -0.667902  0  2.050686  0  0  -0.600872  0  2.310408  0  0  -0.630958  0  2.297074  0  0  -0.332823  -0.578433  0  2.318182  0
O  O61  1  0.54900390  0.11693330  0.92141805  1  0  -0.66794  0  2.050681  0  0  -0.600922  0  2.310387  0  0  -0.631008  0  2.297053  0  0  -0.332827  -0.578476  0  2.318154  0
O  O62  1  0.25622453  0.99539802  0.14899095  1  0  -0.662717  0  2.016  0  0  -0.591103  0  2.253999  0  0  -0.621792  0  2.241879  0  0  -0.324367  -0.568635  0  2.263143  0
O  O63  1  0.74377348  0.00459760  0.85100323  1  0  -0.662751  0  2.015936  0  0  -0.59115  0  2.253953  0  0  -0.621842  0  2.241835  0  0  -0.324398  -0.56868  0  2.263098  0
O  O64  1  0.27019687  0.78394723  0.79328600  1  0  -0.657207  0  2.05806  0  0  -0.58064  0  2.301957  0  0  -0.612735  0  2.290829  0  0  -0.312988  -0.557831  0  2.308717  0
O  O65  1  0.72980158  0.21605274  0.20671261  1  0  -0.657215  0  2.057989  0  0  -0.580654  0  2.30191  0  0  -0.612753  0  2.290798  0  0  -0.313004  -0.557845  0  2.308669  0
O  O66  1  0.34991382  0.66634294  0.63387880  1  0  -0.612262  0  1.926528  0  0  -0.57506  0  2.15422  0  0  -0.599162  0  2.147554  0  0  -0.321552  -0.55804  0  2.158224  0
O  O67  1  0.65008650  0.33365815  0.36612379  1  0  -0.612256  0  1.926481  0  0  -0.575071  0  2.15419  0  0  -0.599174  0  2.147527  0  0  -0.321563  -0.558051  0  2.158197  0
O  O68  1  0.86443072  0.98986838  0.12655852  1  0  -0.841775  0  1.875652  0  0  -0.782373  0  2.073165  0  0  -0.805364  0  2.038453  0  0  -0.587355  -0.766034  0  2.097889  0
O  O69  1  0.13557384  0.01013271  0.87344408  1  0  -0.841804  0  1.875663  0  0  -0.782399  0  2.07322  0  0  -0.805384  0  2.03849  0  0  -0.587394  -0.766073  0  2.097972  0
