# generated using pymatgen
data_NiH13C17(NO3)2
_symmetry_space_group_name_H-M   'P 1'
_cell_length_a   16.40719516
_cell_length_b   16.40572416
_cell_length_c   17.52602100
_cell_angle_alpha   90.01325291
_cell_angle_beta   89.99083598
_cell_angle_gamma   120.00274887
_symmetry_Int_Tables_number   1
_chemical_formula_structural   NiH13C17(NO3)2
_chemical_formula_sum   'Ni6 H78 C102 N12 O36'
_cell_volume   4085.37254343
_cell_formula_units_Z   6
loop_
 _symmetry_equiv_pos_site_id
 _symmetry_equiv_pos_as_xyz
  1  'x, y, z'
loop_
 _atom_site_type_symbol
 _atom_site_label
 _atom_site_symmetry_multiplicity
 _atom_site_fract_x
 _atom_site_fract_y
 _atom_site_fract_z
 _atom_site_occupancy
 _atom_site_pbe_bader_charge
 _atom_site_pbe_bader_spin_density
 _atom_site_pbe_cm5_charge
 _atom_site_pbe_ddec_charge
 _atom_site_pbe_ddec_spin_density
 _atom_site_pbe_ddec_sum_bond_order
 _atom_site_pbe_magmom
Ni  Ni0  1  0.01080946  0.33261933  0.14807673  1  1.212947  0.701142  0.7513  0.807169  0.83858  2.744561  0.688
Ni  Ni1  1  0.32156918  0.98907303  0.14790493  1  1.210179  0.701161  0.751658  0.807062  0.838521  2.745592  0.688
Ni  Ni2  1  0.66788278  0.67921141  0.77069104  1  1.180853  0.716332  0.748914  0.807609  0.858772  2.730646  0.704
Ni  Ni3  1  0.32086722  0.98851380  0.77071543  1  1.179628  0.716257  0.748386  0.807642  0.858332  2.730588  0.704
Ni  Ni4  1  0.66740912  0.67839227  0.14790102  1  1.209984  0.701257  0.751342  0.806579  0.838591  2.74466  0.688
Ni  Ni5  1  0.01148575  0.33226656  0.77085064  1  1.179238  0.716323  0.748454  0.807266  0.858488  2.730097  0.704
H  H6  1  0.42778635  0.12464608  0.65603023  1  0.18439  -0.000328  0.135556  0.117721  -0.000352  1.001659  0.0
H  H7  1  0.46559046  0.06868642  0.00978341  1  0.102782  1.2e-05  0.120974  0.11305  -2.3e-05  0.975252  0.0
H  H8  1  0.21095447  0.84835096  0.65731020  1  0.169475  1.4e-05  0.135291  0.116363  -0.000111  0.981738  0.0
H  H9  1  0.39037814  0.13813850  0.40318871  1  0.074021  -9.5e-05  0.117039  0.12117  -6.1e-05  0.992488  0.0
H  H10  1  0.15880703  0.14363851  0.75848394  1  0.157162  0.000581  0.116637  0.132081  0.000461  0.985275  0.0
H  H11  1  0.76802414  0.63461001  0.03307097  1  0.122862  -0.000615  0.126937  0.129653  -0.000575  0.956502  0.0
H  H12  1  0.50286530  0.79002481  0.73328407  1  0.103046  2e-05  0.109012  0.118823  -5e-06  0.995282  0.0
H  H13  1  0.69658368  0.57190029  0.65598328  1  0.166457  -0.00033  0.135579  0.117521  -0.000352  1.002904  0.0
H  H14  1  0.52464856  0.63044182  0.90763108  1  0.059523  9.9e-05  0.116309  0.108825  3.3e-05  0.9657  0.0
H  H15  1  0.87074461  0.30436827  0.51407410  1  0.099251  -8.7e-05  0.117545  0.121267  -5.5e-05  0.990858  0.0
H  H16  1  0.16686540  0.40644296  0.40250452  1  0.118576  9.5e-05  0.121147  0.127924  5.8e-05  0.982381  0.0
H  H17  1  0.29148274  0.09947771  0.88514211  1  0.114114  -0.000345  0.118409  0.116624  -0.000333  0.983639  0.0
H  H18  1  0.86827694  0.26091965  0.26126549  1  0.170817  -0.000345  0.137318  0.121885  -0.00036  0.983915  0.0
H  H19  1  0.20209443  0.84130127  0.51617024  1  0.094403  9.1e-05  0.119614  0.125786  5.6e-05  0.985984  0.0
H  H20  1  0.36929248  0.89394498  0.90796951  1  0.040705  9.7e-05  0.116193  0.108843  3.2e-05  0.966187  0.0
H  H21  1  0.17425944  0.92945231  0.90561649  1  0.057265  -4.5e-05  0.112708  0.101722  -0.000106  0.970644  0.0
H  H22  1  0.15136964  0.36193742  0.65739101  1  0.133976  8e-06  0.135294  0.116415  -0.000112  0.981561  0.0
H  H23  1  0.52354799  0.57362982  0.03390474  1  0.138152  -0.000552  0.123434  0.128839  -0.000538  0.974194  -0.001
H  H24  1  0.60018300  0.75960730  0.26164853  1  0.129547  9e-05  0.135021  0.10775  -3e-05  0.988815  0.0
H  H25  1  0.81394484  0.75617103  0.01414600  1  0.046529  1.4e-05  0.112531  0.098566  -1e-06  0.975887  0.0
H  H26  1  0.63536726  0.79002824  0.88631125  1  0.107617  -0.000172  0.126479  0.126773  -0.000197  0.948471  0.0
H  H27  1  0.85647342  0.01515718  0.75840742  1  0.113809  0.000602  0.116731  0.13229  0.00046  0.984837  0.0
H  H28  1  0.20963342  0.84536989  0.88624214  1  0.119709  -0.000169  0.126677  0.126639  -0.000198  0.94833  0.0
H  H29  1  0.63815501  0.78937340  0.65729835  1  0.134713  9e-06  0.135173  0.116555  -0.000111  0.981828  0.0
H  H30  1  0.15934926  0.39977308  0.26169830  1  0.142116  9.3e-05  0.135053  0.107772  -2.9e-05  0.988628  0.0
H  H31  1  0.55013887  0.54055596  0.88386509  1  0.185223  -0.000278  0.120156  0.130451  -0.00035  1.026865  0.0
H  H32  1  0.63988810  0.79817783  0.51615419  1  0.061838  9.4e-05  0.119388  0.125117  5.7e-05  0.986197  0.0
H  H33  1  0.99066713  0.45012501  0.88402003  1  0.182361  -0.000284  0.120297  0.128919  -0.000349  1.029928  0.0
H  H34  1  0.36497348  0.13337777  0.03313517  1  0.126779  -0.00061  0.12683  0.129534  -0.000575  0.956158  0.0
H  H35  1  0.71031232  0.82426714  0.03417358  1  0.112219  -0.000167  0.116534  0.114223  -0.000242  0.988607  0.0
H  H36  1  0.40963912  0.13130971  0.90382670  1  0.08694  -0.000124  0.123556  0.120676  -0.000123  0.963804  0.0
H  H37  1  0.07077690  0.24500543  0.90565520  1  0.041833  -4.5e-05  0.112646  0.099924  -0.000108  0.972149  0.0
H  H38  1  0.21007287  0.71259993  0.73334023  1  0.092621  2.3e-05  0.109146  0.119009  -5e-06  0.994661  0.0
H  H39  1  0.74754962  0.60922201  0.40305048  1  0.074864  -9.6e-05  0.116887  0.120734  -6.2e-05  0.993032  0.0
H  H40  1  0.78903274  0.50280959  0.14549826  1  0.123166  0.000467  0.104181  0.11529  0.000311  1.013122  0.0
H  H41  1  0.86869071  0.27815808  0.90373146  1  0.082754  -0.000125  0.123468  0.12105  -0.000124  0.963579  0.0
H  H42  1  0.50367159  0.78726139  0.18013191  1  0.101045  2e-06  0.110105  0.120438  -2.7e-05  0.99283  0.0
H  H43  1  0.98215359  0.84015148  0.16309995  1  0.14159  0.000513  0.116006  0.131147  0.0004  0.986583  0.0
H  H44  1  0.24353159  0.05741379  0.01383154  1  0.068878  1.8e-05  0.111958  0.098218  -1e-06  0.9757  0.0
H  H45  1  0.15842053  0.36023177  0.51624702  1  0.064089  9.3e-05  0.119462  0.125112  5.6e-05  0.98629  0.0
H  H46  1  0.60264688  0.53430327  0.00999587  1  0.081811  1.3e-05  0.120948  0.113158  -2.3e-05  0.97494  0.0
H  H47  1  0.25398699  0.84299035  0.01609812  1  0.093914  4e-06  0.12294  0.118972  -3.6e-05  0.954727  0.0
H  H48  1  0.28349448  0.49635978  0.18029598  1  0.096524  5e-06  0.109909  0.12018  -2.8e-05  0.992869  0.0
H  H49  1  0.71353542  0.21084376  0.14545577  1  0.121156  0.000478  0.104129  0.115393  0.000312  1.012691  0.0
H  H50  1  0.71772425  0.21383306  0.78075686  1  0.121935  0.000404  0.106218  0.118317  0.000255  1.007845  0.0
H  H51  1  0.59358077  0.76039479  0.40247343  1  0.069653  9.4e-05  0.121201  0.127919  5.8e-05  0.98233  0.0
H  H52  1  0.23950721  0.83292533  0.40234209  1  0.069035  9.6e-05  0.121167  0.127786  5.8e-05  0.982134  0.0
H  H53  1  0.73916989  0.60751592  0.26097075  1  0.160483  -0.00035  0.137242  0.122103  -0.00036  0.983595  0.0
H  H54  1  0.04988261  0.47646426  0.03413310  1  0.128379  -0.00055  0.12347  0.129264  -0.000538  0.973916  -0.001
H  H55  1  0.93151148  0.39731585  0.01005136  1  0.063237  1.2e-05  0.121214  0.113365  -2.3e-05  0.974875  0.0
H  H56  1  0.78616364  0.50380800  0.78062507  1  0.123269  0.000399  0.106203  0.118029  0.000255  1.007865  0.0
H  H57  1  0.21279128  0.71658397  0.18019551  1  0.097399  4e-06  0.110225  0.120583  -2.8e-05  0.992477  0.0
H  H58  1  0.69569297  0.56628461  0.51384209  1  0.098117  -8.7e-05  0.117528  0.121305  -5.5e-05  0.990007  0.0
H  H59  1  0.58930345  0.74640958  0.01631328  1  0.094424  3e-06  0.122745  0.118771  -3.5e-05  0.954635  0.0
H  H60  1  0.42672787  0.95044015  0.03405706  1  0.136716  -0.000553  0.123539  0.128792  -0.000538  0.973934  -0.001
H  H61  1  0.39202919  0.13153507  0.26107290  1  0.165285  -0.000346  0.13733  0.126233  -0.00035  0.97843  0.0
H  H62  1  0.15471087  0.36460639  0.88649839  1  0.070058  -0.000176  0.126476  0.126607  -0.000196  0.947597  0.0
H  H63  1  0.24025473  0.84047954  0.26154592  1  0.136129  9.4e-05  0.135104  0.107772  -2.9e-05  0.989062  0.0
H  H64  1  0.85790846  0.01785404  0.16331987  1  0.14023  0.000511  0.116083  0.131277  0.000399  0.986261  0.0
H  H65  1  0.72211041  0.59070159  0.90354446  1  0.087325  -0.000126  0.123387  0.120487  -0.000126  0.96357  0.0
H  H66  1  0.15984613  0.14207892  0.16319911  1  0.137815  0.000514  0.116127  0.131595  0.000397  0.986278  0.0
H  H67  1  0.87547640  0.30344534  0.65621658  1  0.190026  -0.000328  0.135634  0.117932  -0.000352  1.002615  0.0
H  H68  1  0.49711579  0.28631972  0.14526489  1  0.116679  0.000479  0.104043  0.115281  0.000311  1.012457  0.0
H  H69  1  0.43321177  0.12930025  0.51387313  1  0.077505  -8.8e-05  0.117579  0.121451  -5.5e-05  0.990869  0.0
H  H70  1  0.49622065  0.28223855  0.78055304  1  0.117356  0.000411  0.106219  0.117992  0.000256  1.007907  0.0
H  H71  1  0.86652539  0.23190389  0.03319816  1  0.124137  -0.000612  0.127213  0.130177  -0.000575  0.956051  0.0
H  H72  1  0.94226359  0.18611962  0.01418271  1  0.052483  1.6e-05  0.112433  0.098525  -1e-06  0.975755  0.0
H  H73  1  0.98499477  0.84126941  0.75829315  1  0.154132  0.000584  0.116588  0.131779  0.000461  0.985225  0.0
H  H74  1  0.75499986  0.82590063  0.90541269  1  0.083256  -4.3e-05  0.112755  0.100143  -0.000108  0.972967  0.0
H  H75  1  0.28740223  0.49723074  0.73322792  1  0.102766  2.2e-05  0.108946  0.118739  -6e-06  0.995542  0.0
H  H76  1  0.15705117  0.41083985  0.01646430  1  0.110705  6e-06  0.122767  0.118964  -3.6e-05  0.954772  0.0
H  H77  1  0.45935284  0.00909241  0.88388800  1  0.191786  -0.000279  0.120148  0.130594  -0.000353  1.027342  0.0
H  H78  1  0.86175500  0.25259151  0.40338290  1  0.11126  -9.4e-05  0.117124  0.121152  -6.1e-05  0.99307  0.0
H  H79  1  0.80822881  0.70910046  0.88526605  1  0.09248  -0.000349  0.118465  0.11683  -0.000332  0.98283  0.0
H  H80  1  0.11393909  0.28987116  0.03439290  1  0.105025  -0.000166  0.116489  0.11389  -0.00024  0.989319  0.0
H  H81  1  0.10591579  0.47543701  0.90793585  1  0.085707  0.0001  0.116196  0.108694  3.2e-05  0.965463  0.0
H  H82  1  0.90075467  0.19190365  0.88535336  1  0.123671  -0.000339  0.118281  0.116749  -0.000333  0.983009  0.0
H  H83  1  0.17587799  0.88577645  0.03421933  1  0.102454  -0.000167  0.116493  0.114417  -0.000241  0.988615  0.0
C  C84  1  0.30475153  0.57083592  0.17956584  1  -0.073607  0.00025  -0.082219  -0.130438  1.5e-05  3.939214  0.0
C  C85  1  0.09001127  0.07973425  0.16389995  1  -0.069888  0.000467  -0.064616  -0.089335  0.000159  3.892352  0.001
C  C86  1  0.47618853  0.61159146  0.72698126  1  1.566974  -0.000865  0.210438  0.561709  -0.001422  4.198817  -0.001
C  C87  1  0.31443438  0.06979871  0.00236523  1  0.209694  -0.002225  -0.063515  -0.096386  -0.002714  3.813775  -0.002
C  C88  1  0.23822652  0.59767012  0.73339591  1  -0.077536  -0.001666  -0.013656  -0.010462  -0.001946  3.982025  -0.001
C  C89  1  0.01428240  0.33054247  0.41685432  1  -0.04144  -0.001795  0.018957  0.106255  -0.001955  3.978621  -0.001
C  C90  1  0.73335125  0.42931317  0.77895770  1  -0.064577  0.000684  -0.080184  -0.109447  -0.000359  3.938442  0.001
C  C91  1  0.39195556  0.86508145  0.18937832  1  1.559564  -0.000557  0.21029  0.557615  -0.001078  4.206571  -0.001
C  C92  1  0.26445665  0.69296560  0.73382706  1  0.03931  -7.9e-05  -0.0802  -0.12581  -0.00024  3.935856  0.0
C  C93  1  0.58705173  0.59106781  0.00143647  1  0.205405  -0.002247  -0.066316  -0.097778  -0.002788  3.789427  -0.002
C  C94  1  0.70908544  0.64094653  0.29573919  1  0.441185  -0.002598  0.066878  0.106118  -0.003185  3.880409  -0.002
C  C95  1  0.47302382  0.60811556  0.18939474  1  1.559496  -0.000563  0.20983  0.556222  -0.001082  4.207399  -0.001
C  C96  1  0.23971531  0.90005241  0.00342364  1  0.202637  -0.000341  -0.063281  -0.102269  -0.000241  3.794452  0.0
C  C97  1  0.22861927  0.91082660  0.91669111  1  0.230852  -0.000569  -0.061946  -0.098598  -0.000596  3.810877  0.0
C  C98  1  0.60338200  0.47028083  0.78559336  1  1.571772  0.001062  0.203219  0.551586  0.00073  4.215471  -0.002
C  C99  1  0.98959031  0.90996759  0.16387267  1  -0.030135  0.000483  -0.064473  -0.088694  0.000167  3.893471  0.001
C  C100  1  0.40057516  0.63823032  0.18008523  1  0.069277  -0.001255  -0.013981  -0.009849  -0.001504  3.987037  -0.001
C  C101  1  0.59798737  0.23754574  0.14671738  1  -0.078116  0.021064  -0.026696  -0.042773  0.013221  3.990343  0.017
C  C102  1  0.63936684  0.40193286  0.14677144  1  0.047829  0.020735  -0.026259  -0.04185  0.013196  3.990358  0.017
C  C103  1  0.30711860  0.57126918  0.73380960  1  -0.04722  -8.8e-05  -0.079801  -0.125309  -0.000239  3.937179  0.0
C  C104  1  0.36179708  0.76249048  0.18008100  1  -0.029515  -0.001285  -0.01424  -0.010381  -0.001529  3.987128  -0.001
C  C105  1  0.91081947  0.91945816  0.75788659  1  -0.036472  0.000646  -0.018729  -0.036756  0.000143  4.007983  0.0
C  C106  1  0.93009561  0.24473525  0.00253756  1  0.227111  -0.002221  -0.064004  -0.096741  -0.002717  3.813587  -0.002
C  C107  1  0.92992704  0.28850338  0.37511403  1  0.04864  -0.000165  -0.072638  -0.164197  -0.000327  3.926957  0.0
C  C108  1  0.13495797  0.52703143  0.18955258  1  1.554154  -0.000556  0.210183  0.557097  -0.001081  4.207706  -0.001
C  C109  1  0.08947480  0.08061178  0.75780842  1  -0.020144  0.000413  -0.063521  -0.087863  8.5e-05  3.890409  0.001
C  C110  1  0.40240909  0.64033182  0.73337235  1  -0.013763  -0.001679  -0.01338  -0.010876  -0.001958  3.982619  -0.001
C  C111  1  0.35819170  0.06991836  0.37496112  1  0.091044  -0.000159  -0.072162  -0.163819  -0.000324  3.927926  0.0
C  C112  1  0.16506360  0.98001464  0.76115459  1  1.510188  -0.001536  0.196765  0.520536  -0.00216  4.219339  -0.003
C  C113  1  0.62861779  0.72690753  0.37470050  1  0.078821  0.00023  -0.06915  -0.156103  4e-05  3.912235  0.0
C  C114  1  0.81355673  0.83673694  0.15996878  1  1.502474  -0.001267  0.197002  0.521546  -0.0018  4.218388  -0.002
C  C115  1  0.39404242  0.96878706  0.91665143  1  0.210817  -0.002474  -0.070745  -0.107973  -0.003017  3.786023  -0.002
C  C116  1  0.76294415  0.36261618  0.77921704  1  -0.05776  0.019107  -0.025763  -0.043355  0.012206  3.994498  0.015
C  C117  1  0.09385492  0.34844205  0.54363269  1  0.099673  0.000317  -0.070101  -0.158167  0.000113  3.920318  0.0
C  C118  1  0.02309928  0.18647189  0.16006789  1  1.517058  -0.001238  0.196897  0.521805  -0.001787  4.21793  -0.002
C  C119  1  0.92027324  0.01039176  0.16402709  1  -0.041715  0.000465  -0.064507  -0.0889  0.000162  3.892918  0.001
C  C120  1  0.93451355  0.31562034  0.54254425  1  0.01165  -0.000262  -0.069571  -0.158917  -0.000398  3.920903  0.0
C  C121  1  0.99126171  0.91059609  0.75775185  1  -0.05381  0.000438  -0.063143  -0.086747  8.7e-05  3.890424  0.001
C  C122  1  0.57070919  0.30396736  0.77894253  1  -0.08938  0.000707  -0.080554  -0.109784  -0.000361  3.939669  0.001
C  C123  1  0.23753709  0.59942993  0.18012281  1  -0.033513  -0.00128  -0.013694  -0.009526  -0.001525  3.987202  -0.001
C  C124  1  0.09117008  0.34924358  0.62273535  1  0.430267  -0.00145  0.061183  0.094099  -0.001347  3.903088  -0.001
C  C125  1  0.60669902  0.47315453  0.14106321  1  1.541219  0.000737  0.199028  0.548358  0.000158  4.222512  -0.003
C  C126  1  0.08061914  0.99130175  0.75784359  1  -0.058309  0.000648  -0.018519  -0.036385  0.000137  4.006978  0.0
C  C127  1  0.65087527  0.74187567  0.62260157  1  0.421542  -0.001447  0.061501  0.094598  -0.001347  3.90464  -0.001
C  C128  1  0.16318740  0.97685698  0.15983650  1  1.514132  -0.00128  0.196667  0.521879  -0.001793  4.218608  -0.002
C  C129  1  0.25831351  0.90867937  0.62265901  1  0.416266  -0.001464  0.060964  0.094829  -0.001352  3.905582  -0.001
C  C130  1  0.40900323  0.99619232  0.00146551  1  0.191115  -0.002248  -0.066572  -0.097669  -0.002792  3.790162  -0.002
C  C131  1  0.66851687  0.68274483  0.50093762  1  -0.048759  -0.001773  0.019021  0.106281  -0.001933  3.978267  -0.001
C  C132  1  0.09547614  0.37005798  0.29578286  1  0.450587  -0.001376  0.066311  0.109456  -0.001263  3.90555  -0.001
C  C133  1  0.57111002  0.30612307  0.14687627  1  -0.080987  0.000494  -0.081287  -0.107979  -0.00059  3.938773  0.001
C  C134  1  0.01025018  0.08998765  0.16389385  1  0.004938  0.00028  -0.018779  -0.035885  -0.000184  4.004618  0.0
C  C135  1  0.68213429  0.77141112  0.91669087  1  0.219287  -0.00058  -0.062055  -0.097864  -0.000608  3.810872  0.0
C  C136  1  0.52973590  0.13300903  0.78572043  1  1.543505  0.00106  0.203  0.551158  0.000722  4.214651  -0.002
C  C137  1  0.52671969  0.13362422  0.14109065  1  1.554132  0.000623  0.199309  0.549333  0.00015  4.221732  -0.003
C  C138  1  0.35974088  0.76186503  0.73339835  1  -0.026735  -0.001652  -0.013272  -0.010161  -0.001938  3.980945  -0.001
C  C139  1  0.69377086  0.26507855  0.14698084  1  0.013372  0.000403  -0.081007  -0.108003  -0.000587  3.939192  0.001
C  C140  1  0.66946691  0.68369510  0.41667951  1  -0.023773  -0.001799  0.018465  0.104885  -0.001959  3.980181  -0.001
C  C141  1  0.01437014  0.33155345  0.50110857  1  -0.00261  -0.001773  0.018858  0.106017  -0.001932  3.978489  -0.001
C  C142  1  0.38091448  0.06547737  0.54239798  1  0.074798  -0.000261  -0.069797  -0.158928  -0.000397  3.920021  0.0
C  C143  1  0.02007509  0.18500405  0.76131338  1  1.515684  -0.001508  0.196966  0.520257  -0.002158  4.220368  -0.003
C  C144  1  0.86624752  0.39321351  0.14126524  1  1.534151  0.000896  0.199065  0.547823  0.00015  4.222398  -0.003
C  C145  1  0.35871266  0.06801488  0.29582597  1  0.435274  -0.002599  0.066861  0.103351  -0.00319  3.881353  -0.002
C  C146  1  0.31710490  0.98552290  0.50097817  1  -0.000471  -0.001774  0.019403  0.106595  -0.001937  3.977967  -0.001
C  C147  1  0.75529991  0.68542299  0.00243098  1  0.237136  -0.002219  -0.064195  -0.097029  -0.002718  3.813586  -0.002
C  C148  1  0.09985648  0.33960438  0.00364848  1  0.188585  -0.000344  -0.063122  -0.101851  -0.00024  3.794898  0.0
C  C149  1  0.27437168  0.90434672  0.29564074  1  0.451646  -0.001373  0.066052  0.108524  -0.001261  3.906087  -0.001
C  C150  1  0.57487341  0.60590555  0.91653831  1  0.190527  -0.002484  -0.070865  -0.107755  -0.003022  3.783914  -0.002
C  C151  1  0.68421635  0.61980181  0.62142820  1  0.449021  -0.002439  0.068572  0.112285  -0.00299  3.879517  -0.002
C  C152  1  0.13564131  0.52395492  0.72708152  1  1.563198  -0.000866  0.209737  0.560236  -0.001427  4.198433  -0.001
C  C153  1  0.08926414  0.31793439  0.91689301  1  0.29463  -0.000559  -0.061566  -0.096189  -0.000597  3.809055  0.0
C  C154  1  0.66052534  0.76041619  0.00347373  1  0.195695  -0.00035  -0.063083  -0.101469  -0.000249  3.793015  0.0
C  C155  1  0.91000497  0.92035734  0.16389453  1  -0.0326  0.000297  -0.018959  -0.035962  -0.000179  4.0052  0.0
C  C156  1  0.27291381  0.90149851  0.37466646  1  0.099451  0.000235  -0.06898  -0.155742  4.3e-05  3.911197  0.0
C  C157  1  0.93180980  0.29101073  0.29599238  1  0.43208  -0.002599  0.067196  0.10745  -0.003181  3.881896  -0.002
C  C158  1  0.91948535  0.00882755  0.75781892  1  -0.002987  0.000394  -0.063136  -0.087392  8.3e-05  3.89034  0.001
C  C159  1  0.62996654  0.72549407  0.29568117  1  0.464518  -0.001384  0.065969  0.108639  -0.001271  3.905854  -0.001
C  C160  1  0.00391379  0.41298836  0.00159575  1  0.239149  -0.002248  -0.065877  -0.097366  -0.002788  3.788753  -0.002
C  C161  1  0.03111541  0.42526356  0.91673661  1  0.171242  -0.002472  -0.071093  -0.107139  -0.003018  3.784899  -0.002
C  C162  1  0.81509755  0.83500336  0.76117967  1  1.508931  -0.001509  0.196932  0.520461  -0.002161  4.219155  -0.003
C  C163  1  0.71155573  0.64145171  0.37487397  1  0.07193  -0.000162  -0.071758  -0.162118  -0.000327  3.925917  0.0
C  C164  1  0.65167093  0.74536791  0.54350179  1  0.106641  0.000319  -0.070105  -0.158698  0.000114  3.920359  0.0
C  C165  1  0.25471299  0.90596283  0.54355090  1  0.00955  0.000315  -0.070461  -0.159196  0.000111  3.920595  0.0
C  C166  1  0.31607424  0.98555863  0.41672068  1  -0.062275  -0.001799  0.018677  0.105732  -0.001957  3.978788  -0.001
C  C167  1  0.93575346  0.31587479  0.62162945  1  0.418621  -0.002444  0.068394  0.112143  -0.002992  3.878419  -0.002
C  C168  1  0.26597164  0.69526248  0.17954393  1  0.014489  0.000253  -0.082004  -0.130544  1.2e-05  3.938083  0.0
C  C169  1  0.37999637  0.06427044  0.62148832  1  0.434325  -0.002444  0.068236  0.112453  -0.002995  3.878604  -0.002
C  C170  1  0.73482127  0.42881212  0.14701546  1  -0.097659  0.000508  -0.081262  -0.10815  -0.000587  3.939747  0.001
C  C171  1  0.09831789  0.37136326  0.37480986  1  0.029621  0.000233  -0.069063  -0.156502  4.2e-05  3.912222  0.0
C  C172  1  0.92102811  0.25733688  0.91620049  1  0.210384  -0.0023  -0.065254  -0.101349  -0.00285  3.797336  -0.002
C  C173  1  0.00878292  0.08925658  0.75791691  1  -0.001764  0.000635  -0.018579  -0.036332  0.000136  4.007575  0.0
C  C174  1  0.07959975  0.98972971  0.16372575  1  -0.001095  0.000279  -0.018848  -0.036107  -0.000181  4.00475  0.0
C  C175  1  0.86696508  0.39664936  0.78575869  1  1.524614  0.001309  0.203769  0.552716  0.000733  4.213564  -0.002
C  C176  1  0.33640072  0.07901221  0.91609682  1  0.215439  -0.002288  -0.065163  -0.100632  -0.002842  3.797383  -0.002
C  C177  1  0.68442536  0.61878215  0.54234167  1  0.049845  -0.000261  -0.069658  -0.158572  -0.000395  3.919638  0.0
C  C178  1  0.69602879  0.26662412  0.77904502  1  0.007739  0.000631  -0.080262  -0.110064  -0.000364  3.939344  0.001
C  C179  1  0.63738439  0.40025204  0.77912658  1  0.034029  0.019246  -0.02566  -0.04275  0.012215  3.994665  0.015
C  C180  1  0.76234221  0.36054693  0.14686967  1  -0.04606  0.020728  -0.026732  -0.041908  0.013211  3.990318  0.017
C  C181  1  0.42881326  0.73565073  0.73381148  1  -0.029313  -8.3e-05  -0.080147  -0.125682  -0.000239  3.935741  0.0
C  C182  1  0.59975991  0.23704699  0.77921444  1  -0.052156  0.019331  -0.025577  -0.042893  0.012197  3.995844  0.015
C  C183  1  0.74280039  0.66383055  0.91606879  1  0.249374  -0.002289  -0.065318  -0.100565  -0.002855  3.796302  -0.002
C  C184  1  0.42919115  0.73406062  0.17950405  1  -0.093764  0.000247  -0.08204  -0.130297  1.1e-05  3.938409  0.0
C  C185  1  0.38854146  0.86442675  0.72704875  1  1.55879  -0.000874  0.210116  0.560951  -0.001426  4.198909  -0.001
N  N186  1  0.66786925  0.68154787  0.25721878  1  -1.191917  -0.002219  -0.316414  -0.153224  -0.002278  3.623488  -0.001
N  N187  1  0.66778031  0.67913527  0.03340389  1  -0.942853  -0.006414  -0.318138  -0.048961  -0.006406  3.452685  -0.004
N  N188  1  0.31825879  0.98622679  0.25723259  1  -1.184226  -0.002134  -0.316785  -0.153639  -0.002205  3.62484  -0.001
N  N189  1  0.66742620  0.68029133  0.66060859  1  -1.150765  -0.001305  -0.315052  -0.15456  -0.001362  3.62227  0.0
N  N190  1  0.66739265  0.68054542  0.88547027  1  -0.928193  -0.006569  -0.31672  -0.050197  -0.006259  3.451053  -0.004
N  N191  1  0.01321144  0.33273520  0.88562504  1  -0.915491  -0.006618  -0.316838  -0.050892  -0.006306  3.450545  -0.004
N  N192  1  0.01127482  0.33228182  0.03356978  1  -0.951855  -0.006368  -0.319105  -0.050531  -0.006326  3.453366  -0.004
N  N193  1  0.01305191  0.33269130  0.66077253  1  -1.160697  -0.001344  -0.314587  -0.153832  -0.001399  3.620216  0.0
N  N194  1  0.01358766  0.33215923  0.25739735  1  -1.18418  -0.002179  -0.317024  -0.154627  -0.002244  3.624605  -0.001
N  N195  1  0.31977193  0.98688221  0.66066525  1  -1.173029  -0.001384  -0.314464  -0.155753  -0.001429  3.624337  0.0
N  N196  1  0.31954372  0.98679454  0.88546985  1  -0.921286  -0.006663  -0.316909  -0.050185  -0.006355  3.450691  -0.004
N  N197  1  0.32084730  0.98865745  0.03342544  1  -0.943413  -0.006287  -0.318307  -0.049496  -0.006273  3.452391  -0.004
O  O198  1  0.08618329  0.53567055  0.23849523  1  -1.11939  -0.003023  -0.304431  -0.488539  -0.003658  2.080738  -0.002
O  O199  1  0.74148155  0.84559049  0.16066720  1  -1.131139  0.070441  -0.299332  -0.519508  0.041194  2.135258  0.061
O  O200  1  0.94526819  0.19264181  0.76659129  1  -1.05716  0.015715  -0.288322  -0.477413  0.009096  2.245235  0.014
O  O201  1  0.54685637  0.66268980  0.77377595  1  -1.040485  0.023511  -0.298377  -0.518101  0.013946  2.409269  0.02
O  O202  1  0.74251313  0.84315187  0.76113402  1  -1.125286  0.080558  -0.294182  -0.518125  0.047299  2.163951  0.07
O  O203  1  0.66974736  0.55717454  0.77261427  1  -1.10392  0.164855  -0.305296  -0.543442  0.09475  2.340957  0.146
O  O204  1  0.33737024  0.88396897  0.77379773  1  -1.034448  0.023782  -0.298038  -0.51814  0.014101  2.408728  0.02
O  O205  1  0.92275202  0.47921628  0.80460916  1  -1.147641  0.003449  -0.318123  -0.509172  0.00059  2.102127  0.003
O  O206  1  0.34427767  0.88838415  0.14196517  1  -1.052971  0.02775  -0.301723  -0.525957  0.016347  2.421985  0.024
O  O207  1  0.08264421  0.53172245  0.68187694  1  -1.129385  -0.003077  -0.308879  -0.498542  -0.003621  2.077125  -0.002
O  O208  1  0.46444166  0.55068126  0.23828333  1  -1.118433  -0.003045  -0.303933  -0.488065  -0.003676  2.080661  -0.002
O  O209  1  0.67605369  0.56061011  0.14714761  1  -1.083796  0.179344  -0.306596  -0.544788  0.102716  2.323874  0.159
O  O210  1  0.44940480  0.91749965  0.68194446  1  -1.131898  -0.003085  -0.309098  -0.49869  -0.003628  2.077285  -0.002
O  O211  1  0.11155102  0.45598333  0.14213314  1  -1.049501  0.027896  -0.301389  -0.525803  0.016386  2.422131  0.024
O  O212  1  0.44935256  0.91394506  0.23829689  1  -1.120527  -0.003058  -0.30427  -0.488624  -0.003687  2.080123  -0.002
O  O213  1  0.80584664  0.75431426  0.15312375  1  -1.047197  0.017549  -0.28776  -0.479054  0.010182  2.267302  0.016
O  O214  1  0.88757164  0.33034768  0.77275674  1  -1.089488  0.164789  -0.305302  -0.543596  0.094696  2.341182  0.146
O  O215  1  0.54403820  0.65579029  0.14196572  1  -1.057346  0.027903  -0.301614  -0.525584  0.016439  2.421378  0.024
O  O216  1  0.94840863  0.19421436  0.15327631  1  -1.045709  0.017398  -0.287836  -0.479169  0.010088  2.267002  0.016
O  O217  1  0.88432930  0.32384973  0.14734620  1  -1.081858  0.179592  -0.306564  -0.544492  0.102916  2.32466  0.159
O  O218  1  0.11601477  0.45330612  0.77392168  1  -1.04079  0.023726  -0.298042  -0.517574  0.014042  2.407884  0.02
O  O219  1  0.10082812  0.25758773  0.76130839  1  -1.129447  0.080474  -0.294208  -0.518222  0.047255  2.163911  0.07
O  O220  1  0.46843988  0.55082925  0.68175736  1  -1.128764  -0.003082  -0.309503  -0.499446  -0.003624  2.076988  -0.002
O  O221  1  0.55644545  0.07721473  0.80468135  1  -1.145505  0.003432  -0.317554  -0.508766  0.00058  2.103156  0.003
O  O222  1  0.15427092  0.89588652  0.16057986  1  -1.127524  0.07037  -0.299132  -0.519481  0.041133  2.134452  0.061
O  O223  1  0.43929484  0.11552830  0.14725403  1  -1.084008  0.179481  -0.306883  -0.546079  0.102867  2.326698  0.159
O  O224  1  0.55242444  0.07558341  0.12897647  1  -1.135985  0.006067  -0.317899  -0.513178  0.002282  2.102164  0.005
O  O225  1  0.52296460  0.44742083  0.12894124  1  -1.139218  0.006099  -0.318149  -0.513049  0.002313  2.103372  0.005
O  O226  1  0.44286291  0.11243094  0.77260530  1  -1.084944  0.164765  -0.304984  -0.542823  0.094748  2.340796  0.146
O  O227  1  0.15687407  0.89925094  0.76108542  1  -1.124676  0.080498  -0.294165  -0.518426  0.047238  2.163314  0.07
O  O228  1  0.52082066  0.44351883  0.80438180  1  -1.157034  0.003459  -0.317572  -0.508985  0.000603  2.103082  0.003
O  O229  1  0.10404261  0.25852880  0.16082112  1  -1.139756  0.070197  -0.299309  -0.519686  0.041067  2.135427  0.061
O  O230  1  0.24752156  0.05481599  0.76643077  1  -1.06259  0.015872  -0.288278  -0.477671  0.00918  2.244347  0.014
O  O231  1  0.80744805  0.75253317  0.76641496  1  -1.055385  0.015716  -0.28835  -0.477528  0.009096  2.244249  0.014
O  O232  1  0.92429898  0.47697447  0.12919765  1  -1.14392  0.00609  -0.318108  -0.51291  0.002299  2.102105  0.005
O  O233  1  0.24564312  0.05152068  0.15307171  1  -1.056529  0.017358  -0.287962  -0.479485  0.010059  2.269328  0.016
