# generated using pymatgen
data_CuH20C18(N5O)2
_symmetry_space_group_name_H-M   'P 1'
_cell_length_a   7.54296428
_cell_length_b   8.12821278
_cell_length_c   10.54153886
_cell_angle_alpha   89.83557499
_cell_angle_beta   110.21908248
_cell_angle_gamma   112.82848897
_symmetry_Int_Tables_number   1
_chemical_formula_structural   CuH20C18(N5O)2
_chemical_formula_sum   'Cu1 H20 C18 N10 O2'
_cell_volume   552.50685414
_cell_formula_units_Z   1
loop_
 _symmetry_equiv_pos_site_id
 _symmetry_equiv_pos_as_xyz
  1  'x, y, z'
loop_
 _atom_site_type_symbol
 _atom_site_label
 _atom_site_symmetry_multiplicity
 _atom_site_fract_x
 _atom_site_fract_y
 _atom_site_fract_z
 _atom_site_occupancy
 _atom_site_hle17_ddec_charge
 _atom_site_hle17_ddec_spin_density
 _atom_site_hle17_ddec_sum_bond_order
 _atom_site_hle17_magmom
 _atom_site_hse06_10hf_ddec_charge
 _atom_site_hse06_10hf_ddec_spin_density
 _atom_site_hse06_10hf_ddec_sum_bond_order
 _atom_site_hse06_10hf_magmom
 _atom_site_hse06_ddec_charge
 _atom_site_hse06_ddec_spin_density
 _atom_site_hse06_ddec_sum_bond_order
 _atom_site_hse06_magmom
 _atom_site_pbe_cm5_charge
 _atom_site_pbe_ddec_charge
 _atom_site_pbe_ddec_spin_density
 _atom_site_pbe_ddec_sum_bond_order
 _atom_site_pbe_magmom
Cu  Cu0  1  0.99999925  0.99999087  0.99999743  1  0.837238  -0.661024  1.986594  -0.47  0.857553  -0.782036  2.372417  -0.635  0.940214  -0.850202  2.309859  -0.728  0.817575  0.803576  -0.725367  2.419049  -0.565
H  H1  1  0.83285573  0.45867135  0.49364018  1  0.348005  0.000165  0.924624  0.0  0.326438  -8e-06  0.99154  0.0  0.335679  0.0  0.983853  0.0  0.295456  0.319979  -1.7e-05  0.996753  0.0
H  H2  1  0.16713531  0.54131966  0.50635921  1  0.347984  0.000166  0.924581  0.0  0.326346  -8e-06  0.991615  0.0  0.335651  0.0  0.983821  0.0  0.295435  0.319885  -1.7e-05  0.996828  0.0
H  H3  1  0.59104081  0.29027044  0.38875493  1  0.319493  0.000285  0.898074  0.0  0.308028  3.8e-05  0.95337  0.0  0.314013  1.5e-05  0.949687  0.0  0.307056  0.303966  6e-05  0.955741  0.0
H  H4  1  0.40894998  0.70971503  0.61123680  1  0.319396  0.000287  0.898122  0.0  0.307956  3.8e-05  0.953392  0.0  0.313941  1.5e-05  0.949711  0.0  0.307053  0.303898  6e-05  0.955766  0.0
H  H5  1  0.16905102  0.29427777  0.25356521  1  0.294654  0.000173  0.891521  0.0  0.276059  -5.1e-05  0.95629  0.0  0.283056  -2.5e-05  0.950557  0.0  0.325982  0.270702  -7.4e-05  0.960923  0.0
H  H6  1  0.83095090  0.70571852  0.74643377  1  0.294527  0.000173  0.891602  0.0  0.27593  -5.1e-05  0.956364  0.0  0.282926  -2.5e-05  0.950635  0.0  0.32591  0.270574  -7.4e-05  0.960995  0.0
H  H7  1  0.39908203  0.70027392  0.03254285  1  0.13576  -0.000492  0.956872  -0.001  0.147958  -0.000512  1.013147  -0.001  0.149957  -0.000346  1.014611  -0.001  0.104581  0.146231  -0.000643  1.012547  -0.001
H  H8  1  0.60092741  0.29974397  0.96745596  1  0.135838  -0.000488  0.956839  -0.001  0.148008  -0.000512  1.013148  -0.001  0.15001  -0.000346  1.014604  -0.001  0.104623  0.146281  -0.000643  1.012544  -0.001
H  H9  1  0.23235828  0.38800452  0.78620345  1  0.113159  9.1e-05  0.957656  0.0  0.133625  0.000129  1.020744  0.0  0.134902  0.000187  1.021172  0.0  0.089482  0.132529  6.7e-05  1.020634  0.0
H  H10  1  0.76763083  0.61200554  0.21379840  1  0.113074  9.2e-05  0.957674  0.0  0.133539  0.000129  1.020746  0.0  0.134815  0.000187  1.02118  0.0  0.089456  0.132445  6.7e-05  1.020632  0.0
H  H11  1  0.05216301  0.47928809  0.78189731  1  0.116046  0.000143  0.970738  0.0  0.135994  0.000144  1.032848  0.0  0.137609  0.000169  1.033197  0.0  0.090175  0.134557  9.9e-05  1.032873  0.0
H  H12  1  0.94785261  0.52070952  0.21811139  1  0.116014  0.000154  0.970688  0.0  0.13595  0.000144  1.032798  0.0  0.137576  0.000169  1.033141  0.0  0.090163  0.134513  9.9e-05  1.032819  0.0
H  H13  1  0.98061921  0.24288953  0.78010642  1  0.129371  -0.000177  0.971642  0.0  0.146859  -0.000116  1.035498  0.0  0.148665  -5.6e-05  1.034233  0.0  0.093344  0.145342  -0.000174  1.036575  0.0
H  H14  1  0.01938449  0.75712172  0.21989680  1  0.129449  -0.000177  0.971505  0.0  0.146872  -0.000116  1.03542  0.0  0.148702  -5.6e-05  1.034131  0.0  0.093344  0.145338  -0.000174  1.036512  0.0
H  H15  1  0.38430141  0.73979646  0.34318700  1  0.126301  0.000138  0.950014  0.0  0.147854  0.0001  1.00872  0.0  0.149577  0.000142  1.008589  0.0  0.098016  0.14633  5.8e-05  1.009107  0.0
H  H16  1  0.61569688  0.26020941  0.65681499  1  0.12624  0.000139  0.950032  0.0  0.147791  9.9e-05  1.008749  0.0  0.149509  0.000142  1.008618  0.0  0.09799  0.146266  5.8e-05  1.009137  0.0
H  H17  1  0.61813797  0.74304553  0.33775676  1  0.124489  -0.00037  0.942113  0.0  0.146992  -0.000297  0.99868  0.0  0.148485  -0.000175  0.998389  0.0  0.098845  0.145604  -0.000402  0.999221  0.0
H  H18  1  0.38186628  0.25695216  0.66224750  1  0.124486  -0.000373  0.942075  0.0  0.146992  -0.000297  0.998648  0.0  0.148485  -0.000175  0.998357  0.0  0.098842  0.145601  -0.000402  0.999188  0.0
H  H19  1  0.47272792  0.57361775  0.41273616  1  0.110439  7.4e-05  0.956136  0.0  0.132418  4.1e-05  1.014576  0.0  0.134533  3.5e-05  1.013086  0.0  0.093474  0.130654  4e-05  1.015971  0.0
H  H20  1  0.52727396  0.42638401  0.58726568  1  0.110358  6.9e-05  0.956164  0.0  0.132359  4.1e-05  1.014594  0.0  0.134476  3.5e-05  1.013102  0.0  0.093472  0.130595  4e-05  1.015991  0.0
C  C21  1  0.69706549  0.11961973  0.25031503  1  -0.316042  -0.057595  3.943934  -0.055  -0.326483  -0.010058  4.220759  -0.011  -0.351589  -0.004061  4.239883  -0.005  -0.057952  -0.306284  -0.017893  4.20419  -0.018
C  C22  1  0.30291653  0.88035240  0.74968421  1  -0.316198  -0.057617  3.943853  -0.055  -0.326638  -0.010051  4.220695  -0.011  -0.351733  -0.00405  4.239799  -0.005  -0.058058  -0.306432  -0.017903  4.204126  -0.018
C  C23  1  0.78119851  0.04515512  0.18178660  1  0.352667  0.033416  3.834609  0.022  0.347582  0.001816  4.113309  -0.004  0.374321  0.002123  4.126426  -0.004  0.199535  0.328238  0.001292  4.103501  -0.004
C  C24  1  0.21881455  0.95484377  0.81821488  1  0.352405  0.033358  3.834964  0.022  0.34732  0.001801  4.113679  -0.004  0.374052  0.002107  4.126806  -0.004  0.199278  0.327976  0.001286  4.103862  -0.004
C  C25  1  0.48235346  0.05315588  0.21193759  1  0.302758  0.028481  3.86871  0.022  0.300976  0.003815  4.152704  0.003  0.319991  0.002781  4.170642  0.002  0.172461  0.287437  0.00439  4.139066  0.004
C  C26  1  0.51764436  0.94685381  0.78804721  1  0.30284  0.028397  3.868451  0.022  0.301069  0.003801  4.152447  0.003  0.32008  0.002776  4.170382  0.002  0.172655  0.287533  0.004389  4.138809  0.004
C  C27  1  0.83732562  0.26992809  0.36224242  1  0.631747  0.006658  3.930323  0.007  0.584517  8.4e-05  4.228961  0.001  0.616001  0.000191  4.229717  0.0  0.230314  0.562716  -8.4e-05  4.227221  0.001
C  C28  1  0.16265621  0.73005221  0.63775869  1  0.631974  0.006638  3.930081  0.007  0.584769  7.6e-05  4.228704  0.001  0.616249  0.000187  4.229459  0.0  0.230489  0.562967  -8.5e-05  4.226966  0.001
C  C29  1  0.18567348  0.40748524  0.97376481  1  0.29329  0.000883  3.740163  -0.001  0.298992  -0.001372  4.003193  -0.003  0.312304  0.000405  4.021235  -0.001  0.107284  0.290263  -0.00271  3.990789  -0.004
C  C30  1  0.81434594  0.59252045  0.02624285  1  0.293306  0.000896  3.740295  -0.001  0.298993  -0.001372  4.003276  -0.003  0.312409  0.000404  4.021174  -0.001  0.107287  0.290265  -0.00271  3.990873  -0.004
C  C31  1  0.32378915  0.57152431  0.06215737  1  -0.324751  -0.003462  3.677193  -0.004  -0.348055  -0.002157  3.921711  -0.003  -0.360158  -0.001589  3.941769  -0.002  -0.119534  -0.340106  -0.002609  3.908704  -0.003
C  C32  1  0.67621758  0.42850185  0.93784749  1  -0.324766  -0.003468  3.677451  -0.004  -0.348038  -0.002157  3.922026  -0.003  -0.360174  -0.001589  3.942055  -0.002  -0.11951  -0.340088  -0.002609  3.909021  -0.003
C  C33  1  0.34218476  0.53540003  0.19389974  1  0.28096  -0.001711  3.74454  -0.002  0.276424  -0.00161  4.006859  -0.002  0.287627  -0.000233  4.024501  -0.001  0.102879  0.268503  -0.002477  3.995363  -0.003
C  C34  1  0.65782182  0.46460300  0.80610030  1  0.280938  -0.001709  3.744539  -0.002  0.276338  -0.001609  4.006983  -0.002  0.28754  -0.000233  4.024634  -0.001  0.102884  0.268413  -0.002477  3.995493  -0.003
C  C35  1  0.10790644  0.37629806  0.82190092  1  -0.362629  -0.000117  3.712571  0.0  -0.442703  -0.000113  3.944359  0.0  -0.446162  1.9e-05  3.95066  0.0  -0.245747  -0.439775  -0.000309  3.940135  0.0
C  C36  1  0.89209839  0.62370644  0.17810538  1  -0.362605  -0.000135  3.712497  0.0  -0.442577  -0.000113  3.944237  0.0  -0.446105  1.9e-05  3.950489  0.0  -0.245701  -0.439635  -0.000309  3.940024  0.0
C  C37  1  0.46037463  0.65409203  0.32904450  1  -0.358564  -0.00041  3.7179  -0.001  -0.436862  -0.000475  3.950658  -0.001  -0.439779  -0.000297  3.957004  0.0  -0.232389  -0.434554  -0.000624  3.946988  -0.001
C  C38  1  0.53962663  0.34591385  0.67096100  1  -0.358384  -0.000401  3.71796  0.0  -0.436666  -0.000474  3.950728  -0.001  -0.439577  -0.000297  3.957074  0.0  -0.232317  -0.434354  -0.000624  3.947059  -0.001
N  N39  1  0.74792050  0.33858620  0.42576840  1  -0.696111  -0.007582  3.099183  -0.009  -0.661487  -0.00187  3.330298  -0.002  -0.684395  -0.000795  3.325734  -0.001  -0.57653  -0.644863  -0.003439  3.332518  -0.004
N  N40  1  0.25206742  0.66141023  0.57422841  1  -0.695987  -0.007587  3.099111  -0.009  -0.661351  -0.001872  3.33032  -0.002  -0.684302  -0.000797  3.32566  -0.001  -0.576535  -0.644734  -0.003442  3.332546  -0.004
N  N41  1  0.85837396  0.98203659  0.12822972  1  -0.462063  -0.066701  2.989387  -0.079  -0.458433  -0.037517  3.299285  -0.05  -0.487214  -0.029796  3.303301  -0.043  -0.373948  -0.439169  -0.042663  3.297458  -0.053
N  N42  1  0.14163345  0.01796355  0.87175911  1  -0.461806  -0.066652  2.989424  -0.079  -0.458179  -0.037508  3.299307  -0.05  -0.486965  -0.029785  3.303335  -0.043  -0.37373  -0.438913  -0.042658  3.297475  -0.053
N  N43  1  0.30353691  0.00323574  0.18646879  1  -0.449117  -0.033899  2.725438  -0.04  -0.459661  -0.003589  2.99684  -0.006  -0.476984  -0.000618  3.003557  -0.003  -0.335865  -0.44627  -0.00771  2.99184  -0.011
N  N44  1  0.69645456  0.99675656  0.81352691  1  -0.449102  -0.033818  2.725505  -0.04  -0.459655  -0.003586  2.996922  -0.006  -0.476975  -0.000621  3.003628  -0.003  -0.335925  -0.446265  -0.007708  2.991926  -0.011
N  N45  1  0.12411108  0.27699426  0.04809369  1  -0.283839  -0.06213  3.147091  -0.076  -0.265284  -0.05343  3.448896  -0.074  -0.295241  -0.042082  3.47385  -0.063  -0.26327  -0.247866  -0.058312  3.434251  -0.076
N  N46  1  0.87589917  0.72301561  0.95191384  1  -0.283953  -0.062133  3.146959  -0.076  -0.265361  -0.053433  3.44873  -0.074  -0.29535  -0.042087  3.473649  -0.063  -0.26342  -0.247945  -0.058311  3.434089  -0.076
N  N47  1  0.22207153  0.35661223  0.18126054  1  -0.230736  -0.001297  3.462103  -0.001  -0.175348  -0.001246  3.703662  -0.001  -0.187062  -0.00069  3.723543  -0.001  -0.292834  -0.167444  -0.001797  3.691271  -0.002
N  N48  1  0.77794395  0.64339357  0.81875099  1  -0.230589  -0.001297  3.461899  -0.001  -0.175171  -0.001245  3.703459  -0.001  -0.18689  -0.00069  3.723353  -0.001  -0.292743  -0.167267  -0.001796  3.691071  -0.002
O  O49  1  0.03179230  0.33123740  0.39535045  1  -0.613974  -0.004028  1.916402  -0.005  -0.565224  -0.000717  2.127243  -0.001  -0.588317  -0.000196  2.11993  0.0  -0.319642  -0.548558  -0.001379  2.131707  -0.002
O  O50  1  0.96817954  0.66875236  0.60463990  1  -0.613989  -0.004025  1.916091  -0.005  -0.565322  -0.000718  2.126972  -0.001  -0.588385  -0.000197  2.119654  0.0  -0.319689  -0.548655  -0.001381  2.131435  -0.002
