# generated using pymatgen
data_ZnH11C15NO4
_symmetry_space_group_name_H-M   'P 1'
_cell_length_a   6.92552418
_cell_length_b   9.38789668
_cell_length_c   21.84160000
_cell_angle_alpha   90.00000000
_cell_angle_beta   90.00000000
_cell_angle_gamma   111.10945175
_symmetry_Int_Tables_number   1
_chemical_formula_structural   ZnH11C15NO4
_chemical_formula_sum   'Zn4 H44 C60 N4 O16'
_cell_volume   1324.76169867
_cell_formula_units_Z   4
loop_
 _symmetry_equiv_pos_site_id
 _symmetry_equiv_pos_as_xyz
  1  'x, y, z'
loop_
 _atom_site_type_symbol
 _atom_site_label
 _atom_site_symmetry_multiplicity
 _atom_site_fract_x
 _atom_site_fract_y
 _atom_site_fract_z
 _atom_site_occupancy
 _atom_site_hle17_bader_spin_density
 _atom_site_hle17_ddec_charge
 _atom_site_hle17_ddec_spin_density
 _atom_site_hle17_ddec_sum_bond_order
 _atom_site_hle17_magmom
 _atom_site_hse06_10hf_bader_spin_density
 _atom_site_hse06_10hf_ddec_charge
 _atom_site_hse06_10hf_ddec_spin_density
 _atom_site_hse06_10hf_ddec_sum_bond_order
 _atom_site_hse06_10hf_magmom
 _atom_site_hse06_bader_spin_density
 _atom_site_hse06_ddec_charge
 _atom_site_hse06_ddec_spin_density
 _atom_site_hse06_ddec_sum_bond_order
 _atom_site_hse06_magmom
 _atom_site_pbe_bader_charge
 _atom_site_pbe_bader_spin_density
 _atom_site_pbe_cm5_charge
 _atom_site_pbe_ddec_charge
 _atom_site_pbe_ddec_spin_density
 _atom_site_pbe_ddec_sum_bond_order
 _atom_site_pbe_magmom
Zn  Zn0  1  0.67244539  0.44882607  0.74562074  1  0  1.058121  0  1.800661  0  0  0.875119  0  2.280731  0  0  0.924736  0  2.221704  0  1.279314  0  0.692278  0.840162  0  2.321699  0
Zn  Zn1  1  0.82754114  0.05116630  0.24561616  1  0  1.05801  0  1.80065  0  0  0.874971  0  2.280753  0  0  0.924594  0  2.221726  0  1.279559  0  0.69225  0.840014  0  2.321712  0
Zn  Zn2  1  0.32754955  0.55116551  0.25438658  1  0  1.058128  0  1.800585  0  0  0.87511  0  2.280667  0  0  0.924731  0  2.221639  0  1.279621  0  0.692317  0.840153  0  2.321626  0
Zn  Zn3  1  0.17244514  0.94882528  0.75438017  1  0  1.058131  0  1.800589  0  0  0.875136  0  2.280637  0  0  0.924753  0  2.221612  0  1.27933  0  0.692303  0.840179  0  2.321601  0
H  H4  1  0.66771845  0.71161468  0.82587127  1  0  0.088497  0  0.933792  0  0  0.098243  0  0.995636  0  0  0.100911  0  0.993099  0  0.114202  0  0.119177  0.096416  0  0.997127  0
H  H5  1  0.83228131  0.78838182  0.32587173  1  0  0.088481  0  0.933809  0  0  0.098262  0  0.995615  0  0  0.10093  0  0.993077  0  0.114152  0  0.119198  0.096434  0  0.997107  0
H  H6  1  0.33227938  0.28837690  0.17412644  1  0  0.088478  0  0.933785  0  0  0.098293  0  0.995552  0  0  0.100962  0  0.993014  0  0.114127  0  0.119229  0.096465  0  0.997045  0
H  H7  1  0.16771297  0.21161432  0.67412506  1  0  0.088448  0  0.933858  0  0  0.098216  0  0.995681  0  0  0.100885  0  0.993142  0  0.11422  0  0.119184  0.096389  0  0.997173  0
H  H8  1  0.40642517  0.76754010  0.88985193  1  0  0.121059  0  0.960561  0  0  0.131315  0  1.019336  0  0  0.134493  0  1.018635  0  0.15139  0  0.108432  0.129154  0  1.019847  0
H  H9  1  0.09357720  0.73245754  0.38985102  1  0  0.121038  0  0.960482  0  0  0.131282  0  1.019292  0  0  0.134461  0  1.018592  0  0.151546  0  0.108416  0.129118  0  1.019809  0
H  H10  1  0.59358379  0.23245947  0.11014623  1  0  0.121071  0  0.960496  0  0  0.131326  0  1.019277  0  0  0.134504  0  1.018578  0  0.151533  0  0.108424  0.129163  0  1.019792  0
H  H11  1  0.90641452  0.26753632  0.61014532  1  0  0.120907  0  0.960612  0  0  0.131203  0  1.019381  0  0  0.134382  0  1.018681  0  0.15143  0  0.108355  0.129039  0  1.019898  0
H  H12  1  0.99516878  0.30095181  0.85804703  1  0  0.111282  0  0.960046  0  0  0.121135  0  1.019992  0  0  0.124336  0  1.018738  0  0.110009  0  0.108677  0.118881  0  1.020874  0
H  H13  1  0.50481844  0.19905083  0.35804108  1  0  0.111353  0  0.960049  0  0  0.121193  0  1.019983  0  0  0.124399  0  1.018728  0  0.110192  0  0.108735  0.118939  0  1.020861  0
H  H14  1  0.00481409  0.69905347  0.14195755  1  0  0.111304  0  0.960027  0  0  0.121156  0  1.019965  0  0  0.124359  0  1.018709  0  0.110206  0  0.108706  0.118904  0  1.020842  0
H  H15  1  0.49517118  0.80094760  0.64195434  1  0  0.11125  0  0.960097  0  0  0.121123  0  1.020027  0  0  0.124325  0  1.018771  0  0.110088  0  0.108653  0.118866  0  1.020909  0
H  H16  1  0.26575151  0.26793938  0.79363279  1  0  0.075945  0  0.980697  0  0  0.084796  0  1.047033  0  0  0.087149  0  1.045064  0  0.122068  0  0.113196  0.083213  0  1.047952  0
H  H17  1  0.23422420  0.23206212  0.29363188  1  0  0.075845  0  0.980738  0  0  0.084708  0  1.047087  0  0  0.087068  0  1.045118  0  0.122094  0  0.11318  0.083127  0  1.048007  0
H  H18  1  0.73421823  0.73205676  0.20636904  1  0  0.075887  0  0.980777  0  0  0.084731  0  1.047128  0  0  0.087092  0  1.045166  0  0.122142  0  0.113203  0.083151  0  1.048046  0
H  H19  1  0.76576109  0.76793631  0.70636583  1  0  0.075906  0  0.980702  0  0  0.084762  0  1.047042  0  0  0.087112  0  1.045069  0  0.122  0  0.113192  0.08318  0  1.047961  0
H  H20  1  0.07211633  0.67915832  0.94126163  1  0  0.091773  0  0.964725  0  0  0.104289  0  1.025458  0  0  0.106267  0  1.026081  0  0.07565  0  0.100664  0.102581  0  1.025661  0
H  H21  1  0.42788393  0.82084389  0.44125842  1  0  0.091713  0  0.964829  0  0  0.104272  0  1.025532  0  0  0.106253  0  1.026148  0  0.075669  0  0.100642  0.102565  0  1.025735  0
H  H22  1  0.92788129  0.32084468  0.05874249  1  0  0.091729  0  0.964829  0  0  0.104286  0  1.025529  0  0  0.106267  0  1.026146  0  0.07568  0  0.100629  0.102579  0  1.025731  0
H  H23  1  0.57211692  0.17915682  0.55873837  1  0  0.091798  0  0.964711  0  0  0.104298  0  1.025457  0  0  0.106274  0  1.026081  0  0.075639  0  0.100663  0.10259  0  1.025658  0
H  H24  1  0.77563457  0.36032097  0.90119268  1  0  0.089703  0  0.949771  0  0  0.103723  0  1.00793  0  0  0.106073  0  1.006617  0  0.074176  0  0.104018  0.102017  0  1.009196  0
H  H25  1  0.72436508  0.13968053  0.40118902  1  0  0.089627  0  0.949875  0  0  0.103656  0  1.008028  0  0  0.106013  0  1.006707  0  0.074143  0  0.104001  0.101947  0  1.009296  0
H  H26  1  0.22436628  0.63967974  0.09881053  1  0  0.089622  0  0.949885  0  0  0.103647  0  1.008044  0  0  0.106005  0  1.006722  0  0.074162  0  0.103998  0.101939  0  1.009312  0
H  H27  1  0.27562831  0.86031676  0.59880229  1  0  0.089587  0  0.949844  0  0  0.103653  0  1.007981  0  0  0.106021  0  1.006637  0  0.074225  0  0.103966  0.101949  0  1.009241  0
H  H28  1  0.83441212  0.71961544  0.99516748  1  0  0.082516  0  0.996551  0  0  0.092397  0  1.062068  0  0  0.093077  0  1.064754  0  0.071805  0  0.095463  0.092028  0  1.06008  0
H  H29  1  0.66559699  0.78039133  0.49516244  1  0  0.082486  0  0.996546  0  0  0.092339  0  1.062095  0  0  0.09302  0  1.06478  0  0.071874  0  0.095429  0.091963  0  1.060122  0
H  H30  1  0.16559306  0.28038527  0.00483802  1  0  0.082523  0  0.996545  0  0  0.09238  0  1.062098  0  0  0.093061  0  1.064784  0  0.071838  0  0.09546  0.092009  0  1.060119  0
H  H31  1  0.33441021  0.21962536  0.50483527  1  0  0.082587  0  0.996536  0  0  0.092437  0  1.062103  0  0  0.093117  0  1.06479  0  0.071733  0  0.095485  0.092069  0  1.060112  0
H  H32  1  0.45069675  0.26200418  0.94211642  1  0  0.092705  0  0.967999  0  0  0.101004  0  1.034438  0  0  0.102926  0  1.034873  0  0.101387  0  0.098259  0.099887  0  1.033874  0
H  H33  1  0.04929753  0.23800874  0.44211871  1  0  0.092727  0  0.968084  0  0  0.101012  0  1.034529  0  0  0.102936  0  1.034961  0  0.101098  0  0.09824  0.099896  0  1.033963  0
H  H34  1  0.54930288  0.73799996  0.05788450  1  0  0.092677  0  0.968074  0  0  0.100973  0  1.034529  0  0  0.102895  0  1.034964  0  0.101361  0  0.098248  0.099857  0  1.033962  0
H  H35  1  0.95070912  0.76200682  0.55788129  1  0  0.092708  0  0.968066  0  0  0.100978  0  1.034524  0  0  0.102904  0  1.034948  0  0.101211  0  0.098267  0.099861  0  1.033959  0
H  H36  1  0.83423423  0.45932058  0.50790052  1  0  0.097167  0  0.957814  0  0  0.106858  0  1.020793  0  0  0.110454  0  1.017946  0  0.085123  0  0.103119  0.104064  0  1.023505  0
H  H37  1  0.66577475  0.04067635  0.00789457  1  0  0.097129  0  0.957828  0  0  0.106833  0  1.020779  0  0  0.110432  0  1.017925  0  0.085418  0  0.103114  0.10402  0  1.023512  0
H  H38  1  0.16578151  0.54068699  0.49210589  1  0  0.097189  0  0.957751  0  0  0.106885  0  1.02072  0  0  0.110484  0  1.017867  0  0.085265  0  0.103115  0.104078  0  1.023447  0
H  H39  1  0.33423309  0.95932093  0.99210268  1  0  0.097121  0  0.957799  0  0  0.106828  0  1.020774  0  0  0.110427  0  1.017919  0  0.085099  0  0.103104  0.104033  0  1.023486  0
H  H40  1  0.31536151  0.52435776  0.59496191  1  0  0.108562  0  0.938968  0  0  0.12048  0  0.995185  0  0  0.124144  0  0.99254  0  0.079106  0  0.107077  0.117991  0  0.996892  0
H  H41  1  0.18464686  0.97564331  0.09495916  1  0  0.108562  0  0.938776  0  0  0.120458  0  0.995034  0  0  0.124121  0  0.992388  0  0.079178  0  0.107035  0.117971  0  0.996745  0
H  H42  1  0.68465702  0.47565552  0.40504359  1  0  0.108554  0  0.938802  0  0  0.12042  0  0.995095  0  0  0.124085  0  0.992445  0  0.078853  0  0.107045  0.117922  0  0.996818  0
H  H43  1  0.81536042  0.02435283  0.90503855  1  0  0.108557  0  0.938831  0  0  0.120494  0  0.995039  0  0  0.124159  0  0.992389  0  0.079148  0  0.107023  0.117971  0  0.99679  0
H  H44  1  0.13437629  0.54209257  0.72060563  1  0  0.031685  0  0.903597  0  0  0.045427  0  0.963858  0  0  0.045244  0  0.959839  0  0.12164  0  0.124067  0.045461  0  0.966557  0
H  H45  1  0.36560574  0.95789594  0.22060380  1  0  0.031763  0  0.903624  0  0  0.045583  0  0.963793  0  0  0.045406  0  0.95977  0  0.121656  0  0.12408  0.045615  0  0.966494  0
H  H46  1  0.86560422  0.45789901  0.27939620  1  0  0.031729  0  0.903571  0  0  0.045529  0  0.963774  0  0  0.045347  0  0.959757  0  0.121696  0  0.124109  0.045569  0  0.966453  0
H  H47  1  0.63438320  0.04209222  0.77939482  1  0  0.031764  0  0.903507  0  0  0.045498  0  0.963771  0  0  0.045318  0  0.959752  0  0.121595  0  0.124092  0.045529  0  0.966474  0
C  C48  1  0.51508775  0.62470471  0.83366557  1  0  0.136585  0  3.696054  0  0  0.105444  0  3.94636  0  0  0.113855  0  3.964194  0  0.434158  0  0.047804  0.099699  0  3.934945  0
C  C49  1  0.98491001  0.87529065  0.33366283  1  0  0.136654  0  3.696  0  0  0.105464  0  3.946317  0  0  0.113876  0  3.96415  0  0.434136  0  0.047827  0.099724  0  3.934892  0
C  C50  1  0.48490976  0.37528915  0.16633672  1  0  0.136512  0  3.696107  0  0  0.105315  0  3.946456  0  0  0.113728  0  3.964289  0  0.434542  0  0.047742  0.099575  0  3.935031  0
C  C51  1  0.01508749  0.12470321  0.66633351  1  0  0.136568  0  3.69626  0  0  0.105443  0  3.946557  0  0  0.113856  0  3.96439  0  0.434209  0  0.047841  0.099698  0  3.935139  0
C  C52  1  0.36973269  0.65400621  0.87019632  1  0  -0.15605  0  3.664455  0  0  -0.171974  0  3.906287  0  0  -0.180883  0  3.927498  0  -0.02406  0  -0.079151  -0.167017  0  3.89323  0
C  C53  1  0.13027023  0.84599257  0.37019174  1  0  -0.156015  0  3.664592  0  0  -0.171941  0  3.90639  0  0  -0.180848  0  3.927602  0  -0.02404  0  -0.079137  -0.166984  0  3.893327  0
C  C54  1  0.63027049  0.34599336  0.12980688  1  0  -0.156013  0  3.664483  0  0  -0.171958  0  3.906288  0  0  -0.180867  0  3.927501  0  -0.024263  0  -0.079109  -0.167001  0  3.893226  0
C  C55  1  0.86972816  0.15400015  0.62980276  1  0  -0.155908  0  3.66425  0  0  -0.171878  0  3.906102  0  0  -0.180787  0  3.927314  0  -0.024092  0  -0.079173  -0.166921  0  3.893045  0
C  C56  1  0.17448434  0.53923230  0.88023909  1  0  0.146511  0  3.787544  0  0  0.161545  0  4.01554  0  0  0.169166  0  4.036896  0  -0.016009  0  0.012302  0.156385  0  4.001655  0
C  C57  1  0.32551537  0.96076877  0.38023130  1  0  0.146403  0  3.78798  0  0  0.161513  0  4.015854  0  0  0.169134  0  4.037218  0  -0.016711  0  0.012306  0.156357  0  4.001958  0
C  C58  1  0.82551818  0.46077184  0.11976778  1  0  0.146442  0  3.787874  0  0  0.161574  0  4.01572  0  0  0.169192  0  4.03708  0  -0.015976  0  0.012326  0.156418  0  4.001826  0
C  C59  1  0.67448213  0.03922510  0.61976046  1  0  0.146553  0  3.787496  0  0  0.161578  0  4.01552  0  0  0.169196  0  4.036879  0  -0.015644  0  0.012361  0.156418  0  4.001633  0
C  C60  1  0.13979554  0.39673604  0.85237116  1  0  -0.151027  0  3.699867  0  0  -0.168607  0  3.946909  0  0  -0.176692  0  3.968005  0  0.003598  0  -0.080161  -0.163085  0  3.932528  0
C  C61  1  0.36020449  0.10326204  0.35236750  1  0  -0.150981  0  3.700006  0  0  -0.168571  0  3.947046  0  0  -0.176667  0  3.968158  0  0.003903  0  -0.080121  -0.163036  0  3.932649  0
C  C62  1  0.86020041  0.60326353  0.14763296  1  0  -0.150909  0  3.699982  0  0  -0.168528  0  3.947004  0  0  -0.17661  0  3.968102  0  0.003877  0  -0.080115  -0.162998  0  3.932612  0
C  C63  1  0.63979390  0.89673068  0.64762746  1  0  -0.151043  0  3.69997  0  0  -0.168638  0  3.947015  0  0  -0.176722  0  3.968111  0  0.00344  0  -0.080159  -0.163109  0  3.93263  0
C  C64  1  0.29044197  0.37664335  0.81594938  1  0  0.11602  0  3.731618  0  0  0.084508  0  3.982159  0  0  0.091339  0  4.001431  0  0.416001  0  0.035749  0.079846  0  3.96925  0
C  C65  1  0.20954051  0.12335129  0.31594663  1  0  0.11595  0  3.731441  0  0  0.084385  0  3.981996  0  0  0.091211  0  4.001283  0  0.415743  0  0.035593  0.079691  0  3.969138  0
C  C66  1  0.70953942  0.62334708  0.18405382  1  0  0.115813  0  3.731481  0  0  0.084317  0  3.982013  0  0  0.091132  0  4.0013  0  0.416073  0  0.035619  0.079621  0  3.969161  0
C  C67  1  0.79044633  0.87664143  0.68404879  1  0  0.11604  0  3.73146  0  0  0.084527  0  3.982043  0  0  0.091363  0  4.001312  0  0.416066  0  0.035745  0.079865  0  3.969128  0
C  C68  1  0.02060443  0.56885351  0.91801242  1  0  -0.113482  0  3.70515  0  0  -0.132579  0  3.955089  0  0  -0.138852  0  3.977197  0  0.045895  0  -0.08734  -0.128184  0  3.940678  0
C  C69  1  0.47940105  0.93114756  0.41800875  1  0  -0.113395  0  3.705065  0  0  -0.132569  0  3.955  0  0  -0.13884  0  3.977109  0  0.046064  0  -0.087329  -0.128178  0  3.940589  0
C  C70  1  0.97939674  0.43114492  0.08199125  1  0  -0.113488  0  3.705059  0  0  -0.132654  0  3.954983  0  0  -0.138927  0  3.977095  0  0.045529  0  -0.08733  -0.128261  0  3.940572  0
C  C71  1  0.52060390  0.06884973  0.58198575  1  0  -0.113511  0  3.705071  0  0  -0.13259  0  3.955032  0  0  -0.138865  0  3.977147  0  0.045567  0  -0.08733  -0.128197  0  3.940623  0
C  C72  1  0.82404788  0.46921220  0.92569821  1  0  -0.073555  0  3.713767  0  0  -0.096375  0  3.964461  0  0  -0.09533  0  3.98427  0  -0.169322  0  -0.075741  -0.097623  0  3.951762  0
C  C73  1  0.67595434  0.03079158  0.42569546  1  0  -0.073533  0  3.713776  0  0  -0.096348  0  3.964483  0  0  -0.09531  0  3.984291  0  -0.169447  0  -0.075737  -0.097593  0  3.951781  0
C  C74  1  0.17595553  0.53079079  0.07430454  1  0  -0.073442  0  3.713754  0  0  -0.096284  0  3.964465  0  0  -0.095245  0  3.984273  0  -0.169422  0  -0.075696  -0.09753  0  3.951763  0
C  C75  1  0.32404963  0.96921256  0.57429813  1  0  -0.07349  0  3.713893  0  0  -0.096334  0  3.964601  0  0  -0.095297  0  3.984394  0  -0.169303  0  -0.075702  -0.097582  0  3.951903  0
C  C76  1  0.66379595  0.48893722  0.96362400  1  0  0.079364  0  3.822093  0  0  0.099524  0  4.050532  0  0  0.09889  0  4.075255  0  0.004088  0  -0.011185  0.100782  0  4.033975  0
C  C77  1  0.83620416  0.01107113  0.46362400  1  0  0.079369  0  3.822037  0  0  0.099503  0  4.050481  0  0  0.09887  0  4.075206  0  0.004114  0  -0.011239  0.100762  0  4.033921  0
C  C78  1  0.33620102  0.51107034  0.03637600  1  0  0.079357  0  3.822049  0  0  0.099535  0  4.050464  0  0  0.0989  0  4.07519  0  0.004285  0  -0.011271  0.100793  0  4.033904  0
C  C79  1  0.16380403  0.98893872  0.53637325  1  0  0.079429  0  3.822104  0  0  0.099531  0  4.050597  0  0  0.098896  0  4.075326  0  0.003893  0  -0.011144  0.100787  0  4.034043  0
C  C80  1  0.68847018  0.62303194  0.99692697  1  0  -0.10072  0  3.732106  0  0  -0.118969  0  3.974075  0  0  -0.121806  0  3.998474  0  -0.038645  0  -0.088112  -0.116403  0  3.957455  0
C  C81  1  0.81153460  0.87697484  0.49692468  1  0  -0.100699  0  3.732247  0  0  -0.118899  0  3.974155  0  0  -0.121739  0  3.998559  0  -0.038534  0  -0.088083  -0.116331  0  3.957535  0
C  C82  1  0.31152889  0.37697106  0.00307258  1  0  -0.100741  0  3.732093  0  0  -0.118976  0  3.974052  0  0  -0.121813  0  3.998452  0  -0.038907  0  -0.088123  -0.116411  0  3.957431  0
C  C83  1  0.18847438  0.12303958  0.50307212  1  0  -0.100817  0  3.732032  0  0  -0.119027  0  3.974036  0  0  -0.121867  0  3.998436  0  -0.038124  0  -0.088169  -0.116461  0  3.957417  0
C  C84  1  0.47169995  0.36650053  0.96766400  1  0  -0.10847  0  3.726999  0  0  -0.127318  0  3.973079  0  0  -0.1313  0  3.997302  0  -0.058201  0  -0.08725  -0.124788  0  3.956487  0
C  C85  1  0.02829811  0.13351125  0.46766446  1  0  -0.108466  0  3.726945  0  0  -0.127288  0  3.973008  0  0  -0.131271  0  3.997231  0  -0.058315  0  -0.08721  -0.124757  0  3.956413  0
C  C86  1  0.52829535  0.63350361  0.03233509  1  0  -0.108418  0  3.727006  0  0  -0.127271  0  3.973076  0  0  -0.131251  0  3.997298  0  -0.058194  0  -0.087211  -0.124738  0  3.956479  0
C  C87  1  0.97170943  0.86650317  0.53233280  1  0  -0.108476  0  3.727117  0  0  -0.127275  0  3.973189  0  0  -0.131256  0  3.997418  0  -0.058282  0  -0.087255  -0.124746  0  3.956596  0
C  C88  1  0.67994656  0.48424090  0.61892764  1  0  0.631129  0  3.939072  0  0  0.583332  0  4.233731  0  0  0.617201  0  4.226677  0  1.558093  0  0.198395  0.560809  0  4.236294  0
C  C89  1  0.82005897  0.01575489  0.11892032  1  0  0.631141  0  3.938656  0  0  0.583296  0  4.233392  0  0  0.617164  0  4.226337  0  1.558759  0  0.198311  0.560768  0  4.235951  0
C  C90  1  0.32007295  0.51576553  0.38108060  1  0  0.631051  0  3.938629  0  0  0.58321  0  4.233394  0  0  0.617077  0  4.226339  0  1.557731  0  0.198274  0.560683  0  4.235953  0
C  C91  1  0.17994520  0.98423783  0.88107419  1  0  0.631094  0  3.939158  0  0  0.583255  0  4.233872  0  0  0.617125  0  4.226816  0  1.558221  0  0.198309  0.560745  0  4.236436  0
C  C92  1  0.58508472  0.49188998  0.55766656  1  0  -0.060385  0  3.747269  0  0  -0.037486  0  3.978789  0  0  -0.043317  0  3.99958  0  -0.085605  0  -0.015662  -0.033833  0  3.964697  0
C  C93  1  0.91493183  0.00811951  0.05766198  1  0  -0.060258  0  3.74757  0  0  -0.037321  0  3.979045  0  0  -0.043152  0  3.999837  0  -0.085379  0  -0.015618  -0.033645  0  3.96492  0
C  C94  1  0.41494894  0.50813357  0.44234076  1  0  -0.060292  0  3.747725  0  0  -0.037372  0  3.979249  0  0  -0.043204  0  4.000042  0  -0.084743  0  -0.015622  -0.033697  0  3.965121  0
C  C95  1  0.08508168  0.99188348  0.94233664  1  0  -0.060437  0  3.747587  0  0  -0.037496  0  3.979089  0  0  -0.043327  0  3.999881  0  -0.085709  0  -0.015726  -0.033888  0  3.965047  0
C  C96  1  0.68770918  0.47713075  0.50400062  1  0  -0.081734  0  3.743082  0  0  -0.103946  0  3.994123  0  0  -0.104215  0  4.012034  0  -0.042996  0  -0.083481  -0.103629  0  3.982385  0
C  C97  1  0.81231137  0.02288102  0.00399559  1  0  -0.081618  0  3.743054  0  0  -0.103832  0  3.994052  0  0  -0.104101  0  4.011963  0  -0.043853  0  -0.083464  -0.103503  0  3.982301  0
C  C98  1  0.31232014  0.52289279  0.49600624  1  0  -0.081814  0  3.743114  0  0  -0.10403  0  3.994151  0  0  -0.104301  0  4.01206  0  -0.043886  0  -0.08353  -0.103709  0  3.982413  0
C  C99  1  0.18770703  0.97712312  0.99600167  1  0  -0.081549  0  3.743061  0  0  -0.103785  0  3.99407  0  0  -0.104056  0  4.011981  0  -0.043129  0  -0.083417  -0.103454  0  3.982347  0
C  C100  1  0.39600051  0.51451980  0.55325663  1  0  -0.072065  0  3.717552  0  0  -0.095252  0  3.966215  0  0  -0.095229  0  3.984444  0  0.00729  0  -0.082165  -0.094833  0  3.953568  0
C  C101  1  0.10401022  0.98549498  0.05325068  1  0  -0.072237  0  3.717628  0  0  -0.095431  0  3.966321  0  0  -0.095407  0  3.984549  0  0.007885  0  -0.082144  -0.095024  0  3.953675  0
C  C102  1  0.60402038  0.48550718  0.44675115  1  0  -0.072081  0  3.717671  0  0  -0.095231  0  3.966345  0  0  -0.095207  0  3.984576  0  0.008327  0  -0.082085  -0.094815  0  3.953702  0
C  C103  1  0.89600007  0.01451031  0.94674566  1  0  -0.072208  0  3.717692  0  0  -0.095438  0  3.966361  0  0  -0.095417  0  3.984593  0  0.007621  0  -0.082114  -0.094978  0  3.95374  0
C  C104  1  0.10514173  0.64459758  0.73576341  1  0  0.598978  0  3.869397  0  0  0.521936  0  4.173024  0  0  0.557159  0  4.164762  0  1.554444  0  0.157723  0.497879  0  4.178111  0
C  C105  1  0.39484174  0.85539093  0.23576295  1  0  0.598458  0  3.869825  0  0  0.521349  0  4.173488  0  0  0.556565  0  4.165247  0  1.554598  0  0.157606  0.497296  0  4.178559  0
C  C106  1  0.89484222  0.35539514  0.26423705  1  0  0.598594  0  3.869648  0  0  0.521486  0  4.173342  0  0  0.556704  0  4.165095  0  1.554164  0  0.157604  0.497435  0  4.17842  0
C  C107  1  0.60514920  0.14459836  0.76423659  1  0  0.598903  0  3.869553  0  0  0.521867  0  4.17317  0  0  0.557087  0  4.164916  0  1.554512  0  0.15773  0.497812  0  4.178253  0
N  N108  1  0.47663772  0.48835489  0.80613325  1  0  -0.363488  0  3.319625  0  0  -0.277477  0  3.603183  0  0  -0.298526  0  3.617912  0  -1.267019  0  -0.343746  -0.263616  0  3.593531  0
N  N109  1  0.02334998  0.01163862  0.30613188  1  0  -0.363363  0  3.319377  0  0  -0.277312  0  3.602952  0  0  -0.298356  0  3.617672  0  -1.267053  0  -0.343661  -0.263445  0  3.593289  0
N  N110  1  0.52335011  0.51163098  0.19386904  1  0  -0.363223  0  3.319499  0  0  -0.277251  0  3.603163  0  0  -0.298295  0  3.617886  0  -1.267837  0  -0.343706  -0.263384  0  3.5935  0
N  N111  1  0.97664142  0.98835753  0.69386400  1  0  -0.363404  0  3.319683  0  0  -0.277442  0  3.603296  0  0  -0.298491  0  3.618021  0  -1.267046  0  -0.343749  -0.263579  0  3.593642  0
O  O112  1  0.55462005  0.46314341  0.66538028  1  0  -0.662462  0  2.028809  0  0  -0.590585  0  2.30286  0  0  -0.620062  0  2.286565  0  -1.169869  0  -0.340474  -0.569712  0  2.312319  0
O  O113  1  0.94538384  0.03686380  0.16537708  1  0  -0.662431  0  2.028494  0  0  -0.590544  0  2.302576  0  0  -0.620022  0  2.286279  0  -1.170296  0  -0.34049  -0.569669  0  2.312036  0
O  O114  1  0.44539914  0.53686530  0.33462521  1  0  -0.662462  0  2.028636  0  0  -0.59057  0  2.302722  0  0  -0.620046  0  2.286422  0  -1.169922  0  -0.340505  -0.569696  0  2.312181  0
O  O115  1  0.05461543  0.96312778  0.83462201  1  0  -0.662345  0  2.028811  0  0  -0.590458  0  2.302874  0  0  -0.619935  0  2.286581  0  -1.169931  0  -0.340413  -0.569581  0  2.312321  0
O  O116  1  0.86611700  0.49783660  0.62239305  1  0  -0.620371  0  1.902499  0  0  -0.576541  0  2.123262  0  0  -0.598646  0  2.113783  0  -1.176032  0  -0.326629  -0.560844  0  2.128232  0
O  O117  1  0.63387128  0.00213864  0.12238618  1  0  -0.62051  0  1.902159  0  0  -0.576635  0  2.122893  0  0  -0.598741  0  2.113419  0  -1.175951  0  -0.32663  -0.560939  0  2.127865  0
O  O118  1  0.13388726  0.50215041  0.37761474  1  0  -0.620458  0  1.901944  0  0  -0.576611  0  2.122732  0  0  -0.598714  0  2.113251  0  -1.175716  0  -0.326654  -0.560917  0  2.127706  0
O  O119  1  0.36612554  0.99784495  0.87760924  1  0  -0.62048  0  1.90253  0  0  -0.576633  0  2.123309  0  0  -0.598736  0  2.113826  0  -1.176059  0  -0.326648  -0.560935  0  2.128276  0
O  O120  1  0.25216808  0.77238144  0.72992867  1  0  -0.580604  0  2.087846  0  0  -0.50637  0  2.36451  0  0  -0.53598  0  2.351564  0  -1.167245  0  -0.308928  -0.486109  0  2.373046  0
O  O121  1  0.24782261  0.72760707  0.22993096  1  0  -0.580358  0  2.087967  0  0  -0.506123  0  2.364644  0  0  -0.53573  0  2.35171  0  -1.167233  0  -0.308753  -0.485861  0  2.37317  0
O  O122  1  0.74781787  0.22761243  0.27006630  1  0  -0.580374  0  2.087884  0  0  -0.506137  0  2.364548  0  0  -0.535746  0  2.351614  0  -1.16716  0  -0.30879  -0.485874  0  2.373073  0
O  O123  1  0.75217066  0.27238108  0.77006996  1  0  -0.5806  0  2.087992  0  0  -0.506374  0  2.364649  0  0  -0.535981  0  2.351705  0  -1.167316  0  -0.308912  -0.486113  0  2.373186  0
O  O124  1  0.93033023  0.63130674  0.75823108  1  0  -0.61312  0  2.148277  0  0  -0.537515  0  2.437391  0  0  -0.566508  0  2.421559  0  -1.194746  0  -0.316307  -0.517495  0  2.447693  0
O  O125  1  0.56965454  0.86868862  0.25823154  1  0  -0.612844  0  2.148333  0  0  -0.53725  0  2.437523  0  0  -0.566253  0  2.421717  0  -1.194974  0  -0.316365  -0.517228  0  2.447811  0
O  O126  1  0.06965740  0.36869055  0.24177212  1  0  -0.612986  0  2.148413  0  0  -0.537346  0  2.437551  0  0  -0.566344  0  2.421737  0  -1.194604  0  -0.316362  -0.517324  0  2.447842  0
O  O127  1  0.43033318  0.13130296  0.74176938  1  0  -0.613105  0  2.148294  0  0  -0.537511  0  2.437456  0  0  -0.566511  0  2.421637  0  -1.194686  0  -0.316352  -0.517491  0  2.447754  0
