# generated using pymatgen
data_Cd3P2H28C14N2(ClO6)2
_symmetry_space_group_name_H-M   'P 1'
_cell_length_a   8.85957871
_cell_length_b   11.69745958
_cell_length_c   12.97797287
_cell_angle_alpha   110.78900884
_cell_angle_beta   89.99998435
_cell_angle_gamma   90.00012139
_symmetry_Int_Tables_number   1
_chemical_formula_structural   Cd3P2H28C14N2(ClO6)2
_chemical_formula_sum   'Cd6 P4 H56 C28 N4 Cl4 O24'
_cell_volume   1257.40087041
_cell_formula_units_Z   2
loop_
 _symmetry_equiv_pos_site_id
 _symmetry_equiv_pos_as_xyz
  1  'x, y, z'
loop_
 _atom_site_type_symbol
 _atom_site_label
 _atom_site_symmetry_multiplicity
 _atom_site_fract_x
 _atom_site_fract_y
 _atom_site_fract_z
 _atom_site_occupancy
 _atom_site_hle17_bader_spin_density
 _atom_site_hle17_ddec_charge
 _atom_site_hle17_ddec_spin_density
 _atom_site_hle17_ddec_sum_bond_order
 _atom_site_hle17_magmom
 _atom_site_hse06_10hf_bader_spin_density
 _atom_site_hse06_10hf_ddec_charge
 _atom_site_hse06_10hf_ddec_spin_density
 _atom_site_hse06_10hf_ddec_sum_bond_order
 _atom_site_hse06_10hf_magmom
 _atom_site_hse06_bader_spin_density
 _atom_site_hse06_ddec_charge
 _atom_site_hse06_ddec_spin_density
 _atom_site_hse06_ddec_sum_bond_order
 _atom_site_hse06_magmom
 _atom_site_pbe_bader_spin_density
 _atom_site_pbe_cm5_charge
 _atom_site_pbe_ddec_charge
 _atom_site_pbe_ddec_spin_density
 _atom_site_pbe_ddec_sum_bond_order
 _atom_site_pbe_magmom
Cd  Cd0  1  0.31831297  0.80357674  0.67197996  1  0  1.181153  0  1.719741  0  0  1.003589  0  2.183016  0  0  1.057742  0  2.125562  0  0  0.725741  0.963933  0  2.223629  0
Cd  Cd1  1  0.81831667  0.19642552  0.82802110  1  0  1.1812  0  1.719679  0  0  1.00364  0  2.182951  0  0  1.057782  0  2.125493  0  0  0.725777  0.963986  0  2.223565  0
Cd  Cd2  1  0.68168499  0.19642693  0.32802112  1  0  1.18119  0  1.719672  0  0  1.003624  0  2.182943  0  0  1.05778  0  2.125484  0  0  0.72575  0.963969  0  2.22356  0
Cd  Cd3  1  0.18168580  0.80357726  0.17198278  1  0  1.181156  0  1.719721  0  0  1.003589  0  2.182994  0  0  1.057729  0  2.125538  0  0  0.725736  0.963933  0  2.223605  0
Cd  Cd4  1  0.50000137  0.99999928  0.49999930  1  0  1.293337  0  1.657388  0  0  1.138245  0  2.118924  0  0  1.187148  0  2.062016  0  0  0.715047  1.102788  0  2.15809  0
Cd  Cd5  1  0.00000015  0.99999996  0.00000067  1  0  1.293305  0  1.657448  0  0  1.138195  0  2.118992  0  0  1.187101  0  2.062079  0  0  0.715043  1.102729  0  2.158157  0
P  P6  1  0.48136594  0.07243407  0.80281951  1  0  1.483887  0  4.925839  0  0  1.321282  0  5.429075  0  0  1.372881  0  5.390941  0  0  0.322151  1.285039  0  5.454753  0
P  P7  1  0.98136498  0.92756847  0.69718316  1  0  1.483748  0  4.925854  0  0  1.321145  0  5.429073  0  0  1.372776  0  5.390944  0  0  0.322152  1.2849  0  5.454752  0
P  P8  1  0.51863540  0.92756593  0.19717887  1  0  1.483989  0  4.925601  0  0  1.321395  0  5.428815  0  0  1.373007  0  5.390687  0  0  0.322213  1.285153  0  5.454497  0
P  P9  1  0.01863750  0.07243155  0.30281831  1  0  1.483836  0  4.925809  0  0  1.321256  0  5.429011  0  0  1.37287  0  5.390881  0  0  0.322194  1.285014  0  5.454694  0
H  H10  1  0.45907741  0.31218993  0.80921738  1  0  0.28396  0  0.88898  0  0  0.269829  0  0.944258  0  0  0.27723  0  0.939435  0  0  0.315663  0.264697  0  0.947844  0
H  H11  1  0.95907577  0.68780982  0.69078287  1  0  0.28391  0  0.888915  0  0  0.26981  0  0.944177  0  0  0.277209  0  0.939353  0  0  0.315654  0.26468  0  0.947761  0
H  H12  1  0.54092620  0.68781008  0.19078255  1  0  0.283852  0  0.888994  0  0  0.269811  0  0.944174  0  0  0.277217  0  0.939328  0  0  0.315653  0.264681  0  0.947759  0
H  H13  1  0.04092219  0.31218654  0.30921667  1  0  0.283917  0  0.888945  0  0  0.269801  0  0.944217  0  0  0.277198  0  0.939397  0  0  0.315644  0.26467  0  0.947801  0
H  H14  1  0.10237450  0.51351260  0.81048128  1  0  0.08092  0  0.926668  0  0  0.090294  0  0.990009  0  0  0.092219  0  0.989637  0  0  0.098671  0.089235  0  0.989737  0
H  H15  1  0.60237230  0.48648561  0.68951855  1  0  0.080944  0  0.92663  0  0  0.090305  0  0.989967  0  0  0.092231  0  0.989588  0  0  0.098672  0.089245  0  0.989696  0
H  H16  1  0.89762798  0.48648376  0.18951826  1  0  0.080926  0  0.92663  0  0  0.090266  0  0.989958  0  0  0.092191  0  0.989583  0  0  0.098657  0.089206  0  0.989687  0
H  H17  1  0.39762453  0.51351166  0.31048206  1  0  0.081007  0  0.926633  0  0  0.090325  0  0.989981  0  0  0.09225  0  0.989607  0  0  0.098675  0.089266  0  0.989711  0
H  H18  1  0.16989899  0.36970062  0.62908855  1  0  0.081353  0  0.950389  0  0  0.099583  0  1.013198  0  0  0.100523  0  1.013014  0  0  0.09882  0.099147  0  1.012792  0
H  H19  1  0.66989712  0.63029862  0.87091159  1  0  0.081428  0  0.950291  0  0  0.099636  0  1.013135  0  0  0.100575  0  1.012955  0  0  0.098863  0.0992  0  1.01273  0
H  H20  1  0.83010236  0.63029664  0.37091051  1  0  0.081422  0  0.95029  0  0  0.099609  0  1.01315  0  0  0.100548  0  1.012968  0  0  0.098846  0.099173  0  1.012745  0
H  H21  1  0.33009971  0.36970048  0.12908882  1  0  0.081431  0  0.950362  0  0  0.099665  0  1.013169  0  0  0.100605  0  1.012988  0  0  0.098853  0.099228  0  1.012764  0
H  H22  1  0.36501551  0.38827995  0.65810602  1  0  0.082854  0  0.955064  0  0  0.09798  0  1.021164  0  0  0.099276  0  1.020979  0  0  0.086179  0.097163  0  1.02119  0
H  H23  1  0.86501699  0.61171872  0.84189313  1  0  0.082838  0  0.955076  0  0  0.097981  0  1.021169  0  0  0.099277  0  1.020984  0  0  0.086178  0.097162  0  1.021198  0
H  H24  1  0.63498584  0.61171823  0.34189179  1  0  0.082867  0  0.955114  0  0  0.098012  0  1.021184  0  0  0.099309  0  1.021  0  0  0.086198  0.097194  0  1.021214  0
H  H25  1  0.13498323  0.38827946  0.15810621  1  0  0.082838  0  0.955065  0  0  0.097979  0  1.021165  0  0  0.099276  0  1.02098  0  0  0.086158  0.09716  0  1.021194  0
H  H26  1  0.13070735  0.27155684  0.76452262  1  0  0.084781  0  0.936678  0  0  0.097458  0  1.004344  0  0  0.098722  0  1.003355  0  0  0.110496  0.096772  0  1.004505  0
H  H27  1  0.63070242  0.72844324  0.73547624  1  0  0.084781  0  0.936681  0  0  0.097399  0  1.004384  0  0  0.098664  0  1.003395  0  0  0.110487  0.096718  0  1.004537  0
H  H28  1  0.86929965  0.72844042  0.23547489  1  0  0.084854  0  0.936666  0  0  0.097432  0  1.004406  0  0  0.098697  0  1.00342  0  0  0.110479  0.096751  0  1.004554  0
H  H29  1  0.36929554  0.27155677  0.26452368  1  0  0.084821  0  0.936677  0  0  0.097462  0  1.004361  0  0  0.098728  0  1.003371  0  0  0.110496  0.09678  0  1.004518  0
H  H30  1  0.27779100  0.19492517  0.67178010  1  0  0.104535  0  0.936462  0  0  0.118115  0  0.996249  0  0  0.119522  0  0.995785  0  0  0.115128  0.116862  0  0.996831  0
H  H31  1  0.77778851  0.80507610  0.82822143  1  0  0.104569  0  0.936366  0  0  0.11811  0  0.996172  0  0  0.11952  0  0.995704  0  0  0.115142  0.11686  0  0.996756  0
H  H32  1  0.72221599  0.80507484  0.32822060  1  0  0.104526  0  0.936428  0  0  0.118124  0  0.996166  0  0  0.119533  0  0.995699  0  0  0.115111  0.116871  0  0.996748  0
H  H33  1  0.22221171  0.19492301  0.17177975  1  0  0.104603  0  0.936391  0  0  0.118154  0  0.996186  0  0  0.119562  0  0.995721  0  0  0.115156  0.116902  0  0.99677  0
H  H34  1  0.38857757  0.42733584  0.99193272  1  0  0.080738  0  0.936549  0  0  0.095364  0  1.000782  0  0  0.096175  0  1.000961  0  0  0.112423  0.094829  0  1.000422  0
H  H35  1  0.88857568  0.57266653  0.50806837  1  0  0.080807  0  0.936475  0  0  0.095407  0  1.000759  0  0  0.096218  0  1.000934  0  0  0.11243  0.09487  0  1.000403  0
H  H36  1  0.61142378  0.57266599  0.00806624  1  0  0.080795  0  0.936492  0  0  0.095387  0  1.000781  0  0  0.096198  0  1.000957  0  0  0.112434  0.094851  0  1.00042  0
H  H37  1  0.11142115  0.42733349  0.49193233  1  0  0.080762  0  0.936517  0  0  0.095334  0  1.000813  0  0  0.096145  0  1.000991  0  0  0.112401  0.094799  0  1.000453  0
H  H38  1  0.19492725  0.40674667  0.95233152  1  0  0.083108  0  0.914428  0  0  0.099808  0  0.974005  0  0  0.100602  0  0.974128  0  0  0.109869  0.098916  0  0.974571  0
H  H39  1  0.69492541  0.59325627  0.54766824  1  0  0.083084  0  0.914428  0  0  0.099804  0  0.973995  0  0  0.100599  0  0.974117  0  0  0.10986  0.098905  0  0.97457  0
H  H40  1  0.80507635  0.59325516  0.04766744  1  0  0.08307  0  0.914428  0  0  0.099777  0  0.973997  0  0  0.100573  0  0.97412  0  0  0.109846  0.098882  0  0.974564  0
H  H41  1  0.30507142  0.40674648  0.45233178  1  0  0.083098  0  0.91444  0  0  0.099796  0  0.973994  0  0  0.100592  0  0.974116  0  0  0.109866  0.098901  0  0.974568  0
H  H42  1  0.44029691  0.53514219  0.86383380  1  0  0.082179  0  0.958578  0  0  0.09385  0  1.030701  0  0  0.095946  0  1.029189  0  0  0.094367  0.092837  0  1.030677  0
H  H43  1  0.94029354  0.46485843  0.63616364  1  0  0.082235  0  0.958576  0  0  0.093885  0  1.030685  0  0  0.095982  0  1.029174  0  0  0.094385  0.092872  0  1.03066  0
H  H44  1  0.55970670  0.46485872  0.13616332  1  0  0.082209  0  0.958594  0  0  0.093863  0  1.03073  0  0  0.09596  0  1.029219  0  0  0.094376  0.092851  0  1.030704  0
H  H45  1  0.05970216  0.53514157  0.36383397  1  0  0.082189  0  0.958528  0  0  0.093859  0  1.030662  0  0  0.095956  0  1.029149  0  0  0.094379  0.092848  0  1.030637  0
H  H46  1  0.29327420  0.60973682  0.95490694  1  0  0.087354  0  0.945879  0  0  0.101664  0  1.01312  0  0  0.102776  0  1.012415  0  0  0.091882  0.100751  0  1.013738  0
H  H47  1  0.79327066  0.39026446  0.54509228  1  0  0.087401  0  0.9459  0  0  0.101688  0  1.013126  0  0  0.102797  0  1.012432  0  0  0.091896  0.100777  0  1.013744  0
H  H48  1  0.70672827  0.39026318  0.04509144  1  0  0.087386  0  0.945879  0  0  0.101686  0  1.013115  0  0  0.102795  0  1.012423  0  0  0.09189  0.100774  0  1.01373  0
H  H49  1  0.20672278  0.60973554  0.45490610  1  0  0.08736  0  0.945884  0  0  0.101679  0  1.013119  0  0  0.102789  0  1.01242  0  0  0.091901  0.100767  0  1.013738  0
H  H50  1  0.22742734  0.15588599  0.85571866  1  0  0.130855  0  0.947699  0  0  0.140055  0  1.01412  0  0  0.142047  0  1.013825  0  0  0.115197  0.138549  0  1.01474  0
H  H51  1  0.72742503  0.84411520  0.64428362  1  0  0.130828  0  0.947745  0  0  0.140036  0  1.014145  0  0  0.142038  0  1.013853  0  0  0.115181  0.138528  0  1.014767  0
H  H52  1  0.77257626  0.84411494  0.14428232  1  0  0.130893  0  0.947662  0  0  0.140084  0  1.014089  0  0  0.142082  0  1.013796  0  0  0.115184  0.138577  0  1.01471  0
H  H53  1  0.27257631  0.15588574  0.35571891  1  0  0.130851  0  0.947712  0  0  0.140057  0  1.014118  0  0  0.14205  0  1.013824  0  0  0.115175  0.138549  0  1.01474  0
H  H54  1  0.36227243  0.22515056  0.95931272  1  0  0.134183  0  0.928138  0  0  0.148709  0  0.982851  0  0  0.151199  0  0.981834  0  0  0.121909  0.146626  0  0.984141  0
H  H55  1  0.86226771  0.77485086  0.54068807  1  0  0.134165  0  0.928157  0  0  0.148658  0  0.982899  0  0  0.151159  0  0.981886  0  0  0.121882  0.146577  0  0.984186  0
H  H56  1  0.63773343  0.77484946  0.04068798  1  0  0.13422  0  0.928147  0  0  0.148726  0  0.982884  0  0  0.151223  0  0.98187  0  0  0.121908  0.146646  0  0.98417  0
H  H57  1  0.13773251  0.22514916  0.45931340  1  0  0.134179  0  0.928142  0  0  0.148679  0  0.982892  0  0  0.151171  0  0.981877  0  0  0.121886  0.146598  0  0.984179  0
H  H58  1  0.19270567  0.97102524  0.55045260  1  0  0.437302  0  0.86375  0  0  0.405301  0  0.928097  0  0  0.416458  0  0.911997  0  0  0.285195  0.397409  0  0.939412  0
H  H59  1  0.69270322  0.02898046  0.94955111  1  0  0.437312  0  0.863732  0  0  0.405302  0  0.928095  0  0  0.416452  0  0.912005  0  0  0.285173  0.397408  0  0.939413  0
H  H60  1  0.80729454  0.02897660  0.44954867  1  0  0.437372  0  0.863676  0  0  0.405369  0  0.92802  0  0  0.416524  0  0.911924  0  0  0.28521  0.397477  0  0.939335  0
H  H61  1  0.30729587  0.97102322  0.05045151  1  0  0.437289  0  0.863762  0  0  0.405281  0  0.928117  0  0  0.416433  0  0.912028  0  0  0.285172  0.397389  0  0.939433  0
H  H62  1  0.19018980  0.98559922  0.43288073  1  0  0.433106  0  0.865578  0  0  0.40474  0  0.923639  0  0  0.415471  0  0.908154  0  0  0.288937  0.39722  0  0.934374  0
H  H63  1  0.69018971  0.01440499  0.06712471  1  0  0.43305  0  0.865631  0  0  0.40468  0  0.9237  0  0  0.41541  0  0.908216  0  0  0.288929  0.397161  0  0.934434  0
H  H64  1  0.80980816  0.01440079  0.56711919  1  0  0.433099  0  0.865586  0  0  0.404729  0  0.923653  0  0  0.415461  0  0.908167  0  0  0.288941  0.397211  0  0.934386  0
H  H65  1  0.30981164  0.98559961  0.93287974  1  0  0.433073  0  0.865618  0  0  0.404702  0  0.923685  0  0  0.415435  0  0.908199  0  0  0.288925  0.397184  0  0.934419  0
C  C66  1  0.24803169  0.61186677  0.74018854  1  0  0.668166  0  3.838319  0  0  0.620279  0  4.131875  0  0  0.653643  0  4.126925  0  0  0.204897  0.597373  0  4.134541  0
C  C67  1  0.74803257  0.38813260  0.75981008  1  0  0.668182  0  3.838382  0  0  0.620266  0  4.131924  0  0  0.653628  0  4.126977  0  0  0.204927  0.597359  0  4.134592  0
C  C68  1  0.75195837  0.38812956  0.25980714  1  0  0.668227  0  3.838056  0  0  0.620273  0  4.131598  0  0  0.653633  0  4.126655  0  0  0.204948  0.597367  0  4.134267  0
C  C69  1  0.25196877  0.61186558  0.24018926  1  0  0.668236  0  3.838296  0  0  0.620304  0  4.131841  0  0  0.653672  0  4.126887  0  0  0.204915  0.597389  0  4.134525  0
C  C70  1  0.22189937  0.51108069  0.78664344  1  0  -0.112403  0  3.64721  0  0  -0.113522  0  3.888992  0  0  -0.119877  0  3.903624  0  0  -0.090729  -0.109571  0  3.879198  0
C  C71  1  0.72189830  0.48891591  0.71335508  1  0  -0.112466  0  3.64725  0  0  -0.113529  0  3.888922  0  0  -0.119874  0  3.903537  0  0  -0.090764  -0.10958  0  3.879133  0
C  C72  1  0.77810198  0.48891475  0.21335350  1  0  -0.112458  0  3.64715  0  0  -0.113406  0  3.888677  0  0  -0.119752  0  3.903295  0  0  -0.090751  -0.109458  0  3.87889  0
C  C73  1  0.27809966  0.51108137  0.28664475  1  0  -0.112644  0  3.647292  0  0  -0.113597  0  3.888907  0  0  -0.119947  0  3.903526  0  0  -0.090761  -0.109646  0  3.879123  0
C  C74  1  0.25361404  0.38713972  0.69513068  1  0  -0.136875  0  3.648777  0  0  -0.186075  0  3.9081  0  0  -0.186655  0  3.920612  0  0  -0.161641  -0.185608  0  3.899048  0
C  C75  1  0.75361441  0.61285877  0.80486998  1  0  -0.136921  0  3.648667  0  0  -0.186171  0  3.90796  0  0  -0.186753  0  3.920472  0  0  -0.161667  -0.185704  0  3.898913  0
C  C76  1  0.74638505  0.61285847  0.30486867  1  0  -0.136967  0  3.648705  0  0  -0.186203  0  3.907927  0  0  -0.186785  0  3.920441  0  0  -0.161685  -0.185736  0  3.898876  0
C  C77  1  0.24638468  0.38713941  0.19512937  1  0  -0.136914  0  3.648661  0  0  -0.186199  0  3.90798  0  0  -0.186781  0  3.920492  0  0  -0.161661  -0.185731  0  3.898931  0
C  C78  1  0.24503673  0.28106951  0.73612955  1  0  0.002791  0  3.504496  0  0  -0.052703  0  3.751629  0  0  -0.049231  0  3.761851  0  0  -0.061292  -0.054635  0  3.74404  0
C  C79  1  0.74503177  0.71893079  0.76387168  1  0  0.002805  0  3.504338  0  0  -0.05256  0  3.751404  0  0  -0.049087  0  3.761619  0  0  -0.061279  -0.054488  0  3.743803  0
C  C80  1  0.75497026  0.71892959  0.26387009  1  0  0.00271  0  3.504484  0  0  -0.052668  0  3.751512  0  0  -0.049199  0  3.761735  0  0  -0.061247  -0.054604  0  3.743936  0
C  C81  1  0.25496507  0.28106831  0.23612873  1  0  0.002715  0  3.50439  0  0  -0.052688  0  3.751487  0  0  -0.049217  0  3.761706  0  0  -0.061288  -0.054608  0  3.743872  0
C  C82  1  0.30939322  0.41808511  0.92461649  1  0  0.007635  0  3.525609  0  0  -0.053257  0  3.784074  0  0  -0.049679  0  3.79494  0  0  -0.059648  -0.055401  0  3.776662  0
C  C83  1  0.80939133  0.58191712  0.57538302  1  0  0.007612  0  3.525429  0  0  -0.053309  0  3.783925  0  0  -0.049732  0  3.79479  0  0  -0.059648  -0.055444  0  3.776499  0
C  C84  1  0.69061039  0.58191764  0.07538275  1  0  0.007654  0  3.525422  0  0  -0.053229  0  3.783919  0  0  -0.049649  0  3.794778  0  0  -0.059625  -0.055372  0  3.77651  0
C  C85  1  0.19060437  0.41808472  0.42461748  1  0  0.007605  0  3.525486  0  0  -0.05322  0  3.783945  0  0  -0.049642  0  3.794806  0  0  -0.059622  -0.05536  0  3.776528  0
C  C86  1  0.32257910  0.52593293  0.88616907  1  0  -0.146358  0  3.678815  0  0  -0.193874  0  3.936258  0  0  -0.19425  0  3.948445  0  0  -0.168566  -0.193682  0  3.927655  0
C  C87  1  0.82257690  0.47406841  0.61383016  1  0  -0.146492  0  3.67893  0  0  -0.193905  0  3.936212  0  0  -0.194288  0  3.948399  0  0  -0.168577  -0.193711  0  3.927608  0
C  C88  1  0.67742224  0.47406890  0.11382988  1  0  -0.146416  0  3.678821  0  0  -0.19393  0  3.936163  0  0  -0.194313  0  3.948355  0  0  -0.168561  -0.19373  0  3.92755  0
C  C89  1  0.17741993  0.52593160  0.38616900  1  0  -0.146317  0  3.678828  0  0  -0.193872  0  3.93622  0  0  -0.194252  0  3.94841  0  0  -0.168573  -0.193679  0  3.927618  0
C  C90  1  0.34221389  0.19317120  0.87025617  1  0  -0.332579  0  3.510151  0  0  -0.371845  0  3.756772  0  0  -0.376643  0  3.763005  0  0  -0.075863  -0.368586  0  3.753334  0
C  C91  1  0.84221261  0.80683201  0.62974518  1  0  -0.332505  0  3.510159  0  0  -0.371707  0  3.75672  0  0  -0.376563  0  3.763017  0  0  -0.075796  -0.368446  0  3.753281  0
C  C92  1  0.65779085  0.80682972  0.12974327  1  0  -0.332659  0  3.510067  0  0  -0.371926  0  3.756759  0  0  -0.376767  0  3.763044  0  0  -0.07586  -0.368666  0  3.753324  0
C  C93  1  0.15778987  0.19316893  0.37025580  1  0  -0.332557  0  3.510089  0  0  -0.371791  0  3.756703  0  0  -0.376602  0  3.762952  0  0  -0.075813  -0.368531  0  3.753266  0
N  N94  1  0.34816466  0.30057635  0.83287955  1  0  -0.061854  0  3.358994  0  0  0.023968  0  3.562713  0  0  0.011759  0  3.581723  0  0  -0.345132  0.031906  0  3.549807  0
N  N95  1  0.84816194  0.69942686  0.66712181  1  0  -0.061817  0  3.35884  0  0  0.023924  0  3.562592  0  0  0.011728  0  3.581617  0  0  -0.345159  0.031859  0  3.54969  0
N  N96  1  0.65183668  0.69942548  0.16712018  1  0  -0.061721  0  3.358882  0  0  0.024013  0  3.562606  0  0  0.011815  0  3.581632  0  0  -0.345133  0.031946  0  3.5497  0
N  N97  1  0.15183602  0.30057498  0.33287869  1  0  -0.061753  0  3.358812  0  0  0.024006  0  3.562551  0  0  0.0118  0  3.581568  0  0  -0.345131  0.03194  0  3.549649  0
Cl  Cl98  1  0.47524140  0.76512945  0.50301646  1  0  -0.599867  0  0.932706  0  0  -0.529627  0  1.219572  0  0  -0.549507  0  1.192805  0  0  -0.277394  -0.516153  0  1.238825  0
Cl  Cl99  1  0.97524176  0.23487490  0.99698446  1  0  -0.599879  0  0.932692  0  0  -0.529643  0  1.219561  0  0  -0.549522  0  1.192796  0  0  -0.27741  -0.516166  0  1.238809  0
Cl  Cl100  1  0.52475430  0.23487146  0.49698067  1  0  -0.599862  0  0.932693  0  0  -0.529626  0  1.219561  0  0  -0.549515  0  1.192808  0  0  -0.277396  -0.516158  0  1.238824  0
Cl  Cl101  1  0.02475733  0.76512788  0.00301941  1  0  -0.599864  0  0.932713  0  0  -0.529619  0  1.219572  0  0  -0.549497  0  1.192802  0  0  -0.277388  -0.516146  0  1.238829  0
O  O102  1  0.62490553  0.10697165  0.87515983  1  0  -0.87302  0  2.025565  0  0  -0.770902  0  2.290875  0  0  -0.801221  0  2.268039  0  0  -0.38945  -0.749136  0  2.306426  0
O  O103  1  0.12490323  0.89303208  0.62484097  1  0  -0.872945  0  2.025595  0  0  -0.770848  0  2.29091  0  0  -0.801207  0  2.268094  0  0  -0.389439  -0.749081  0  2.306461  0
O  O104  1  0.37509807  0.89302653  0.12483952  1  0  -0.873025  0  2.025574  0  0  -0.770898  0  2.290879  0  0  -0.801223  0  2.268043  0  0  -0.389434  -0.749132  0  2.306428  0
O  O105  1  0.87509586  0.10696883  0.37515770  1  0  -0.873026  0  2.025573  0  0  -0.77091  0  2.290867  0  0  -0.801265  0  2.268052  0  0  -0.389467  -0.749145  0  2.306422  0
O  O106  1  0.50598000  0.07217723  0.68699007  1  0  -0.907955  0  2.013514  0  0  -0.823782  0  2.304113  0  0  -0.853018  0  2.281976  0  0  -0.400218  -0.802693  0  2.318699  0
O  O107  1  0.00597998  0.92782905  0.81301309  1  0  -0.907881  0  2.013619  0  0  -0.823713  0  2.304236  0  0  -0.852946  0  2.282086  0  0  -0.400185  -0.802622  0  2.31882  0
O  O108  1  0.49402360  0.92782644  0.31301178  1  0  -0.907984  0  2.013401  0  0  -0.823813  0  2.304008  0  0  -0.853049  0  2.281866  0  0  -0.400238  -0.80272  0  2.31859  0
O  O109  1  0.99402814  0.07217097  0.18698838  1  0  -0.907901  0  2.013635  0  0  -0.823715  0  2.304216  0  0  -0.852948  0  2.282072  0  0  -0.400162  -0.802621  0  2.318797  0
O  O110  1  0.41026448  0.95657269  0.81285611  1  0  -0.859803  0  2.008495  0  0  -0.758002  0  2.270014  0  0  -0.787758  0  2.247127  0  0  -0.384663  -0.736314  0  2.284938  0
O  O111  1  0.91025991  0.04343063  0.68714451  1  0  -0.859795  0  2.008314  0  0  -0.757995  0  2.269822  0  0  -0.787754  0  2.246935  0  0  -0.384693  -0.736307  0  2.284745  0
O  O112  1  0.58973574  0.04342730  0.18714150  1  0  -0.859861  0  2.008471  0  0  -0.758065  0  2.269991  0  0  -0.787819  0  2.247102  0  0  -0.384685  -0.736379  0  2.284919  0
O  O113  1  0.08973466  0.95657215  0.31286092  1  0  -0.859806  0  2.008374  0  0  -0.758056  0  2.269937  0  0  -0.787809  0  2.24705  0  0  -0.384734  -0.736369  0  2.284862  0
O  O114  1  0.37625343  0.66458271  0.75470637  1  0  -0.624261  0  1.958743  0  0  -0.553655  0  2.19574  0  0  -0.583466  0  2.186976  0  0  -0.320419  -0.532367  0  2.199911  0
O  O115  1  0.87625192  0.33541507  0.74529404  1  0  -0.624194  0  1.958758  0  0  -0.553598  0  2.195784  0  0  -0.583406  0  2.187023  0  0  -0.320392  -0.532309  0  2.199954  0
O  O116  1  0.62373437  0.33542096  0.24529471  1  0  -0.624159  0  1.958489  0  0  -0.553582  0  2.195524  0  0  -0.583388  0  2.186766  0  0  -0.320359  -0.532295  0  2.199692  0
O  O117  1  0.12374830  0.66458492  0.25470356  1  0  -0.624239  0  1.958695  0  0  -0.553629  0  2.195716  0  0  -0.58344  0  2.186953  0  0  -0.320417  -0.532338  0  2.199892  0
O  O118  1  0.14444442  0.63770153  0.68327266  1  0  -0.663298  0  1.9794  0  0  -0.601344  0  2.21909  0  0  -0.62932  0  2.209918  0  0  -0.330539  -0.582226  0  2.22477  0
O  O119  1  0.64444521  0.36229769  0.81672979  1  0  -0.663366  0  1.979436  0  0  -0.601411  0  2.219146  0  0  -0.629389  0  2.209976  0  0  -0.330599  -0.582293  0  2.224829  0
O  O120  1  0.85555015  0.36229025  0.31672544  1  0  -0.663456  0  1.979356  0  0  -0.601461  0  2.21905  0  0  -0.629439  0  2.20988  0  0  -0.330644  -0.582341  0  2.224733  0
O  O121  1  0.35555840  0.63770142  0.18327062  1  0  -0.66333  0  1.979372  0  0  -0.601378  0  2.219049  0  0  -0.62936  0  2.209877  0  0  -0.330546  -0.582256  0  2.224734  0
O  O122  1  0.24198321  0.01537266  0.50592797  1  0  -0.859307  0  1.848163  0  0  -0.79243  0  2.04242  0  0  -0.817136  0  2.009636  0  0  -0.58952  -0.774319  0  2.064592  0
O  O123  1  0.74198229  0.98463223  0.99407778  1  0  -0.859268  0  1.848196  0  0  -0.792354  0  2.0424  0  0  -0.817083  0  2.009669  0  0  -0.589498  -0.774245  0  2.064576  0
O  O124  1  0.75801814  0.98462919  0.49407330  1  0  -0.859355  0  1.848138  0  0  -0.792484  0  2.042424  0  0  -0.817189  0  2.009635  0  0  -0.589535  -0.774373  0  2.064599  0
O  O125  1  0.25801906  0.01537055  0.00592610  1  0  -0.859247  0  1.848197  0  0  -0.792369  0  2.042473  0  0  -0.817077  0  2.00969  0  0  -0.589485  -0.774259  0  2.064639  0
