# generated using pymatgen
data_Zn2H11C12N11O6
_symmetry_space_group_name_H-M   'P 1'
_cell_length_a   9.57019779
_cell_length_b   9.67923385
_cell_length_c   10.72075307
_cell_angle_alpha   99.02981168
_cell_angle_beta   116.50764356
_cell_angle_gamma   89.98856374
_symmetry_Int_Tables_number   1
_chemical_formula_structural   Zn2H11C12N11O6
_chemical_formula_sum   'Zn4 H22 C24 N22 O12'
_cell_volume   874.92921125
_cell_formula_units_Z   2
loop_
 _symmetry_equiv_pos_site_id
 _symmetry_equiv_pos_as_xyz
  1  'x, y, z'
loop_
 _atom_site_type_symbol
 _atom_site_label
 _atom_site_symmetry_multiplicity
 _atom_site_fract_x
 _atom_site_fract_y
 _atom_site_fract_z
 _atom_site_occupancy
 _atom_site_hle17_bader_spin_density
 _atom_site_hle17_ddec_charge
 _atom_site_hle17_ddec_spin_density
 _atom_site_hle17_ddec_sum_bond_order
 _atom_site_hle17_magmom
 _atom_site_hse06_10hf_bader_spin_density
 _atom_site_hse06_10hf_ddec_charge
 _atom_site_hse06_10hf_ddec_spin_density
 _atom_site_hse06_10hf_ddec_sum_bond_order
 _atom_site_hse06_10hf_magmom
 _atom_site_hse06_bader_spin_density
 _atom_site_hse06_ddec_charge
 _atom_site_hse06_ddec_spin_density
 _atom_site_hse06_ddec_sum_bond_order
 _atom_site_hse06_magmom
 _atom_site_pbe_bader_spin_density
 _atom_site_pbe_cm5_charge
 _atom_site_pbe_ddec_charge
 _atom_site_pbe_ddec_spin_density
 _atom_site_pbe_ddec_sum_bond_order
 _atom_site_pbe_magmom
Zn  Zn0  1  0.49535060  0.90624507  0.62409865  1  0  0.962695  0  1.967446  0  0  0.770654  0  2.456204  0  0  0.811517  0  2.405643  0  0  0.727564  0.742105  0  2.490563  0
Zn  Zn1  1  0.87123466  0.59377096  0.37594269  1  0  0.962866  0  1.967914  0  0  0.770521  0  2.457219  0  0  0.811398  0  2.406665  0  0  0.727739  0.741984  0  2.49158  0
Zn  Zn2  1  0.50464692  0.09375745  0.37590107  1  0  0.962676  0  1.967502  0  0  0.770653  0  2.456291  0  0  0.811517  0  2.405733  0  0  0.727584  0.7421  0  2.490656  0
Zn  Zn3  1  0.12876646  0.40623264  0.62405951  1  0  0.962861  0  1.967826  0  0  0.770554  0  2.457093  0  0  0.811432  0  2.406541  0  0  0.727747  0.74202  0  2.491454  0
H  H4  1  0.24858785  0.43877966  0.40746226  1  0  0.355426  0  0.903756  0  0  0.337272  0  0.96839  0  0  0.345203  0  0.960916  0  0  0.30305  0.331681  0  0.97367  0
H  H5  1  0.84100359  0.06106710  0.59245370  1  0  0.356242  0  0.901918  0  0  0.337713  0  0.967081  0  0  0.345654  0  0.959593  0  0  0.303069  0.332123  0  0.972369  0
H  H6  1  0.75141294  0.56121974  0.59254018  1  0  0.355435  0  0.903765  0  0  0.337313  0  0.968369  0  0  0.345247  0  0.960891  0  0  0.303043  0.331723  0  0.973649  0
H  H7  1  0.15898815  0.93893545  0.40754843  1  0  0.356173  0  0.902045  0  0  0.337753  0  0.967068  0  0  0.345693  0  0.959577  0  0  0.303027  0.332166  0  0.972358  0
H  H8  1  0.41218055  0.38787503  0.39240017  1  0  0.325564  0  0.914254  0  0  0.308211  0  0.98138  0  0  0.314979  0  0.976026  0  0  0.300007  0.30356  0  0.984763  0
H  H9  1  0.01968417  0.11210731  0.60761592  1  0  0.325972  0  0.913408  0  0  0.308689  0  0.980128  0  0  0.315422  0  0.974842  0  0  0.300379  0.304043  0  0.983513  0
H  H10  1  0.58781912  0.61212539  0.60759916  1  0  0.325578  0  0.914246  0  0  0.308224  0  0.981374  0  0  0.314993  0  0.97602  0  0  0.300009  0.303575  0  0.984757  0
H  H11  1  0.98031082  0.88789211  0.39238799  1  0  0.325996  0  0.913298  0  0  0.308697  0  0.980043  0  0  0.315429  0  0.974759  0  0  0.300367  0.304052  0  0.98343  0
H  H12  1  0.25336368  0.19882237  0.80903995  1  0  0.336096  0  0.905505  0  0  0.319008  0  0.971523  0  0  0.326909  0  0.963694  0  0  0.302758  0.313337  0  0.977208  0
H  H13  1  0.44436561  0.30121514  0.19098716  1  0  0.336349  0  0.905703  0  0  0.319327  0  0.971599  0  0  0.327184  0  0.963817  0  0  0.302841  0.313688  0  0.977255  0
H  H14  1  0.74663630  0.80118124  0.19096367  1  0  0.336118  0  0.905549  0  0  0.319078  0  0.971505  0  0  0.326978  0  0.963678  0  0  0.302794  0.313406  0  0.977192  0
H  H15  1  0.55563746  0.69878424  0.80901243  1  0  0.336333  0  0.905778  0  0  0.319303  0  0.971677  0  0  0.327158  0  0.963898  0  0  0.302824  0.313664  0  0.977332  0
H  H16  1  0.33944849  0.04396530  0.80522680  1  0  0.340301  0  0.871941  0  0  0.327125  0  0.93087  0  0  0.333297  0  0.925688  0  0  0.313052  0.322789  0  0.934443  0
H  H17  1  0.53413936  0.45613174  0.19483342  1  0  0.340812  0  0.871524  0  0  0.327658  0  0.930374  0  0  0.333771  0  0.92532  0  0  0.312839  0.323352  0  0.933923  0
H  H18  1  0.66055374  0.95603727  0.19477756  1  0  0.340262  0  0.87204  0  0  0.327091  0  0.930974  0  0  0.333265  0  0.925788  0  0  0.313042  0.322757  0  0.934551  0
H  H19  1  0.46586011  0.54386656  0.80516369  1  0  0.340829  0  0.871512  0  0  0.327671  0  0.930375  0  0  0.333786  0  0.925317  0  0  0.312847  0.323364  0  0.933924  0
H  H20  1  0.10861189  0.88196020  0.83968425  1  0  0.127811  0  0.92796  0  0  0.134017  0  0.991575  0  0  0.138613  0  0.987411  0  0  0.116956  0.130611  0  0.994568  0
H  H21  1  0.26888527  0.61786103  0.16032221  1  0  0.127637  0  0.927797  0  0  0.133583  0  0.991763  0  0  0.138254  0  0.987522  0  0  0.116884  0.130146  0  0.994788  0
H  H22  1  0.89138244  0.11802014  0.16029818  1  0  0.1277  0  0.928052  0  0  0.133935  0  0.991644  0  0  0.138541  0  0.987469  0  0  0.116877  0.13053  0  0.994642  0
H  H23  1  0.73111314  0.38213833  0.83967650  1  0  0.127673  0  0.927698  0  0  0.133594  0  0.99168  0  0  0.138263  0  0.987446  0  0  0.116895  0.130158  0  0.994704  0
H  H24  1  0.80119970  0.74992557  0.99992364  1  0  0.105363  0  0.949301  0  0  0.116308  0  1.00901  0  0  0.120169  0  1.005113  0  0  0.110581  0.113446  0  1.012035  0
H  H25  1  0.19880119  0.25007588  0.00007445  1  0  0.105313  0  0.949298  0  0  0.116252  0  1.009018  0  0  0.120112  0  1.005122  0  0  0.110554  0.113389  0  1.01205  0
C  C26  1  0.36419414  0.28787158  0.52471903  1  0  0.621078  0  3.84873  0  0  0.569122  0  4.125052  0  0  0.595344  0  4.132849  0  0  0.327298  0.551504  0  4.119522  0
C  C27  1  0.83938576  0.21226919  0.47549779  1  0  0.621386  0  3.849883  0  0  0.569272  0  4.126406  0  0  0.595427  0  4.13424  0  0  0.327647  0.551724  0  4.120788  0
C  C28  1  0.63581075  0.71213517  0.47528506  1  0  0.621141  0  3.848707  0  0  0.569198  0  4.124981  0  0  0.595436  0  4.132754  0  0  0.327343  0.551576  0  4.119451  0
C  C29  1  0.16061085  0.78773549  0.52450746  1  0  0.621422  0  3.850125  0  0  0.569246  0  4.126721  0  0  0.595399  0  4.134555  0  0  0.327585  0.551698  0  4.1211  0
C  C30  1  0.33725113  0.16535391  0.66583553  1  0  0.607323  0  3.857446  0  0  0.549904  0  4.147792  0  0  0.575573  0  4.156506  0  0  0.321047  0.532526  0  4.141416  0
C  C31  1  0.67136083  0.33479695  0.33430582  1  0  0.608626  0  3.856418  0  0  0.549915  0  4.148706  0  0  0.575572  0  4.157406  0  0  0.32108  0.532516  0  4.142364  0
C  C32  1  0.66275489  0.83465184  0.33417260  1  0  0.607463  0  3.857014  0  0  0.550076  0  4.147291  0  0  0.575744  0  4.156005  0  0  0.32109  0.532699  0  4.140918  0
C  C33  1  0.32863913  0.66520665  0.66569686  1  0  0.608636  0  3.856397  0  0  0.54993  0  4.148653  0  0  0.575592  0  4.15735  0  0  0.321093  0.532519  0  4.142328  0
C  C34  1  0.94020467  0.82248972  0.90832324  1  0  -0.051976  0  3.736636  0  0  -0.024828  0  3.973472  0  0  -0.035408  0  3.997233  0  0  -0.009386  -0.018964  0  3.959167  0
C  C35  1  0.03187088  0.67733384  0.09162002  1  0  -0.051277  0  3.737921  0  0  -0.024458  0  3.974021  0  0  -0.034984  0  3.997767  0  0  -0.009178  -0.01863  0  3.959732  0
C  C36  1  0.05979233  0.17749383  0.09166533  1  0  -0.051972  0  3.736576  0  0  -0.024807  0  3.973398  0  0  -0.03539  0  3.997168  0  0  -0.009478  -0.018918  0  3.959049  0
C  C37  1  0.96812489  0.32266234  0.90837443  1  0  -0.051366  0  3.737992  0  0  -0.024486  0  3.974023  0  0  -0.035  0  3.997747  0  0  -0.009217  -0.018654  0  3.959723  0
C  C38  1  0.08669882  0.82503790  0.90979395  1  0  -0.061763  0  3.646022  0  0  -0.104052  0  3.903735  0  0  -0.099187  0  3.918942  0  0  -0.059695  -0.105757  0  3.893246  0
C  C39  1  0.17690682  0.67484274  0.09025060  1  0  -0.061723  0  3.647225  0  0  -0.103718  0  3.904693  0  0  -0.098932  0  3.919868  0  0  -0.059674  -0.10538  0  3.894224  0
C  C40  1  0.91329569  0.17494454  0.09018884  1  0  -0.061631  0  3.645946  0  0  -0.103847  0  3.903609  0  0  -0.098991  0  3.918832  0  0  -0.059473  -0.105559  0  3.893132  0
C  C41  1  0.82308986  0.32515030  0.90974379  1  0  -0.061737  0  3.64711  0  0  -0.10365  0  3.904615  0  0  -0.098868  0  3.919787  0  0  -0.059667  -0.105312  0  3.894149  0
C  C42  1  0.20156375  0.74997167  0.00005888  1  0  0.072069  0  3.707065  0  0  0.05874  0  3.965681  0  0  0.053547  0  3.988039  0  0  0.079461  0.061647  0  3.950021  0
C  C43  1  0.79843279  0.25002028  0.99993157  1  0  0.07201  0  3.70702  0  0  0.058519  0  3.965966  0  0  0.053321  0  3.988325  0  0  0.079325  0.061423  0  3.950313  0
C  C44  1  0.91474029  0.74991094  0.99995615  1  0  -0.015204  0  3.634703  0  0  -0.059706  0  3.883839  0  0  -0.05381  0  3.899518  0  0  -0.059172  -0.064187  0  3.874198  0
C  C45  1  0.08525754  0.25008209  0.00003775  1  0  -0.015055  0  3.634571  0  0  -0.059568  0  3.883671  0  0  -0.05367  0  3.899345  0  0  -0.059054  -0.064055  0  3.874041  0
C  C46  1  0.80987531  0.89429748  0.80643745  1  0  0.641346  0  3.930625  0  0  0.589624  0  4.224995  0  0  0.622373  0  4.220544  0  0  0.20499  0.567171  0  4.228058  0
C  C47  1  0.00341684  0.60528587  0.19339505  1  0  0.640268  0  3.930896  0  0  0.590107  0  4.223132  0  0  0.622804  0  4.218713  0  0  0.204839  0.56768  0  4.22616  0
C  C48  1  0.19012333  0.10569135  0.19355527  1  0  0.64112  0  3.930712  0  0  0.589375  0  4.225161  0  0  0.622123  0  4.22071  0  0  0.20488  0.566922  0  4.228228  0
C  C49  1  0.99658638  0.39471460  0.80660942  1  0  0.640072  0  3.931032  0  0  0.589885  0  4.223294  0  0  0.622577  0  4.218883  0  0  0.204761  0.567459  0  4.226316  0
N  N50  1  0.43434309  0.09982744  0.62214664  1  0  -0.42183  0  3.198538  0  0  -0.354533  0  3.518531  0  0  -0.373928  0  3.525422  0  0  -0.303516  -0.341584  0  3.513593  0
N  N51  1  0.81214119  0.40030985  0.37806537  1  0  -0.423002  0  3.197774  0  0  -0.355789  0  3.51885  0  0  -0.375196  0  3.525719  0  0  -0.30393  -0.342837  0  3.513945  0
N  N52  1  0.56566525  0.90017831  0.37786146  1  0  -0.421927  0  3.1987  0  0  -0.35462  0  3.518645  0  0  -0.37402  0  3.525543  0  0  -0.303595  -0.341674  0  3.513714  0
N  N53  1  0.18785994  0.59969375  0.62193776  1  0  -0.422948  0  3.197688  0  0  -0.355789  0  3.518834  0  0  -0.375189  0  3.525677  0  0  -0.303927  -0.342833  0  3.513933  0
N  N54  1  0.45181464  0.17884517  0.53012664  1  0  -0.428555  0  3.158679  0  0  -0.362654  0  3.464726  0  0  -0.382289  0  3.472381  0  0  -0.303085  -0.349388  0  3.459699  0
N  N55  1  0.92159762  0.32130650  0.47012040  1  0  -0.427932  0  3.15832  0  0  -0.361212  0  3.463757  0  0  -0.380862  0  3.471443  0  0  -0.302758  -0.347947  0  3.458695  0
N  N56  1  0.54819235  0.82115846  0.46987972  1  0  -0.428577  0  3.158916  0  0  -0.362668  0  3.464904  0  0  -0.382307  0  3.472558  0  0  -0.303071  -0.349405  0  3.459881  0
N  N57  1  0.07840131  0.67869819  0.52988576  1  0  -0.427889  0  3.158368  0  0  -0.361151  0  3.463837  0  0  -0.380801  0  3.471524  0  0  -0.302664  -0.347884  0  3.458769  0
N  N58  1  0.29234805  0.28414767  0.60979425  1  0  -0.624562  0  3.099812  0  0  -0.535714  0  3.39055  0  0  -0.561563  0  3.391806  0  0  -0.381998  -0.518067  0  3.389328  0
N  N59  1  0.68248030  0.21601095  0.39035178  1  0  -0.624024  0  3.096459  0  0  -0.535621  0  3.388708  0  0  -0.561226  0  3.389667  0  0  -0.382147  -0.51807  0  3.387591  0
N  N60  1  0.70765676  0.71585804  0.39021060  1  0  -0.62462  0  3.099763  0  0  -0.535761  0  3.390452  0  0  -0.561617  0  3.391706  0  0  -0.382014  -0.518118  0  3.389234  0
N  N61  1  0.31751617  0.78399264  0.60965047  1  0  -0.624059  0  3.096608  0  0  -0.535581  0  3.388791  0  0  -0.561188  0  3.389747  0  0  -0.382128  -0.518026  0  3.387677  0
N  N62  1  0.35044882  0.39051995  0.44917636  1  0  -0.705396  0  3.08451  0  0  -0.669457  0  3.320178  0  0  -0.689229  0  3.314946  0  0  -0.58634  -0.65518  0  3.32297  0
N  N63  1  0.90118024  0.10956400  0.55089464  1  0  -0.706792  0  3.084863  0  0  -0.670379  0  3.321561  0  0  -0.690143  0  3.316322  0  0  -0.58636  -0.656128  0  3.324363  0
N  N64  1  0.64955437  0.60948051  0.55082622  1  0  -0.705471  0  3.084452  0  0  -0.669578  0  3.320038  0  0  -0.689355  0  3.314796  0  0  -0.586385  -0.6553  0  3.322829  0
N  N65  1  0.09881529  0.89044172  0.44911126  1  0  -0.706778  0  3.084942  0  0  -0.670439  0  3.321509  0  0  -0.6902  0  3.316269  0  0  -0.586297  -0.65619  0  3.324313  0
N  N66  1  0.28136988  0.11979235  0.75065442  1  0  -0.706577  0  3.046096  0  0  -0.674422  0  3.284257  0  0  -0.69254  0  3.277331  0  0  -0.581999  -0.661456  0  3.2885  0
N  N67  1  0.53066434  0.38030264  0.24939774  1  0  -0.708458  0  3.046679  0  0  -0.675725  0  3.285077  0  0  -0.693818  0  3.278208  0  0  -0.582323  -0.662803  0  3.289281  0
N  N68  1  0.71863599  0.88021230  0.24934883  1  0  -0.706569  0  3.045913  0  0  -0.674502  0  3.284018  0  0  -0.692617  0  3.277091  0  0  -0.582032  -0.661536  0  3.288265  0
N  N69  1  0.46933543  0.61969884  0.75060271  1  0  -0.708492  0  3.046714  0  0  -0.675759  0  3.285117  0  0  -0.693859  0  3.278251  0  0  -0.582327  -0.662832  0  3.289325  0
N  N70  1  0.35441487  0.74993760  0.00012742  1  0  0.474116  0  3.945663  0  0  0.530442  0  4.199981  0  0  0.551364  0  4.209516  0  0  0.055792  0.516528  0  4.193224  0
N  N71  1  0.64558360  0.25006279  0.99986958  1  0  0.474316  0  3.945308  0  0  0.530481  0  4.199963  0  0  0.55141  0  4.209498  0  0  0.055832  0.516567  0  4.193207  0
O  O72  1  0.83624381  0.96917037  0.73351856  1  0  -0.606381  0  1.957625  0  0  -0.559571  0  2.184061  0  0  -0.582782  0  2.177718  0  0  -0.311892  -0.543466  0  2.188074  0
O  O73  1  0.10242258  0.52990638  0.26579889  1  0  -0.605703  0  1.957699  0  0  -0.559453  0  2.183271  0  0  -0.582706  0  2.177099  0  0  -0.311836  -0.543375  0  2.187318  0
O  O74  1  0.16375545  0.03082581  0.26647632  1  0  -0.606298  0  1.957698  0  0  -0.559479  0  2.18413  0  0  -0.582694  0  2.177809  0  0  -0.311893  -0.543385  0  2.188168  0
O  O75  1  0.89758250  0.47010248  0.73420649  1  0  -0.605628  0  1.957602  0  0  -0.559362  0  2.183173  0  0  -0.58262  0  2.177008  0  0  -0.311801  -0.543289  0  2.187227  0
O  O76  1  0.67299076  0.86890410  0.80040691  1  0  -0.666077  0  2.071877  0  0  -0.589048  0  2.343096  0  0  -0.617221  0  2.328404  0  0  -0.338697  -0.569588  0  2.352938  0
O  O77  1  0.87278621  0.63101701  0.19975588  1  0  -0.666137  0  2.072945  0  0  -0.589938  0  2.344233  0  0  -0.618029  0  2.329386  0  0  -0.338751  -0.570513  0  2.354169  0
O  O78  1  0.32700946  0.13108996  0.19958526  1  0  -0.665937  0  2.071743  0  0  -0.588947  0  2.343017  0  0  -0.617123  0  2.32833  0  0  -0.33859  -0.569487  0  2.35286  0
O  O79  1  0.12721386  0.36898765  0.80024792  1  0  -0.666017  0  2.073076  0  0  -0.589814  0  2.344354  0  0  -0.617909  0  2.329529  0  0  -0.338717  -0.570392  0  2.354289  0
O  O80  1  0.43957439  0.65463879  0.04740575  1  0  -0.362763  0  1.761339  0  0  -0.353158  0  1.955025  0  0  -0.364931  0  1.951091  0  0  -0.133205  -0.34511  0  1.957975  0
O  O81  1  0.39240244  0.84522925  0.95289013  1  0  -0.363237  0  1.759365  0  0  -0.353829  0  1.953159  0  0  -0.365634  0  1.94922  0  0  -0.133955  -0.345782  0  1.95611  0
O  O82  1  0.56043253  0.34536480  0.95259591  1  0  -0.362833  0  1.76124  0  0  -0.353144  0  1.955005  0  0  -0.364908  0  1.951067  0  0  -0.133218  -0.345097  0  1.957955  0
O  O83  1  0.60759199  0.15477750  0.04711361  1  0  -0.363295  0  1.759254  0  0  -0.353823  0  1.953117  0  0  -0.365647  0  1.949208  0  0  -0.133942  -0.345771  0  1.956065  0
