# generated using pymatgen
data_Zr3H3C26S5N2(ClO4)5
_symmetry_space_group_name_H-M   'P 1'
_cell_length_a   16.44783533
_cell_length_b   16.46774304
_cell_length_c   16.47534614
_cell_angle_alpha   62.28828074
_cell_angle_beta   60.03157703
_cell_angle_gamma   60.06422198
_symmetry_Int_Tables_number   1
_chemical_formula_structural   Zr3H3C26S5N2(ClO4)5
_chemical_formula_sum   'Zr6 H6 C52 S10 N4 Cl10 O40'
_cell_volume   3208.77378309
_cell_formula_units_Z   2
loop_
 _symmetry_equiv_pos_site_id
 _symmetry_equiv_pos_as_xyz
  1  'x, y, z'
loop_
 _atom_site_type_symbol
 _atom_site_label
 _atom_site_symmetry_multiplicity
 _atom_site_fract_x
 _atom_site_fract_y
 _atom_site_fract_z
 _atom_site_occupancy
 _atom_site_pbe_bader_charge
 _atom_site_pbe_bader_spin_density
 _atom_site_pbe_cm5_charge
 _atom_site_pbe_ddec_charge
 _atom_site_pbe_ddec_spin_density
 _atom_site_pbe_ddec_sum_bond_order
 _atom_site_pbe_magmom
Zr  Zr0  1  0.88411678  0.90778979  0.60621271  1  2.637971  0  1.628756  2.375907  0  2.774656  0
Zr  Zr1  1  0.10197015  0.11179508  0.40224322  1  2.637682  0  1.628696  2.376177  0  2.773111  0
Zr  Zr2  1  0.09969345  0.90454488  0.60907571  1  2.635021  0  1.626519  2.380059  0  2.743523  0
Zr  Zr3  1  0.88684950  0.11455623  0.39895037  1  2.640049  0  1.626462  2.379442  0  2.743892  0
Zr  Zr4  1  0.10280171  0.90004264  0.39454675  1  2.63486  0  1.618037  2.377922  0  2.721217  0
Zr  Zr5  1  0.88351631  0.11933231  0.61372337  1  2.63802  0  1.6197  2.382608  0  2.714427  0
H  H6  1  0.08018575  0.76004827  0.57783124  1  0.596454  0  0.330692  0.423612  0  0.857433  0
H  H7  1  0.08215563  0.08323201  0.25455613  1  0.611143  0  0.330428  0.422586  0  0.859458  0
H  H8  1  0.07610164  0.09346323  0.59293298  1  0.606746  0  0.333056  0.428839  0  0.846518  0
H  H9  1  0.73765039  0.09844352  0.58781334  1  0.608919  0  0.332862  0.428474  0  0.848111  0
H  H10  1  0.85642064  0.65575801  0.83908354  1  0.184134  0  0.132611  0.15394  0  0.970911  0
H  H11  1  0.14997974  0.34331149  0.14907506  1  0.147189  0  0.13254  0.154241  0  0.97287  0
C  C12  1  0.99151074  0.74425717  0.49118856  1  1.595581  0  0.223926  0.657292  0  4.143399  0
C  C13  1  0.27319448  0.99678056  0.23869004  1  1.56726  0  0.223185  0.655924  0  4.1438  0
C  C14  1  0.98559044  0.28359887  0.50888075  1  1.561158  0  0.224918  0.657933  0  4.142347  0
C  C15  1  0.72188451  0.01460363  0.77780413  1  1.578517  0  0.225005  0.658322  0  4.14204  0
C  C16  1  0.98875868  0.74138110  0.76430599  1  1.61328  0  0.238018  0.637485  0  4.115755  0
C  C17  1  0.72537804  0.00514377  0.49936502  1  1.595159  0  0.224469  0.658203  0  4.146758  0
C  C18  1  0.00568328  0.26972451  0.23582728  1  1.632821  0  0.238003  0.636522  0  4.117579  0
C  C19  1  0.27011656  0.00505512  0.49963938  1  1.592006  0  0.223837  0.657234  0  4.145468  0
C  C20  1  0.27206664  0.74332684  0.49691990  1  1.58192  0  0.224042  0.656261  0  4.13755  0
C  C21  1  0.98767349  0.00546318  0.78108995  1  1.575931  0  0.224924  0.661068  0  4.137546  0
C  C22  1  0.72586101  0.28657446  0.49987373  1  1.577555  0  0.225256  0.66101  0  4.136996  0
C  C23  1  0.98799228  0.00229356  0.23771358  1  1.582412  0  0.225389  0.658397  0  4.133977  0
C  C24  1  0.91520798  0.43468960  0.56801203  1  0.203605  0  0.011859  0.106382  0  4.078144  0
C  C25  1  0.05581251  0.59864188  0.42650163  1  0.118604  0  0.011161  0.10504  0  4.080368  0
C  C26  1  0.98221011  0.37574207  0.50557836  1  -0.141167  0  -0.028054  -0.190996  0  3.92395  0
C  C27  1  0.98988760  0.65666009  0.48987578  1  -0.068852  0  -0.028316  -0.189922  0  3.925589  0
C  C28  1  0.02818275  0.51792132  0.45479977  1  -0.149552  0  -0.026941  -0.072867  0  4.094051  0
C  C29  1  0.94188156  0.51629148  0.53878276  1  -0.121262  0  -0.027785  -0.072879  0  4.091751  0
C  C30  1  0.41911986  0.93214845  0.09294345  1  0.123022  0  0.011562  0.105015  0  4.080644  0
C  C31  1  0.58194903  0.07388052  0.92876027  1  0.148359  0  0.012033  0.105777  0  4.076839  0
C  C32  1  0.36364952  0.99551952  0.15096617  1  -0.071362  0  -0.028922  -0.189682  0  3.923729  0
C  C33  1  0.63631782  0.01142377  0.86983512  1  -0.136935  0  -0.028086  -0.190077  0  3.922725  0
C  C34  1  0.50297447  0.04458951  0.01044047  1  -0.121878  0  -0.027375  -0.073493  0  4.092391  0
C  C35  1  0.49908387  0.96053756  0.01214005  1  -0.111841  0  -0.027189  -0.07165  0  4.092531  0
C  C36  1  0.05917282  0.94083648  0.91687452  1  0.151891  0  0.011459  0.104542  0  4.077709  0
C  C37  1  0.90820249  0.05681236  0.11091676  1  0.137993  0  0.014792  0.113855  0  4.060666  0
C  C38  1  0.98675522  0.00074292  0.87259654  1  -0.131403  0  -0.029468  -0.194679  0  3.924569  0
C  C39  1  0.98255250  0.99968255  0.15287385  1  -0.119059  0  -0.026557  -0.185281  0  3.908909  0
C  C40  1  0.93672522  0.03568281  0.02436090  1  -0.076177  0  -0.025641  -0.069194  0  4.083632  0
C  C41  1  0.03060846  0.96168114  0.00354687  1  -0.133022  0  -0.027737  -0.073389  0  4.099107  0
C  C42  1  0.42401740  0.61630948  0.55154409  1  0.135762  0  0.014682  0.113796  0  4.061525  0
C  C43  1  0.58329072  0.42249290  0.43521731  1  0.129133  0  0.010895  0.103806  0  4.077395  0
C  C44  1  0.36492807  0.65843442  0.49430084  1  -0.096884  0  -0.026891  -0.185724  0  3.909756  0
C  C45  1  0.63994060  0.37806813  0.49527043  1  -0.108651  0  -0.028988  -0.193774  0  3.924587  0
C  C46  1  0.50429130  0.50915119  0.45614273  1  -0.1448  0  -0.027711  -0.074471  0  4.100782  0
C  C47  1  0.50321289  0.52978393  0.53033495  1  -0.121237  0  -0.025184  -0.06784  0  4.081814  0
C  C48  1  0.06915865  0.58239378  0.87768435  1  0.23913  0  0.101451  0.039218  0  3.858061  0
C  C49  1  0.91439817  0.61035650  0.87173283  1  -0.000439  0  -0.060058  -0.114297  0  3.92724  0
C  C50  1  0.91281701  0.52154599  0.93942370  1  0.184958  0  0.088296  0.044478  0  3.903675  0
C  C51  1  0.98111279  0.46429950  0.99155167  1  0.073373  0  0.020554  0.012267  0  3.893547  0
C  C52  1  0.97029612  0.38345311  0.07719478  1  0.227247  0  0.101788  0.040699  0  3.854741  0
C  C53  1  0.10417955  0.37644858  0.10415260  1  0.102795  0  -0.060123  -0.11551  0  3.931944  0
C  C54  1  0.12682235  0.44405897  0.01526517  1  0.183131  0  0.088704  0.046807  0  3.903677  0
C  C55  1  0.06311106  0.49673579  0.95851880  1  0.099831  0  0.020947  0.011722  0  3.896122  0
C  C56  1  0.99284442  0.64293583  0.83968933  1  0.038327  0  0.004749  -0.049345  0  3.91592  0
C  C57  1  0.02461630  0.34500616  0.13731584  1  0.041426  0  0.004239  -0.050024  0  3.916334  0
C  C58  1  0.41753945  0.06467272  0.42806043  1  0.098329  0  0.010793  0.106687  0  4.07475  0
C  C59  1  0.58957767  0.93389916  0.55927541  1  0.163012  0  0.010812  0.105732  0  4.072918  0
C  C60  1  0.36335536  0.00201759  0.49377753  1  -0.092164  0  -0.027233  -0.187377  0  3.922934  0
C  C61  1  0.64099957  0.99932472  0.49637152  1  -0.130168  0  -0.028355  -0.188225  0  3.922847  0
C  C62  1  0.50847578  0.95735745  0.53377363  1  -0.138429  0  -0.027001  -0.071471  0  4.094711  0
C  C63  1  0.50063182  0.03923032  0.45157940  1  -0.119822  0  -0.027966  -0.074271  0  4.097858  0
S  S64  1  0.07698306  0.42030714  0.41123637  1  0.30519  0  0.096954  0.165355  0  2.783619  0
S  S65  1  0.89402299  0.61310797  0.58323451  1  0.297719  0  0.093563  0.160111  0  2.798957  0
S  S66  1  0.40960838  0.08899463  0.10729873  1  0.310858  0  0.093623  0.160243  0  2.797991  0
S  S67  1  0.59141804  0.91698795  0.91450242  1  0.287971  0  0.096765  0.164382  0  2.78237  0
S  S68  1  0.88386532  0.08149160  0.93753359  1  0.304457  0  0.098867  0.16652  0  2.780772  0
S  S69  1  0.08494489  0.91807787  0.08862970  1  0.30193  0  0.093979  0.156112  0  2.784129  0
S  S70  1  0.40853243  0.59437407  0.41247828  1  0.315696  0  0.093644  0.156393  0  2.786018  0
S  S71  1  0.59699988  0.44279880  0.57625095  1  0.31254  0  0.098962  0.166319  0  2.781277  0
S  S72  1  0.41483114  0.91135481  0.58270549  1  0.301173  0  0.098686  0.163328  0  2.82739  0
S  S73  1  0.59163323  0.08788126  0.40533315  1  0.324227  0  0.09921  0.164763  0  2.827577  0
N  N74  1  0.22470623  0.45275608  0.98319915  1  0.416337  0  0.053718  0.500587  0  4.253116  0
N  N75  1  0.15988397  0.60889301  0.83042445  1  0.463237  0  0.056326  0.506383  0  4.268492  0
N  N76  1  0.83739150  0.49017739  0.94886139  1  0.419545  0  0.054383  0.502783  0  4.247193  0
N  N77  1  0.89970150  0.33671747  0.10413240  1  0.427557  0  0.055761  0.506186  0  4.270616  0
Cl  Cl78  1  0.81342677  0.41548660  0.66807154  1  -0.14791  0  0.023989  -0.013414  0  1.516384  0
Cl  Cl79  1  0.15826088  0.61738281  0.32717039  1  -0.153634  0  0.021633  -0.016483  0  1.509501  0
Cl  Cl80  1  0.39744284  0.83266632  0.11177850  1  -0.147746  0  0.021649  -0.016463  0  1.509419  0
Cl  Cl81  1  0.60277856  0.17402983  0.90946400  1  -0.143148  0  0.02393  -0.013135  0  1.515215  0
Cl  Cl82  1  0.17020116  0.85344005  0.87607784  1  -0.141342  0  0.024789  -0.006033  0  1.547778  0
Cl  Cl83  1  0.79486957  0.14004195  0.15456026  1  -0.134318  0  0.024202  -0.014689  0  1.59365  0
Cl  Cl84  1  0.41025073  0.65964607  0.63512533  1  -0.135046  0  0.024182  -0.01484  0  1.592816  0
Cl  Cl85  1  0.60058039  0.38187949  0.34765862  1  -0.142928  0  0.025139  -0.005383  0  1.550376  0
Cl  Cl86  1  0.39180503  0.16177843  0.33114468  1  -0.145767  0  0.018448  -0.022766  0  1.528655  0
Cl  Cl87  1  0.61470104  0.83735949  0.65677824  1  -0.149202  0  0.018525  -0.022601  0  1.527653  0
O  O88  1  0.92139745  0.78025774  0.56141978  1  -1.182064  0  -0.358992  -0.618093  0  2.287688  0
O  O89  1  0.23708802  0.06709836  0.27458187  1  -1.176159  0  -0.358358  -0.618034  0  2.287858  0
O  O90  1  0.05756620  0.24575839  0.44040144  1  -1.179606  0  -0.359488  -0.618533  0  2.275691  0
O  O91  1  0.75625695  0.94605128  0.74003559  1  -1.175459  0  -0.359202  -0.618717  0  2.27575  0
O  O92  1  0.05447800  0.77577307  0.73874249  1  -1.165258  0  -0.326024  -0.58451  0  2.288963  0
O  O93  1  0.75743633  0.07465771  0.43405920  1  -1.177113  0  -0.351555  -0.610944  0  2.274767  0
O  O94  1  0.93111998  0.24416136  0.27033988  1  -1.164834  0  -0.326079  -0.583972  0  2.293101  0
O  O95  1  0.23381552  0.93979233  0.56921809  1  -1.170363  0  -0.351311  -0.610145  0  2.272199  0
O  O96  1  0.23664776  0.77238375  0.43029649  1  -1.173944  0  -0.353582  -0.614502  0  2.252799  0
O  O97  1  0.91895170  0.07622829  0.74819138  1  -1.175111  0  -0.351071  -0.612284  0  2.24935  0
O  O98  1  0.75676207  0.25365688  0.57060996  1  -1.174725  0  -0.351889  -0.612685  0  2.249343  0
O  O99  1  0.06103047  0.93573604  0.26672305  1  -1.176032  0  -0.354396  -0.616294  0  2.249843  0
O  O100  1  0.05816999  0.93843415  0.74071825  1  -1.180994  0  -0.368247  -0.621751  0  2.32349  0
O  O101  1  0.76275105  0.24622069  0.43283572  1  -1.16661  0  -0.367981  -0.621399  0  2.323624  0
O  O102  1  0.92079805  0.07246439  0.27469127  1  -1.171676  0  -0.364795  -0.615473  0  2.332441  0
O  O103  1  0.23210946  0.78031311  0.56706592  1  -1.172956  0  -0.364193  -0.614557  0  2.334879  0
O  O104  1  0.91681138  0.78103102  0.73282602  1  -1.1668  0  -0.348238  -0.600263  0  2.300365  0
O  O105  1  0.23161416  0.07386089  0.43571142  1  -1.172838  0  -0.366901  -0.618936  0  2.336929  0
O  O106  1  0.06950119  0.23831786  0.27540813  1  -1.174297  0  -0.34821  -0.599729  0  2.300019  0
O  O107  1  0.75896302  0.94122083  0.56820473  1  -1.176356  0  -0.36689  -0.618906  0  2.336728  0
O  O108  1  0.75454727  0.08449012  0.74204136  1  -1.169425  0  -0.357885  -0.613486  0  2.306421  0
O  O109  1  0.06211548  0.77650306  0.42498171  1  -1.18056  0  -0.358428  -0.614151  0  2.305601  0
O  O110  1  0.23663082  0.93046701  0.27108676  1  -1.170651  0  -0.358241  -0.613465  0  2.304495  0
O  O111  1  0.91885966  0.24778997  0.57884750  1  -1.165761  0  -0.357566  -0.613513  0  2.307099  0
O  O112  1  0.81024222  0.07341136  0.56413897  1  -1.234987  0  -0.692568  -1.067914  0  2.350292  0
O  O113  1  0.05221066  0.06979670  0.56790725  1  -1.232592  0  -0.692784  -1.068267  0  2.348644  0
O  O114  1  0.05626145  0.06492932  0.32543380  1  -1.242112  0  -0.692806  -1.069847  0  2.358244  0
O  O115  1  0.05353200  0.83093138  0.55945981  1  -1.229778  0  -0.692782  -1.071201  0  2.355739  0
O  O116  1  0.12764812  0.96322606  0.45995229  1  -1.195337  0  -0.790154  -1.147404  0  2.127677  0
O  O117  1  0.94937478  0.96543538  0.45764820  1  -1.201227  0  -0.79004  -1.146627  0  2.128336  0
O  O118  1  0.94913137  0.14078343  0.46332703  1  -1.199381  0  -0.789457  -1.151675  0  2.120118  0
O  O119  1  0.94683758  0.96888653  0.63524034  1  -1.20033  0  -0.789134  -1.151419  0  2.120242  0
O  O120  1  0.28642772  0.43484061  0.90472042  1  -0.42547  0  -0.122608  -0.313095  0  1.907954  0
O  O121  1  0.23931939  0.46945117  0.03949395  1  -0.419635  0  -0.118047  -0.301146  0  1.874598  0
O  O122  1  0.21595399  0.59162823  0.75121702  1  -0.420277  0  -0.097421  -0.2813  0  1.960638  0
O  O123  1  0.17190822  0.64356810  0.87410224  1  -0.419415  0  -0.10815  -0.300592  0  1.949555  0
O  O124  1  0.87121142  0.41194886  0.93078957  1  -0.431633  0  -0.123142  -0.31373  0  1.906445  0
O  O125  1  0.74988724  0.54676667  0.96629637  1  -0.414851  0  -0.117949  -0.3017  0  1.869827  0
O  O126  1  0.93939593  0.25770528  0.08664192  1  -0.402775  0  -0.097563  -0.281994  0  1.963963  0
O  O127  1  0.80950139  0.38064781  0.13933678  1  -0.414619  0  -0.107331  -0.300248  0  1.952786  0
