# generated using pymatgen
data_ZnH12C20NO5
_symmetry_space_group_name_H-M   'P 1'
_cell_length_a   14.16554278
_cell_length_b   14.16554650
_cell_length_c   26.29164758
_cell_angle_alpha   79.85344811
_cell_angle_beta   79.85336105
_cell_angle_gamma   83.83136233
_symmetry_Int_Tables_number   1
_chemical_formula_structural   ZnH12C20NO5
_chemical_formula_sum   'Zn8 H96 C160 N8 O40'
_cell_volume   5096.09571185
_cell_formula_units_Z   8
loop_
 _symmetry_equiv_pos_site_id
 _symmetry_equiv_pos_as_xyz
  1  'x, y, z'
loop_
 _atom_site_type_symbol
 _atom_site_label
 _atom_site_symmetry_multiplicity
 _atom_site_fract_x
 _atom_site_fract_y
 _atom_site_fract_z
 _atom_site_occupancy
 _atom_site_pbe_bader_charge
 _atom_site_pbe_bader_spin_density
 _atom_site_pbe_cm5_charge
 _atom_site_pbe_ddec_charge
 _atom_site_pbe_ddec_spin_density
 _atom_site_pbe_ddec_sum_bond_order
 _atom_site_pbe_magmom
Zn  Zn0  1  0.11251862  0.81461898  0.41079228  1  1.318848  0  0.680355  0.858665  0  2.292959  0
Zn  Zn1  1  0.18537798  0.88747852  0.08920857  1  1.318769  0  0.680388  0.858744  0  2.292965  0
Zn  Zn2  1  0.88747781  0.18537962  0.58920724  1  1.318813  0  0.680353  0.858673  0  2.293017  0
Zn  Zn3  1  0.81462421  0.11252389  0.91079158  1  1.318826  0  0.680376  0.858731  0  2.292981  0
Zn  Zn4  1  0.15517974  0.58640416  0.43067326  1  1.268546  0  0.68548  0.815736  0  2.414847  0
Zn  Zn5  1  0.41359475  0.84481985  0.06932518  1  1.26869  0  0.685471  0.815766  0  2.414731  0
Zn  Zn6  1  0.84482171  0.41359400  0.56932773  1  1.268549  0  0.685484  0.815801  0  2.414766  0
Zn  Zn7  1  0.58640600  0.15517911  0.93067352  1  1.268541  0  0.68548  0.815757  0  2.41486  0
H  H8  1  0.04954922  0.54176617  0.59342054  1  0.09312  0  0.102194  0.105442  0  1.02013  0
H  H9  1  0.45822980  0.95044213  0.90657853  1  0.093253  0  0.102139  0.105401  0  1.020171  0
H  H10  1  0.95044793  0.45823308  0.40657961  1  0.093113  0  0.102164  0.105421  0  1.020173  0
H  H11  1  0.54176734  0.04955141  0.09341949  1  0.093116  0  0.102167  0.10541  0  1.020197  0
H  H12  1  0.01733759  0.53741608  0.69012637  1  0.118511  0  0.104238  0.102855  0  1.042534  0
H  H13  1  0.46257871  0.98265501  0.80987308  1  0.118648  0  0.104285  0.102843  0  1.042441  0
H  H14  1  0.98266101  0.46258591  0.30987377  1  0.118423  0  0.10423  0.102809  0  1.042539  0
H  H15  1  0.53741554  0.01733734  0.19012493  1  0.118482  0  0.104257  0.102854  0  1.042518  0
H  H16  1  0.94899261  0.84661248  0.70952134  1  0.086376  0  0.101204  0.097628  0  1.036152  0
H  H17  1  0.15338453  0.05101273  0.79047800  1  0.086429  0  0.101202  0.097656  0  1.036118  0
H  H18  1  0.05101462  0.15338951  0.29047762  1  0.086454  0  0.101205  0.09758  0  1.03613  0
H  H19  1  0.84661194  0.94899447  0.20952110  1  0.086354  0  0.101193  0.097601  0  1.036186  0
H  H20  1  0.88742951  0.97590562  0.76284596  1  0.126688  0  0.1082  0.115541  0  0.998707  0
H  H21  1  0.02408967  0.11257217  0.73715434  1  0.126823  0  0.108215  0.1155  0  0.998754  0
H  H22  1  0.11257413  0.02409596  0.23715299  1  0.126916  0  0.108209  0.115549  0  0.9987  0
H  H23  1  0.97590679  0.88743289  0.26284420  1  0.126698  0  0.108231  0.115574  0  0.998693  0
H  H24  1  0.99599289  0.80620607  0.89532225  1  0.087862  0  0.104071  0.10759  0  0.998054  0
H  H25  1  0.19379040  0.00400198  0.60467960  1  0.087895  0  0.104072  0.107561  0  0.998107  0
H  H26  1  0.00400571  0.19379521  0.10467758  1  0.087859  0  0.104061  0.107543  0  0.998071  0
H  H27  1  0.80620750  0.99600294  0.39532034  1  0.087899  0  0.104077  0.107609  0  0.997978  0
H  H28  1  0.06305526  0.67757623  0.84090778  1  0.101355  0  0.107531  0.111532  0  0.996119  0
H  H29  1  0.32242079  0.93694151  0.65909492  1  0.101568  0  0.107496  0.111488  0  0.996082  0
H  H30  1  0.93695053  0.32242586  0.15909283  1  0.101194  0  0.107573  0.111612  0  0.996116  0
H  H31  1  0.67757274  0.06305659  0.34090719  1  0.101465  0  0.107516  0.111503  0  0.996089  0
H  H32  1  0.10556493  0.82565664  0.66849327  1  0.08278  0  0.098797  0.096052  0  1.040285  0
H  H33  1  0.17433596  0.89443588  0.83150532  1  0.082863  0  0.098863  0.096104  0  1.040325  0
H  H34  1  0.89443942  0.17434344  0.33150538  1  0.082729  0  0.09879  0.096053  0  1.04021  0
H  H35  1  0.82565830  0.10556004  0.16849388  1  0.082717  0  0.098773  0.096019  0  1.040378  0
H  H36  1  0.13302878  0.83082269  0.57232314  1  0.036438  0  0.102753  0.102576  0  1.015609  0
H  H37  1  0.16916840  0.86696702  0.92767642  1  0.036339  0  0.102698  0.102502  0  1.015588  0
H  H38  1  0.86697269  0.16917477  0.42767563  1  0.036448  0  0.102742  0.102537  0  1.015612  0
H  H39  1  0.83082655  0.13302525  0.07232381  1  0.036447  0  0.102751  0.102559  0  1.015639  0
H  H40  1  0.09040708  0.41532947  0.51140824  1  0.140354  0  0.120941  0.097912  0  1.000277  0
H  H41  1  0.58466566  0.90959318  0.98859077  1  0.14033  0  0.120924  0.097931  0  1.000193  0
H  H42  1  0.90958860  0.58466416  0.48859294  1  0.140305  0  0.120953  0.098015  0  1.000181  0
H  H43  1  0.41533654  0.09040851  0.01140906  1  0.140315  0  0.120926  0.097984  0  1.000148  0
H  H44  1  0.08668594  0.24079003  0.51208123  1  0.118788  0  0.113094  0.132775  0  1.031589  0
H  H45  1  0.75920503  0.91331688  0.98791749  1  0.117873  0  0.113117  0.132791  0  1.031557  0
H  H46  1  0.91331048  0.75920500  0.48791709  1  0.115636  0  0.11311  0.132742  0  1.031685  0
H  H47  1  0.24079642  0.08668271  0.01208375  1  0.117839  0  0.113105  0.132779  0  1.031593  0
H  H48  1  0.24449547  0.28413426  0.35363691  1  0.133075  0  0.114755  0.131365  0  1.023179  0
H  H49  1  0.71586333  0.75551193  0.14636229  1  0.133256  0  0.114806  0.131477  0  1.02314  0
H  H50  1  0.75550386  0.71586840  0.64636120  1  0.132983  0  0.114768  0.131372  0  1.023225  0
H  H51  1  0.28413382  0.24449303  0.85363999  1  0.133062  0  0.114797  0.131416  0  1.023188  0
H  H52  1  0.23734758  0.45725434  0.35903981  1  0.117248  0  0.130042  0.107344  0  0.972829  0
H  H53  1  0.54274265  0.76265709  0.14095977  1  0.117504  0  0.130073  0.107383  0  0.972841  0
H  H54  1  0.76265101  0.54274836  0.64096141  1  0.117221  0  0.130056  0.107386  0  0.972801  0
H  H55  1  0.45725451  0.23734716  0.85904105  1  0.117252  0  0.130032  0.107369  0  0.972857  0
H  H56  1  0.12383165  0.09292372  0.51214286  1  0.16048  0  0.110279  0.136578  0  1.053112  0
H  H57  1  0.90707096  0.87617732  0.98785715  1  0.160177  0  0.110323  0.136636  0  1.053015  0
H  H58  1  0.87617630  0.90707463  0.48785485  1  0.160289  0  0.110279  0.13656  0  1.053143  0
H  H59  1  0.09292834  0.12382388  0.01214528  1  0.160239  0  0.110274  0.136585  0  1.053114  0
H  H60  1  0.10931483  0.92551301  0.49994587  1  0.11481  0  0.11563  0.085786  0  1.029193  0
H  H61  1  0.07448563  0.89069793  0.00005456  1  0.115005  0  0.115566  0.085726  0  1.029188  0
H  H62  1  0.89069813  0.07448418  0.50005452  1  0.11494  0  0.115571  0.085698  0  1.02923  0
H  H63  1  0.92551442  0.10930966  0.99994683  1  0.114612  0  0.115623  0.085786  0  1.029172  0
H  H64  1  0.17323513  0.99238796  0.33905929  1  0.091207  0  0.123625  0.10078  0  0.981808  0
H  H65  1  0.00760484  0.82676562  0.16094318  1  0.091197  0  0.12364  0.100789  0  0.981807  0
H  H66  1  0.82676486  0.00760603  0.66094109  1  0.091263  0  0.123666  0.100855  0  0.98181  0
H  H67  1  0.99239662  0.17323753  0.83906001  1  0.091341  0  0.123652  0.100846  0  0.981749  0
H  H68  1  0.18480017  0.16529365  0.34263374  1  0.118481  0  0.108122  0.115278  0  1.061116  0
H  H69  1  0.83469903  0.81520716  0.15736742  1  0.118373  0  0.108143  0.115301  0  1.061076  0
H  H70  1  0.81519986  0.83470251  0.65736376  1  0.118518  0  0.108101  0.115297  0  1.06111  0
H  H71  1  0.16530172  0.18479821  0.84263525  1  0.118478  0  0.108108  0.115284  0  1.061068  0
H  H72  1  0.46448527  0.59421036  0.39558861  1  0.089951  0  0.108295  0.114168  0  0.991298  0
H  H73  1  0.40578969  0.53551507  0.10441296  1  0.089992  0  0.108307  0.114198  0  0.991306  0
H  H74  1  0.53551474  0.40578721  0.60441143  1  0.089995  0  0.108319  0.114209  0  0.991306  0
H  H75  1  0.59421032  0.46448393  0.89558809  1  0.089962  0  0.108272  0.114151  0  0.991365  0
H  H76  1  0.63343336  0.61936857  0.35231091  1  0.080541  0  0.105701  0.105064  0  1.005364  0
H  H77  1  0.38063047  0.36656648  0.14768922  1  0.080662  0  0.105713  0.105071  0  1.005317  0
H  H78  1  0.36656739  0.38063109  0.64768887  1  0.080558  0  0.105715  0.105078  0  1.005344  0
H  H79  1  0.61936739  0.63343199  0.85231170  1  0.080572  0  0.105725  0.105109  0  1.005384  0
H  H80  1  0.71374184  0.75826144  0.37101819  1  0.071394  0  0.106194  0.106085  0  0.995616  0
H  H81  1  0.24173498  0.28625896  0.12898059  1  0.071329  0  0.106255  0.106158  0  0.995732  0
H  H82  1  0.28626032  0.24173808  0.62898413  1  0.0714  0  0.106211  0.106122  0  0.99564  0
H  H83  1  0.75825856  0.71373773  0.87101975  1  0.071354  0  0.106251  0.106166  0  0.995694  0
H  H84  1  0.86430567  0.71163567  0.40892320  1  0.080427  0  0.105923  0.110431  0  1.018034  0
H  H85  1  0.28836226  0.13569554  0.09107342  1  0.080626  0  0.105878  0.110356  0  1.018022  0
H  H86  1  0.13569796  0.28836517  0.59107696  1  0.08048  0  0.105905  0.110437  0  1.017984  0
H  H87  1  0.71163561  0.86430294  0.90892559  1  0.080369  0  0.105888  0.110375  0  1.017992  0
H  H88  1  0.00831434  0.63001348  0.26347231  1  0.090751  0  0.109684  0.112037  0  1.008172  0
H  H89  1  0.36998885  0.99168565  0.23652432  1  0.090865  0  0.109681  0.112049  0  1.008119  0
H  H90  1  0.99168784  0.36998820  0.73652828  1  0.09117  0  0.109683  0.112019  0  1.00825  0
H  H91  1  0.63001984  0.00831623  0.76347223  1  0.09073  0  0.109669  0.112036  0  1.008194  0
H  H92  1  0.85892929  0.68072323  0.22410754  1  0.071981  0  0.107193  0.107787  0  0.998937  0
H  H93  1  0.31927886  0.14107047  0.27589034  1  0.072094  0  0.107212  0.107777  0  0.998825  0
H  H94  1  0.14107360  0.31927910  0.77589483  1  0.071883  0  0.107196  0.107819  0  0.998956  0
H  H95  1  0.68072766  0.85892873  0.72410628  1  0.072011  0  0.107164  0.107751  0  0.998903  0
H  H96  1  0.53046623  0.86226795  0.24720072  1  0.115139  0  0.108198  0.112715  0  1.017614  0
H  H97  1  0.13772925  0.46953149  0.25279763  1  0.115126  0  0.108205  0.112747  0  1.01759  0
H  H98  1  0.46953308  0.13773326  0.75279981  1  0.115124  0  0.108213  0.112728  0  1.017585  0
H  H99  1  0.86226791  0.53046849  0.74720055  1  0.115129  0  0.108221  0.112723  0  1.017607  0
H  H100  1  0.36193388  0.84047805  0.29360933  1  0.109872  0  0.109583  0.115221  0  0.998148  0
H  H101  1  0.15951950  0.63806385  0.20639057  1  0.109878  0  0.109586  0.115227  0  0.998132  0
H  H102  1  0.63806542  0.15952173  0.70639133  1  0.109857  0  0.109582  0.115226  0  0.998157  0
H  H103  1  0.84047980  0.36193665  0.79361003  1  0.109809  0  0.109587  0.115243  0  0.998072  0
C  C104  1  0.30353705  0.70434537  0.37549158  1  1.566838  0  0.226345  0.604493  0  4.158768  0
C  C105  1  0.29565601  0.69646218  0.12451121  1  1.567464  0  0.226298  0.604421  0  4.158839  0
C  C106  1  0.69646296  0.29565291  0.62450953  1  1.566897  0  0.226358  0.604528  0  4.158689  0
C  C107  1  0.70434615  0.30353591  0.87549048  1  1.566904  0  0.226299  0.604398  0  4.158793  0
C  C108  1  0.11087666  0.68597505  0.51923310  1  1.547155  0  0.221359  0.596635  0  4.174404  0
C  C109  1  0.31401582  0.88911790  0.98076732  1  1.548905  0  0.221368  0.5967  0  4.174523  0
C  C110  1  0.88912048  0.31402205  0.48076725  1  1.547216  0  0.221323  0.596507  0  4.174563  0
C  C111  1  0.68597846  0.11088231  0.01923263  1  1.547102  0  0.221344  0.596646  0  4.174413  0
C  C112  1  0.09216859  0.68673243  0.57692839  1  -0.008619  0  -0.014276  -0.032693  0  3.973721  0
C  C113  1  0.31325765  0.90782775  0.92307156  1  -0.007915  0  -0.014339  -0.032722  0  3.973838  0
C  C114  1  0.90783000  0.31326670  0.42307126  1  -0.008571  0  -0.014259  -0.032612  0  3.973702  0
C  C115  1  0.68673518  0.09217115  0.07692826  1  -0.00846  0  -0.014313  -0.032683  0  3.973658  0
C  C116  1  0.06017713  0.60381557  0.61036427  1  -0.017449  0  -0.083716  -0.087974  0  3.964935  0
C  C117  1  0.39617779  0.93981934  0.88963648  1  -0.017503  0  -0.083662  -0.088005  0  3.965027  0
C  C118  1  0.93982074  0.39618505  0.38963568  1  -0.017437  0  -0.083709  -0.088022  0  3.965002  0
C  C119  1  0.60381504  0.06017813  0.11036347  1  -0.017455  0  -0.08368  -0.087987  0  3.964888  0
C  C120  1  0.04243928  0.60147142  0.66406029  1  -0.051719  0  -0.076882  -0.083497  0  3.941473  0
C  C121  1  0.39852377  0.95755309  0.83593954  1  -0.051934  0  -0.076904  -0.083375  0  3.941429  0
C  C122  1  0.95755932  0.39853057  0.33593985  1  -0.051336  0  -0.076866  -0.08338  0  3.941486  0
C  C123  1  0.60147120  0.04244062  0.16405942  1  -0.051637  0  -0.076866  -0.083385  0  3.941497  0
C  C124  1  0.05744311  0.68134853  0.68573753  1  -0.050614  0  -0.008538  0.006714  0  3.946725  0
C  C125  1  0.31864490  0.94255327  0.81426212  1  -0.050245  0  -0.008464  0.006899  0  3.946866  0
C  C126  1  0.94256052  0.31865233  0.31426187  1  -0.051118  0  -0.008518  0.00664  0  3.946877  0
C  C127  1  0.68135007  0.05743901  0.18573697  1  -0.050617  0  -0.008531  0.006702  0  3.94671  0
C  C128  1  0.04243716  0.66994559  0.74414008  1  0.948221  0  0.160402  0.350705  0  3.978128  0
C  C129  1  0.33004827  0.95756243  0.75586075  1  0.948286  0  0.160343  0.350459  0  3.97825  0
C  C130  1  0.95757006  0.33005424  0.25585946  1  0.94803  0  0.160445  0.350774  0  3.978024  0
C  C131  1  0.66995101  0.04243163  0.24413930  1  0.947982  0  0.160381  0.350607  0  3.977857  0
C  C132  1  0.01139684  0.75425502  0.77182095  1  -0.108701  0  -0.015342  -0.004772  0  3.967579  0
C  C133  1  0.24573806  0.98860434  0.72818023  1  -0.108683  0  -0.015371  -0.004692  0  3.967466  0
C  C134  1  0.98860678  0.24574582  0.22817959  1  -0.108684  0  -0.015328  -0.004775  0  3.967526  0
C  C135  1  0.75425621  0.01139586  0.27182085  1  -0.108735  0  -0.015346  -0.004696  0  3.96754  0
C  C136  1  0.96240261  0.83873611  0.74961199  1  0.002645  0  -0.08057  -0.102161  0  3.967752  0
C  C137  1  0.16125921  0.03759866  0.75038902  1  0.00244  0  -0.080545  -0.102218  0  3.967884  0
C  C138  1  0.03760174  0.16126397  0.25038704  1  0.002572  0  -0.08058  -0.102109  0  3.967741  0
C  C139  1  0.83873437  0.96240520  0.24961065  1  0.002493  0  -0.080534  -0.102213  0  3.967752  0
C  C140  1  0.92660083  0.91060632  0.77943886  1  -0.041681  0  -0.080033  -0.089682  0  3.960496  0
C  C141  1  0.08939171  0.07340057  0.72056230  1  -0.04214  0  -0.080045  -0.089623  0  3.960471  0
C  C142  1  0.07340281  0.08939525  0.22056009  1  -0.041891  0  -0.080109  -0.08978  0  3.96051  0
C  C143  1  0.91060689  0.92660142  0.27943746  1  -0.041863  0  -0.080048  -0.089587  0  3.96017  0
C  C144  1  0.93769435  0.89817678  0.83212731  1  -0.023626  0  -0.011794  -0.016961  0  3.963658  0
C  C145  1  0.10182019  0.06230476  0.66787264  1  -0.023662  0  -0.011741  -0.016837  0  3.963489  0
C  C146  1  0.06230497  0.10182373  0.16787138  1  -0.023649  0  -0.011712  -0.016892  0  3.963677  0
C  C147  1  0.89817555  0.93770035  0.33212671  1  -0.023891  0  -0.011747  -0.017023  0  3.963385  0
C  C148  1  0.89163267  0.97073945  0.86558442  1  1.550938  0  0.194083  0.545999  0  4.2348  0
C  C149  1  0.02925880  0.10836568  0.63441552  1  1.550944  0  0.194005  0.545877  0  4.23499  0
C  C150  1  0.10836954  0.02926511  0.13441477  1  1.551318  0  0.194046  0.546033  0  4.234835  0
C  C151  1  0.97073692  0.89163585  0.36558417  1  1.551047  0  0.193965  0.545965  0  4.234866  0
C  C152  1  0.98814762  0.81467803  0.85423183  1  -0.068529  0  -0.085447  -0.100254  0  3.986033  0
C  C153  1  0.18531738  0.01184808  0.64576966  1  -0.068804  0  -0.085472  -0.100269  0  3.986065  0
C  C154  1  0.01185025  0.18532259  0.14576850  1  -0.069002  0  -0.085459  -0.100181  0  3.986192  0
C  C155  1  0.81467838  0.98815990  0.35422905  1  -0.068446  0  -0.085543  -0.100379  0  3.98617  0
C  C156  1  0.02502024  0.74368769  0.82432401  1  -0.016804  0  -0.08277  -0.099988  0  3.973924  0
C  C157  1  0.25630893  0.97497874  0.67567704  1  -0.016671  0  -0.082753  -0.099953  0  3.973693  0
C  C158  1  0.97498123  0.25631406  0.17567627  1  -0.016187  0  -0.082792  -0.100098  0  3.973993  0
C  C159  1  0.74368679  0.02502279  0.32432265  1  -0.01678  0  -0.08272  -0.099882  0  3.974003  0
C  C160  1  0.09042760  0.76412856  0.65233311  1  -0.128128  0  -0.084275  -0.108505  0  3.973256  0
C  C161  1  0.23586363  0.90957130  0.84766720  1  -0.12874  0  -0.084419  -0.108776  0  3.973478  0
C  C162  1  0.90957747  0.23587217  0.34766617  1  -0.127844  0  -0.084327  -0.108588  0  3.973281  0
C  C163  1  0.76413134  0.09042455  0.15233346  1  -0.128074  0  -0.084285  -0.108498  0  3.973261  0
C  C164  1  0.10681865  0.76692296  0.59822786  1  0.061768  0  -0.085117  -0.094049  0  3.974007  0
C  C165  1  0.23306959  0.89317699  0.90177119  1  0.061794  0  -0.085051  -0.09391  0  3.974081  0
C  C166  1  0.89318282  0.23307522  0.40177085  1  0.061712  0  -0.085058  -0.093931  0  3.973956  0
C  C167  1  0.76692539  0.10681958  0.09822788  1  0.061653  0  -0.085097  -0.094043  0  3.974054  0
C  C168  1  0.12386616  0.38284680  0.47731025  1  0.424486  0  0.050275  0.096703  0  3.923424  0
C  C169  1  0.61714981  0.87613223  0.02268882  1  0.424744  0  0.050288  0.096685  0  3.923375  0
C  C170  1  0.87612809  0.61714982  0.52269041  1  0.424892  0  0.050152  0.096364  0  3.923552  0
C  C171  1  0.38285238  0.12386874  0.97731108  1  0.424778  0  0.050185  0.09646  0  3.923395  0
C  C172  1  0.12275192  0.28491693  0.47738356  1  0.040616  0  -0.077238  -0.163852  0  3.901117  0
C  C173  1  0.71507836  0.87725135  0.02261591  1  0.041058  0  -0.077312  -0.163888  0  3.900974  0
C  C174  1  0.87724522  0.71507947  0.52261495  1  0.043415  0  -0.077205  -0.163616  0  3.901009  0
C  C175  1  0.28492093  0.12274842  0.97738590  1  0.041144  0  -0.077242  -0.16381  0  3.90093  0
C  C176  1  0.16445480  0.24628163  0.43213402  1  -0.08433  0  0.019278  0.111239  0  3.953128  0
C  C177  1  0.75371257  0.83555219  0.06786669  1  -0.083719  0  0.019311  0.111312  0  3.953102  0
C  C178  1  0.83554380  0.75371751  0.56786486  1  -0.084246  0  0.019226  0.111086  0  3.953106  0
C  C179  1  0.24628603  0.16445194  0.93213516  1  -0.083399  0  0.019297  0.111347  0  3.953372  0
C  C180  1  0.20985561  0.30892246  0.38969866  1  0.051688  0  -0.073124  -0.156889  0  3.909252  0
C  C181  1  0.69107423  0.79015011  0.11030157  1  0.051156  0  -0.073179  -0.156993  0  3.909362  0
C  C182  1  0.79014156  0.69107895  0.61030015  1  0.051786  0  -0.073137  -0.15685  0  3.909342  0
C  C183  1  0.30892220  0.20985277  0.88970097  1  0.051386  0  -0.073199  -0.156994  0  3.90954  0
C  C184  1  0.20697346  0.40597313  0.39222813  1  0.458226  0  0.056637  0.1103  0  3.924402  0
C  C185  1  0.59402490  0.79302881  0.10777119  1  0.457951  0  0.05661  0.110262  0  3.924508  0
C  C186  1  0.79302512  0.59402599  0.60777304  1  0.458324  0  0.05656  0.110197  0  3.924419  0
C  C187  1  0.40597512  0.20697092  0.89222864  1  0.458256  0  0.056628  0.110266  0  3.924426  0
C  C188  1  0.15818209  0.14455530  0.42806614  1  0.044842  0  0.019484  0.114141  0  3.956832  0
C  C189  1  0.85544218  0.84182691  0.07193557  1  0.044669  0  0.019585  0.114252  0  3.956833  0
C  C190  1  0.84182011  0.85544497  0.57193231  1  0.044805  0  0.019518  0.114319  0  3.956806  0
C  C191  1  0.14455857  0.15817845  0.92806787  1  0.044377  0  0.019556  0.114244  0  3.956853  0
C  C192  1  0.13638330  0.07521011  0.47266823  1  -0.028769  0  -0.080497  -0.172342  0  3.905286  0
C  C193  1  0.92478972  0.86362350  0.02733306  1  -0.028487  0  -0.080575  -0.172491  0  3.905342  0
C  C194  1  0.86362105  0.92478854  0.52733016  1  -0.028699  0  -0.08047  -0.172341  0  3.90527  0
C  C195  1  0.07521173  0.13637822  0.97267064  1  -0.028739  0  -0.08055  -0.172509  0  3.905296  0
C  C196  1  0.12846424  0.98117741  0.46651460  1  0.46384  0  0.049482  0.104054  0  3.934724  0
C  C197  1  0.01881997  0.87154230  0.03348617  1  0.463676  0  0.049492  0.10412  0  3.934784  0
C  C198  1  0.87154368  0.01881950  0.53348515  1  0.463729  0  0.049542  0.104183  0  3.934606  0
C  C199  1  0.98118149  0.12846015  0.96651557  1  0.464088  0  0.049483  0.104158  0  3.934705  0
C  C200  1  0.16382150  0.01848794  0.37640975  1  0.506539  0  0.050711  0.09821  0  3.936536  0
C  C201  1  0.98150376  0.83618273  0.12359212  1  0.506474  0  0.050623  0.098213  0  3.936572  0
C  C202  1  0.83617850  0.98150605  0.62359062  1  0.506484  0  0.050581  0.09811  0  3.93678  0
C  C203  1  0.01849554  0.16381990  0.87641018  1  0.506424  0  0.050566  0.098115  0  3.936733  0
C  C204  1  0.17132639  0.11442171  0.37893618  1  -0.081562  0  -0.082137  -0.176602  0  3.925886  0
C  C205  1  0.88557174  0.82867924  0.12106620  1  -0.081379  0  -0.082172  -0.176672  0  3.926091  0
C  C206  1  0.82867507  0.88557432  0.62106235  1  -0.081599  0  -0.082131  -0.176738  0  3.926185  0
C  C207  1  0.11442827  0.17132403  0.87893788  1  -0.081481  0  -0.08209  -0.176615  0  3.926171  0
C  C208  1  0.40410277  0.71724572  0.34783056  1  -0.036238  0  -0.006582  -0.017001  0  3.947987  0
C  C209  1  0.28275497  0.59589849  0.15217056  1  -0.036533  0  -0.00661  -0.016974  0  3.94816  0
C  C210  1  0.59589653  0.28275191  0.65216992  1  -0.036257  0  -0.006574  -0.016933  0  3.947968  0
C  C211  1  0.71724721  0.40410248  0.84782935  1  -0.036497  0  -0.00658  -0.016904  0  3.947983  0
C  C212  1  0.48017732  0.65391610  0.36388565  1  -0.00898  0  -0.081656  -0.093769  0  3.975329  0
C  C213  1  0.34608131  0.51982287  0.13611467  1  -0.008613  0  -0.081678  -0.093817  0  3.975472  0
C  C214  1  0.51982341  0.34608284  0.63611496  1  -0.008844  0  -0.081695  -0.093885  0  3.975389  0
C  C215  1  0.65391584  0.48017638  0.86388548  1  -0.008678  0  -0.081664  -0.093801  0  3.975326  0
C  C216  1  0.57418637  0.66838283  0.33969115  1  -0.071701  0  -0.082953  -0.10949  0  3.989467  0
C  C217  1  0.33161466  0.42581358  0.16030877  1  -0.071939  0  -0.082975  -0.109522  0  3.989527  0
C  C218  1  0.42581293  0.33161623  0.66030958  1  -0.071811  0  -0.08302  -0.1095  0  3.989438  0
C  C219  1  0.66838393  0.57418770  0.83969143  1  -0.071766  0  -0.083025  -0.109598  0  3.989505  0
C  C220  1  0.59268808  0.74444221  0.29791464  1  -0.036191  0  -0.015224  -0.011501  0  3.98459  0
C  C221  1  0.25555976  0.40731095  0.20208574  1  -0.036189  0  -0.015175  -0.011386  0  3.984496  0
C  C222  1  0.40731194  0.25555822  0.70208628  1  -0.036219  0  -0.015199  -0.011523  0  3.98462  0
C  C223  1  0.74444170  0.59268721  0.79791411  1  -0.036195  0  -0.01518  -0.011428  0  3.984584  0
C  C224  1  0.69148711  0.75859508  0.26910078  1  0.914687  0  0.16707  0.355927  0  3.976649  0
C  C225  1  0.24140630  0.30851259  0.23089880  1  0.914659  0  0.167024  0.355915  0  3.976634  0
C  C226  1  0.30851435  0.24140665  0.73090102  1  0.915316  0  0.167093  0.356013  0  3.976598  0
C  C227  1  0.75859372  0.69148571  0.76910041  1  0.914736  0  0.167052  0.355854  0  3.97661  0
C  C228  1  0.77665745  0.72228416  0.29502461  1  0.013077  0  -0.014634  -0.008382  0  3.992529  0
C  C229  1  0.27771708  0.22334407  0.20497248  1  0.013252  0  -0.014658  -0.008559  0  3.992477  0
C  C230  1  0.22334474  0.27771752  0.70497599  1  0.012229  0  -0.014638  -0.008382  0  3.99236  0
C  C231  1  0.72228296  0.77665423  0.79502558  1  0.0131  0  -0.014673  -0.008586  0  3.992419  0
C  C232  1  0.77782484  0.72916146  0.34749706  1  -0.09135  0  -0.079895  -0.104352  0  3.975703  0
C  C233  1  0.27083795  0.22217597  0.15249989  1  -0.091425  0  -0.079894  -0.104311  0  3.975715  0
C  C234  1  0.22217807  0.27084088  0.65250341  1  -0.091141  0  -0.079899  -0.104407  0  3.975744  0
C  C235  1  0.72915992  0.77782250  0.84749950  1  -0.091387  0  -0.079888  -0.104295  0  3.975677  0
C  C236  1  0.86203131  0.70326902  0.36881901  1  -0.014446  0  -0.08301  -0.089986  0  3.954387  0
C  C237  1  0.29673137  0.13797080  0.13117883  1  -0.014749  0  -0.083022  -0.08997  0  3.954458  0
C  C238  1  0.13797159  0.29673260  0.63118267  1  -0.014731  0  -0.083018  -0.089994  0  3.954454  0
C  C239  1  0.70326939  0.86202816  0.86881949  1  -0.014355  0  -0.083007  -0.089934  0  3.954544  0
C  C240  1  0.94540966  0.66806366  0.33848512  1  0.019222  0  -0.005135  -0.012281  0  3.940043  0
C  C241  1  0.33193960  0.05459221  0.16151091  1  0.019239  0  -0.00517  -0.012334  0  3.940191  0
C  C242  1  0.05459397  0.33194005  0.66151554  1  0.019622  0  -0.005168  -0.012327  0  3.940267  0
C  C243  1  0.66806547  0.94540710  0.83848774  1  0.019148  0  -0.005117  -0.012303  0  3.940073  0
C  C244  1  0.03607864  0.63732460  0.36081943  1  1.523979  0  0.202545  0.564782  0  4.191005  0
C  C245  1  0.36268169  0.96392537  0.13917608  1  1.523297  0  0.202441  0.564581  0  4.191365  0
C  C246  1  0.96392353  0.36267707  0.63918307  1  1.523078  0  0.202635  0.564878  0  4.190975  0
C  C247  1  0.63732486  0.03607670  0.86081952  1  1.523513  0  0.202546  0.564868  0  4.190975  0
C  C248  1  0.94354108  0.65909809  0.28636432  1  -0.058048  0  -0.073968  -0.084707  0  3.957176  0
C  C249  1  0.34090737  0.05645750  0.21363180  1  -0.057931  0  -0.073924  -0.084661  0  3.957046  0
C  C250  1  0.05645967  0.34090514  0.71363702  1  -0.058835  0  -0.073945  -0.084626  0  3.957147  0
C  C251  1  0.65909772  0.94354397  0.78636437  1  -0.057754  0  -0.073963  -0.084778  0  3.95711  0
C  C252  1  0.86049212  0.68709060  0.26465083  1  -0.021832  0  -0.078547  -0.095777  0  3.962167  0
C  C253  1  0.31291141  0.13950698  0.23534561  1  -0.021914  0  -0.07857  -0.09568  0  3.962017  0
C  C254  1  0.13950935  0.31291258  0.73534970  1  -0.021437  0  -0.078518  -0.095818  0  3.962074  0
C  C255  1  0.68709223  0.86049317  0.76465233  1  -0.021988  0  -0.078531  -0.095633  0  3.962044  0
C  C256  1  0.51565910  0.80544920  0.28062003  1  -0.090342  0  -0.072146  -0.079311  0  3.932381  0
C  C257  1  0.19454738  0.48433986  0.21937939  1  -0.090241  0  -0.072243  -0.079486  0  3.932235  0
C  C258  1  0.48434020  0.19454916  0.71938001  1  -0.09038  0  -0.072143  -0.079263  0  3.932302  0
C  C259  1  0.80545265  0.51566058  0.78062114  1  -0.090341  0  -0.072189  -0.079313  0  3.93248  0
C  C260  1  0.42224798  0.79305506  0.30606604  1  0.042461  0  -0.073347  -0.080566  0  3.940398  0
C  C261  1  0.20694416  0.57775220  0.19393343  1  0.042349  0  -0.073274  -0.080502  0  3.940304  0
C  C262  1  0.57775204  0.20694323  0.69393431  1  0.042446  0  -0.073352  -0.080622  0  3.940432  0
C  C263  1  0.79305732  0.42225097  0.80606710  1  0.042472  0  -0.073326  -0.080616  0  3.940482  0
N  N264  1  0.16369565  0.44280069  0.43514145  1  -1.268719  0  -0.33315  -0.234552  0  3.592473  0
N  N265  1  0.55719614  0.83630618  0.06485881  1  -1.268828  0  -0.333113  -0.234551  0  3.592526  0
N  N266  1  0.83630219  0.55719633  0.56486112  1  -1.268931  0  -0.332974  -0.234376  0  3.592519  0
N  N267  1  0.44280606  0.16369552  0.93513989  1  -1.268888  0  -0.33303  -0.234415  0  3.592501  0
N  N268  1  0.14237526  0.95254992  0.41943670  1  -1.25015  0  -0.323041  -0.22869  0  3.541404  0
N  N269  1  0.04744326  0.85762915  0.08056462  1  -1.249944  0  -0.32299  -0.228744  0  3.541367  0
N  N270  1  0.85762905  0.04744513  0.58056393  1  -1.249986  0  -0.323007  -0.228744  0  3.541362  0
N  N271  1  0.95255677  0.14237486  0.91943672  1  -1.249993  0  -0.322962  -0.228754  0  3.541433  0
O  O272  1  0.24328243  0.77723034  0.37207853  1  -1.164498  0  -0.307708  -0.538188  0  2.360501  0
O  O273  1  0.22277346  0.75671767  0.12792249  1  -1.165063  0  -0.307654  -0.53813  0  2.360562  0
O  O274  1  0.75671833  0.22277005  0.62792042  1  -1.164595  0  -0.307717  -0.538188  0  2.360568  0
O  O275  1  0.77722943  0.24328322  0.87207964  1  -1.164546  0  -0.307687  -0.538156  0  2.360635  0
O  O276  1  0.28640051  0.62053762  0.40084650  1  -1.165728  0  -0.318503  -0.542264  0  2.339766  0
O  O277  1  0.37946389  0.71359714  0.09915450  1  -1.165734  0  -0.318521  -0.542319  0  2.339657  0
O  O278  1  0.71359879  0.37946216  0.59915455  1  -1.165671  0  -0.31852  -0.542355  0  2.339735  0
O  O279  1  0.62053613  0.28640115  0.90084509  1  -1.165713  0  -0.318497  -0.542268  0  2.339696  0
O  O280  1  0.12770497  0.60316649  0.50530934  1  -1.168096  0  -0.316967  -0.535724  0  2.34928  0
O  O281  1  0.39682545  0.87229002  0.99469013  1  -1.170127  0  -0.31686  -0.535688  0  2.349414  0
O  O282  1  0.87229287  0.39682983  0.49469139  1  -1.168081  0  -0.316918  -0.535676  0  2.34933  0
O  O283  1  0.60316882  0.12770876  0.00530957  1  -1.168059  0  -0.316931  -0.535715  0  2.349276  0
O  O284  1  0.10811866  0.76630770  0.48856755  1  -1.18731  0  -0.306693  -0.55272  0  2.380287  0
O  O285  1  0.23368684  0.89187209  0.01143181  1  -1.187493  0  -0.306735  -0.552789  0  2.380336  0
O  O286  1  0.89187705  0.23368953  0.51143139  1  -1.187368  0  -0.306704  -0.552685  0  2.380328  0
O  O287  1  0.76631030  0.10812644  0.98856840  1  -1.187375  0  -0.306678  -0.552733  0  2.380289  0
O  O288  1  0.05398709  0.58869000  0.76986854  1  -1.079694  0  -0.271663  -0.411943  0  2.063373  0
O  O289  1  0.41130270  0.94601352  0.73013227  1  -1.079637  0  -0.271623  -0.411855  0  2.06342  0
O  O290  1  0.94602516  0.41131012  0.23013203  1  -1.07958  0  -0.271717  -0.411954  0  2.063225  0
O  O291  1  0.58869010  0.05397822  0.26986746  1  -1.079461  0  -0.271694  -0.411938  0  2.063118  0
O  O292  1  0.86244803  0.05411914  0.84311283  1  -1.155317  0  -0.321733  -0.535749  0  2.231315  0
O  O293  1  0.94588064  0.13755385  0.65688744  1  -1.155301  0  -0.321699  -0.5357  0  2.23136  0
O  O294  1  0.13755490  0.94588536  0.15688629  1  -1.155578  0  -0.321681  -0.535726  0  2.231252  0
O  O295  1  0.05411579  0.86244760  0.34311295  1  -1.155273  0  -0.321703  -0.535681  0  2.231226  0
O  O296  1  0.88089996  0.94891059  0.91513596  1  -1.187841  0  -0.320712  -0.567387  0  2.213346  0
O  O297  1  0.05108992  0.11909680  0.58486468  1  -1.187825  0  -0.320674  -0.567348  0  2.213382  0
O  O298  1  0.11910513  0.05109444  0.08486368  1  -1.187897  0  -0.320723  -0.567432  0  2.213457  0
O  O299  1  0.94890652  0.88090323  0.41513508  1  -1.187912  0  -0.320621  -0.567367  0  2.213465  0
O  O300  1  0.70385500  0.80068261  0.22311404  1  -1.110104  0  -0.257478  -0.418866  0  2.177283  0
O  O301  1  0.19932002  0.29614504  0.27688540  1  -1.110185  0  -0.257419  -0.418811  0  2.177238  0
O  O302  1  0.29614503  0.19932140  0.77688845  1  -1.110161  0  -0.257456  -0.418885  0  2.177181  0
O  O303  1  0.80068218  0.70385523  0.72311342  1  -1.110151  0  -0.257439  -0.418772  0  2.177165  0
O  O304  1  0.03837133  0.65957415  0.40715328  1  -1.171333  0  -0.334199  -0.593921  0  2.3657  0
O  O305  1  0.34042730  0.96163222  0.09284310  1  -1.171256  0  -0.334104  -0.593779  0  2.365684  0
O  O306  1  0.96163011  0.34042614  0.59284979  1  -1.170943  0  -0.334227  -0.59393  0  2.365572  0
O  O307  1  0.65957708  0.03836932  0.90715312  1  -1.170985  0  -0.334157  -0.593928  0  2.365731  0
O  O308  1  0.10378068  0.59020985  0.33705783  1  -1.157615  0  -0.309048  -0.527534  0  2.114152  0
O  O309  1  0.40979901  0.89622400  0.16293429  1  -1.157224  0  -0.309039  -0.527497  0  2.114437  0
O  O310  1  0.89622077  0.40979116  0.66294442  1  -1.157163  0  -0.30915  -0.52765  0  2.114113  0
O  O311  1  0.59020970  0.10377790  0.83706074  1  -1.157521  0  -0.309102  -0.527614  0  2.114189  0
