# generated using pymatgen
data_ZnH6C7O4
_symmetry_space_group_name_H-M   'P 1'
_cell_length_a   7.36312063
_cell_length_b   7.35441964
_cell_length_c   13.67887810
_cell_angle_alpha   105.61474962
_cell_angle_beta   105.65693062
_cell_angle_gamma   89.98011570
_symmetry_Int_Tables_number   1
_chemical_formula_structural   ZnH6C7O4
_chemical_formula_sum   'Zn4 H24 C28 O16'
_cell_volume   684.83242368
_cell_formula_units_Z   4
loop_
 _symmetry_equiv_pos_site_id
 _symmetry_equiv_pos_as_xyz
  1  'x, y, z'
loop_
 _atom_site_type_symbol
 _atom_site_label
 _atom_site_symmetry_multiplicity
 _atom_site_fract_x
 _atom_site_fract_y
 _atom_site_fract_z
 _atom_site_occupancy
 _atom_site_hle17_bader_spin_density
 _atom_site_hle17_ddec_charge
 _atom_site_hle17_ddec_spin_density
 _atom_site_hle17_ddec_sum_bond_order
 _atom_site_hle17_magmom
 _atom_site_hse06_10hf_bader_spin_density
 _atom_site_hse06_10hf_ddec_charge
 _atom_site_hse06_10hf_ddec_spin_density
 _atom_site_hse06_10hf_ddec_sum_bond_order
 _atom_site_hse06_10hf_magmom
 _atom_site_hse06_bader_spin_density
 _atom_site_hse06_ddec_charge
 _atom_site_hse06_ddec_spin_density
 _atom_site_hse06_ddec_sum_bond_order
 _atom_site_hse06_magmom
 _atom_site_pbe_bader_spin_density
 _atom_site_pbe_cm5_charge
 _atom_site_pbe_ddec_charge
 _atom_site_pbe_ddec_spin_density
 _atom_site_pbe_ddec_sum_bond_order
 _atom_site_pbe_magmom
Zn  Zn0  1  0.03023580  0.28010623  0.06028739  1  0  1.215386  0  1.740904  0  0  1.043493  0  2.232859  0  0  1.092617  0  2.164544  0  0  0.725072  1.008636  0  2.280389  0
Zn  Zn1  1  0.78005495  0.53020012  0.56018300  1  0  1.215354  0  1.740965  0  0  1.043706  0  2.23292  0  0  1.092754  0  2.164646  0  0  0.724939  1.008899  0  2.280418  0
Zn  Zn2  1  0.96976116  0.71989795  0.93970944  1  0  1.2153  0  1.741432  0  0  1.043427  0  2.233486  0  0  1.092545  0  2.165166  0  0  0.724949  1.008576  0  2.281016  0
Zn  Zn3  1  0.21995233  0.46980974  0.43981684  1  0  1.215324  0  1.74106  0  0  1.043788  0  2.232976  0  0  1.092831  0  2.1647  0  0  0.724971  1.008981  0  2.280469  0
H  H4  1  0.68771699  0.14236756  0.70038904  1  0  0.091543  0  0.920345  0  0  0.108746  0  0.979682  0  0  0.109998  0  0.979946  0  0  0.097647  0.107823  0  0.979571  0
H  H5  1  0.55786542  0.18846185  0.20000937  1  0  0.092354  0  0.920015  0  0  0.108829  0  0.979711  0  0  0.109987  0  0.980033  0  0  0.097984  0.10795  0  0.979586  0
H  H6  1  0.64255577  0.51177637  0.20012115  1  0  0.092343  0  0.920958  0  0  0.109126  0  0.980175  0  0  0.110296  0  0.980478  0  0  0.098498  0.108249  0  0.980037  0
H  H7  1  0.01195040  0.05763620  0.69993130  1  0  0.090703  0  0.922067  0  0  0.10757  0  0.981623  0  0  0.108774  0  0.981932  0  0  0.097641  0.106652  0  0.981522  0
H  H8  1  0.31228570  0.85763670  0.29961593  1  0  0.091536  0  0.92042  0  0  0.108744  0  0.979743  0  0  0.109995  0  0.980007  0  0  0.09765  0.107824  0  0.979635  0
H  H9  1  0.44213126  0.81153811  0.79999048  1  0  0.092336  0  0.920069  0  0  0.108841  0  0.979782  0  0  0.11  0  0.980105  0  0  0.097991  0.107966  0  0.979655  0
H  H10  1  0.35743927  0.48822076  0.79987732  1  0  0.092375  0  0.920915  0  0  0.109141  0  0.980132  0  0  0.110312  0  0.980434  0  0  0.0985  0.10826  0  0.980002  0
H  H11  1  0.98805015  0.94235949  0.30006557  1  0  0.09069  0  0.92209  0  0  0.107595  0  0.981615  0  0  0.108799  0  0.981922  0  0  0.097661  0.106674  0  0.981516  0
H  H12  1  0.71575262  0.02146200  0.79926071  1  0  0.09206  0  0.932316  0  0  0.106157  0  0.997459  0  0  0.107832  0  0.997071  0  0  0.095488  0.10489  0  0.997875  0
H  H13  1  0.77753825  0.21644514  0.29902902  1  0  0.091715  0  0.932012  0  0  0.105578  0  0.997232  0  0  0.107178  0  0.996884  0  0  0.095052  0.104373  0  0.997605  0
H  H14  1  0.52157746  0.58298881  0.29887886  1  0  0.092151  0  0.932519  0  0  0.106048  0  0.997524  0  0  0.107702  0  0.997117  0  0  0.095643  0.104798  0  0.997949  0
H  H15  1  0.08298428  0.27741825  0.79887060  1  0  0.091612  0  0.932969  0  0  0.105502  0  0.99843  0  0  0.107109  0  0.998107  0  0  0.094963  0.104289  0  0.998789  0
H  H16  1  0.28424421  0.97853942  0.20074302  1  0  0.092033  0  0.932338  0  0  0.106132  0  0.997471  0  0  0.107816  0  0.997073  0  0  0.095486  0.104869  0  0.997891  0
H  H17  1  0.22246253  0.78355340  0.70096975  1  0  0.09171  0  0.932033  0  0  0.105606  0  0.997254  0  0  0.107208  0  0.996909  0  0  0.095081  0.104402  0  0.997628  0
H  H18  1  0.47842369  0.41701401  0.70112423  1  0  0.092133  0  0.932558  0  0  0.106054  0  0.997523  0  0  0.107712  0  0.99711  0  0  0.095651  0.104805  0  0.997947  0
H  H19  1  0.91700769  0.72257601  0.20112411  1  0  0.09164  0  0.933036  0  0  0.105541  0  0.998476  0  0  0.107149  0  0.998145  0  0  0.095006  0.104325  0  0.998837  0
H  H20  1  0.39666022  0.31579872  0.94142025  1  0  0.089108  0  0.93628  0  0  0.105437  0  0.996731  0  0  0.106656  0  0.99684  0  0  0.093143  0.104488  0  0.996798  0
H  H21  1  0.62577233  0.89737915  0.44135488  1  0  0.089269  0  0.935327  0  0  0.104988  0  0.996589  0  0  0.106242  0  0.99668  0  0  0.092467  0.104023  0  0.996643  0
H  H22  1  0.81589116  0.04461824  0.44139629  1  0  0.089144  0  0.93674  0  0  0.105019  0  0.99776  0  0  0.1062  0  0.997961  0  0  0.09275  0.104046  0  0.997821  0
H  H23  1  0.54404147  0.12564378  0.94157199  1  0  0.090041  0  0.935132  0  0  0.104915  0  0.997252  0  0  0.106123  0  0.997367  0  0  0.092336  0.10399  0  0.997279  0
H  H24  1  0.60333203  0.68419843  0.05858076  1  0  0.08924  0  0.936279  0  0  0.105537  0  0.996736  0  0  0.106756  0  0.996846  0  0  0.093176  0.104586  0  0.996807  0
H  H25  1  0.37422833  0.10261795  0.55864147  1  0  0.089269  0  0.935335  0  0  0.10499  0  0.996577  0  0  0.106242  0  0.996672  0  0  0.092482  0.104024  0  0.99663  0
H  H26  1  0.18410954  0.95537892  0.55860520  1  0  0.089145  0  0.936753  0  0  0.105015  0  0.997764  0  0  0.106196  0  0.997965  0  0  0.092764  0.104043  0  0.997819  0
H  H27  1  0.45595785  0.87435339  0.05843150  1  0  0.0901  0  0.935245  0  0  0.104971  0  0.997324  0  0  0.106181  0  0.997438  0  0  0.092352  0.104044  0  0.997356  0
C  C28  1  0.71995027  0.39545191  0.88864127  1  0  0.695414  0  3.780895  0  0  0.642926  0  4.075017  0  0  0.677399  0  4.067381  0  0  0.238431  0.619327  0  4.079594  0
C  C29  1  0.49273378  0.22037715  0.38821544  1  0  0.694471  0  3.78075  0  0  0.642751  0  4.073865  0  0  0.677223  0  4.066251  0  0  0.238856  0.619166  0  4.078406  0
C  C30  1  0.89549837  0.66813459  0.38842686  1  0  0.693251  0  3.779093  0  0  0.640997  0  4.072973  0  0  0.675458  0  4.06533  0  0  0.23772  0.617419  0  4.07753  0
C  C31  1  0.16791943  0.99269442  0.88823369  1  0  0.69207  0  3.785861  0  0  0.640342  0  4.077328  0  0  0.674848  0  4.06969  0  0  0.237148  0.616727  0  4.081906  0
C  C32  1  0.28005241  0.60453262  0.11137040  1  0  0.695315  0  3.78099  0  0  0.642936  0  4.074919  0  0  0.677407  0  4.067283  0  0  0.238468  0.619341  0  4.079487  0
C  C33  1  0.50727039  0.77962849  0.61178701  1  0  0.69465  0  3.780429  0  0  0.64272  0  4.073759  0  0  0.67719  0  4.066142  0  0  0.238932  0.619134  0  4.078303  0
C  C34  1  0.10450237  0.33186391  0.61156824  1  0  0.693385  0  3.779134  0  0  0.64109  0  4.073102  0  0  0.675546  0  4.065459  0  0  0.237719  0.617512  0  4.077665  0
C  C35  1  0.83208336  0.00732967  0.11177411  1  0  0.692042  0  3.785927  0  0  0.640366  0  4.077298  0  0  0.674896  0  4.069628  0  0  0.237167  0.616743  0  4.081883  0
C  C36  1  0.54517529  0.26463399  0.82056209  1  0  0.010985  0  3.578395  0  0  0.036932  0  3.807846  0  0  0.031658  0  3.825088  0  0  -0.015173  0.040542  0  3.795967  0
C  C37  1  0.55588858  0.04573384  0.32023657  1  0  0.011832  0  3.579303  0  0  0.037662  0  3.808778  0  0  0.032425  0  3.826023  0  0  -0.014266  0.041252  0  3.796901  0
C  C38  1  0.76465905  0.77493541  0.32039372  1  0  0.013486  0  3.575205  0  0  0.039448  0  3.804576  0  0  0.034182  0  3.821797  0  0  -0.015651  0.043043  0  3.792686  0
C  C39  1  0.27470657  0.05557395  0.82033699  1  0  0.009486  0  3.579851  0  0  0.038273  0  3.80438  0  0  0.033014  0  3.821532  0  0  -0.015338  0.041875  0  3.792566  0
C  C40  1  0.45482292  0.73536741  0.17943964  1  0  0.010974  0  3.578532  0  0  0.036892  0  3.807943  0  0  0.031621  0  3.825184  0  0  -0.015235  0.040506  0  3.796069  0
C  C41  1  0.44411364  0.95426473  0.67976533  1  0  0.011746  0  3.579381  0  0  0.037749  0  3.808729  0  0  0.032517  0  3.825971  0  0  -0.01426  0.041331  0  3.79685  0
C  C42  1  0.23534465  0.22506454  0.67960493  1  0  0.013459  0  3.575145  0  0  0.039378  0  3.804572  0  0  0.034114  0  3.8218  0  0  -0.015634  0.042977  0  3.792684  0
C  C43  1  0.72528728  0.94442600  0.17966172  1  0  0.009479  0  3.57998  0  0  0.038238  0  3.804508  0  0  0.032962  0  3.821653  0  0  -0.015362  0.041842  0  3.792691  0
C  C44  1  0.61457440  0.09306620  0.74997380  1  0  -0.180336  0  3.597507  0  0  -0.232125  0  3.843695  0  0  -0.233457  0  3.857372  0  0  -0.156946  -0.231017  0  3.834208  0
C  C45  1  0.65668400  0.11521735  0.24968875  1  0  -0.181473  0  3.596762  0  0  -0.232175  0  3.840232  0  0  -0.233413  0  3.853902  0  0  -0.156778  -0.231168  0  3.830802  0
C  C46  1  0.59328721  0.63475142  0.24966151  1  0  -0.182294  0  3.598126  0  0  -0.232511  0  3.842123  0  0  -0.233773  0  3.855802  0  0  -0.157033  -0.231473  0  3.832684  0
C  C47  1  0.13480709  0.15650044  0.74962503  1  0  -0.178821  0  3.59736  0  0  -0.230928  0  3.842826  0  0  -0.232206  0  3.856486  0  0  -0.156067  -0.229851  0  3.83332  0
C  C48  1  0.38542534  0.90693663  0.25002908  1  0  -0.180335  0  3.597614  0  0  -0.232059  0  3.843779  0  0  -0.2334  0  3.857466  0  0  -0.156979  -0.230963  0  3.834287  0
C  C49  1  0.34331008  0.88478545  0.75031186  1  0  -0.181346  0  3.596709  0  0  -0.232196  0  3.840261  0  0  -0.233447  0  3.853943  0  0  -0.156799  -0.231188  0  3.830834  0
C  C50  1  0.40671230  0.36524855  0.75033947  1  0  -0.182317  0  3.598209  0  0  -0.232482  0  3.842121  0  0  -0.233744  0  3.855799  0  0  -0.157062  -0.231438  0  3.832683  0
C  C51  1  0.86519226  0.84349808  0.25037134  1  0  -0.178758  0  3.597447  0  0  -0.230955  0  3.842984  0  0  -0.232254  0  3.856708  0  0  -0.156128  -0.229876  0  3.833474  0
C  C52  1  0.44475658  0.19504213  0.89018024  1  0  -0.183298  0  3.627551  0  0  -0.233243  0  3.868248  0  0  -0.234273  0  3.882035  0  0  -0.165205  -0.232355  0  3.858705  0
C  C53  1  0.69514677  0.94527077  0.39004926  1  0  -0.183907  0  3.628232  0  0  -0.233507  0  3.870005  0  0  -0.234597  0  3.883932  0  0  -0.164702  -0.232546  0  3.860381  0
C  C54  1  0.55523589  0.80495785  0.10982120  1  0  -0.183462  0  3.627892  0  0  -0.233343  0  3.868464  0  0  -0.234372  0  3.88225  0  0  -0.16519  -0.232459  0  3.858931  0
C  C55  1  0.30485663  0.05472496  0.60995094  1  0  -0.183924  0  3.628238  0  0  -0.233517  0  3.869935  0  0  -0.234611  0  3.883869  0  0  -0.164737  -0.232552  0  3.860306  0
O  O56  1  0.80521209  0.37186428  0.97807939  1  0  -0.694173  0  2.115269  0  0  -0.62815  0  2.41474  0  0  -0.655648  0  2.393735  0  0  -0.330794  -0.608953  0  2.428778  0
O  O57  1  0.60550306  0.30567254  0.47774789  1  0  -0.693831  0  2.114755  0  0  -0.627969  0  2.414153  0  0  -0.655487  0  2.393182  0  0  -0.330653  -0.608752  0  2.428154  0
O  O58  1  0.87208681  0.67235919  0.47787527  1  0  -0.693548  0  2.114401  0  0  -0.627803  0  2.414078  0  0  -0.6553  0  2.393097  0  0  -0.33047  -0.608605  0  2.428087  0
O  O59  1  0.17211396  0.10585001  0.97764028  1  0  -0.692631  0  2.116114  0  0  -0.62729  0  2.415427  0  0  -0.654881  0  2.394587  0  0  -0.330579  -0.608015  0  2.429325  0
O  O60  1  0.19477429  0.62814842  0.02192153  1  0  -0.694309  0  2.114792  0  0  -0.628342  0  2.414267  0  0  -0.655845  0  2.393258  0  0  -0.330903  -0.609145  0  2.428306  0
O  O61  1  0.39450965  0.69431609  0.52225044  1  0  -0.693867  0  2.114616  0  0  -0.628038  0  2.414196  0  0  -0.655555  0  2.393224  0  0  -0.330722  -0.608818  0  2.428194  0
O  O62  1  0.12792448  0.32764785  0.52212474  1  0  -0.693621  0  2.114481  0  0  -0.627866  0  2.414177  0  0  -0.655363  0  2.393198  0  0  -0.330491  -0.608663  0  2.428183  0
O  O63  1  0.82788351  0.89414280  0.02235135  1  0  -0.692782  0  2.115701  0  0  -0.627437  0  2.414923  0  0  -0.655041  0  2.394076  0  0  -0.330669  -0.608159  0  2.428826  0
O  O64  1  0.77068203  0.52211782  0.85143364  1  0  -0.6208  0  2.052971  0  0  -0.545278  0  2.322629  0  0  -0.573756  0  2.305584  0  0  -0.301924  -0.525511  0  2.33388  0
O  O65  1  0.32876750  0.27089450  0.35106570  1  0  -0.618969  0  2.050873  0  0  -0.544545  0  2.321124  0  0  -0.573  0  2.304052  0  0  -0.301768  -0.524787  0  2.33235  0
O  O66  1  0.02220320  0.58024462  0.35131676  1  0  -0.620829  0  2.051281  0  0  -0.545207  0  2.320516  0  0  -0.573657  0  2.303468  0  0  -0.301846  -0.525458  0  2.33176  0
O  O67  1  0.07988253  0.82875852  0.85102514  1  0  -0.618717  0  2.053319  0  0  -0.54373  0  2.322357  0  0  -0.572201  0  2.305283  0  0  -0.300497  -0.52399  0  2.333641  0
O  O68  1  0.22932836  0.47787785  0.14856097  1  0  -0.62062  0  2.053658  0  0  -0.545126  0  2.323243  0  0  -0.573601  0  2.306201  0  0  -0.301855  -0.525365  0  2.33449  0
O  O69  1  0.67125012  0.72912107  0.64894008  1  0  -0.619252  0  2.050916  0  0  -0.54453  0  2.320969  0  0  -0.573017  0  2.303974  0  0  -0.30182  -0.524761  0  2.332173  0
O  O70  1  0.97780602  0.41975390  0.64868028  1  0  -0.6208  0  2.051299  0  0  -0.545201  0  2.320635  0  0  -0.573649  0  2.303582  0  0  -0.301822  -0.52545  0  2.331884  0
O  O71  1  0.92010078  0.17123291  0.14896939  1  0  -0.618635  0  2.053918  0  0  -0.543643  0  2.322889  0  0  -0.572118  0  2.305809  0  0  -0.300427  -0.523898  0  2.334169  0
