# generated using pymatgen
data_Ag2H30C29(NO)4
_symmetry_space_group_name_H-M   'P 1'
_cell_length_a   10.02060462
_cell_length_b   10.30009890
_cell_length_c   15.23300000
_cell_angle_alpha   76.97172821
_cell_angle_beta   72.22894178
_cell_angle_gamma   86.74332263
_symmetry_Int_Tables_number   1
_chemical_formula_structural   Ag2H30C29(NO)4
_chemical_formula_sum   'Ag4 H60 C58 N8 O8'
_cell_volume   1458.56304409
_cell_formula_units_Z   2
loop_
 _symmetry_equiv_pos_site_id
 _symmetry_equiv_pos_as_xyz
  1  'x, y, z'
loop_
 _atom_site_type_symbol
 _atom_site_label
 _atom_site_symmetry_multiplicity
 _atom_site_fract_x
 _atom_site_fract_y
 _atom_site_fract_z
 _atom_site_occupancy
 _atom_site_hle17_bader_spin_density
 _atom_site_hle17_ddec_charge
 _atom_site_hle17_ddec_spin_density
 _atom_site_hle17_ddec_sum_bond_order
 _atom_site_hle17_magmom
 _atom_site_hse06_10hf_bader_spin_density
 _atom_site_hse06_10hf_ddec_charge
 _atom_site_hse06_10hf_ddec_spin_density
 _atom_site_hse06_10hf_ddec_sum_bond_order
 _atom_site_hse06_10hf_magmom
 _atom_site_hse06_bader_spin_density
 _atom_site_hse06_ddec_charge
 _atom_site_hse06_ddec_spin_density
 _atom_site_hse06_ddec_sum_bond_order
 _atom_site_hse06_magmom
 _atom_site_pbe_bader_charge
 _atom_site_pbe_bader_spin_density
 _atom_site_pbe_cm5_charge
 _atom_site_pbe_ddec_charge
 _atom_site_pbe_ddec_spin_density
 _atom_site_pbe_ddec_sum_bond_order
 _atom_site_pbe_magmom
Ag  Ag0  1  0.59848827  0.90442767  0.54301716  1  0  0.488526  0  1.539307  0  0  0.340549  0  2.011943  0  0  0.368632  0  1.962497  0  0.582916  0  0.462316  0.323701  0  2.04461  0
Ag  Ag1  1  0.40151085  0.09557286  0.45698280  1  0  0.488535  0  1.539247  0  0  0.340546  0  2.011905  0  0  0.368628  0  1.96246  0  0.583202  0  0.462321  0.323697  0  2.044573  0
Ag  Ag2  1  0.55197455  0.53429075  0.07842160  1  0  0.493197  0  1.505823  0  0  0.34498  0  1.972091  0  0  0.373973  0  1.922415  0  0.582798  0  0.464013  0.325822  0  2.005598  0
Ag  Ag3  1  0.44802457  0.46570978  0.92157705  1  0  0.493188  0  1.505846  0  0  0.344975  0  1.972112  0  0  0.373966  0  1.922437  0  0.58287  0  0.464006  0.325815  0  2.00562  0
H  H4  1  0.49770789  0.61770211  0.35271112  1  0  0.093232  0  0.926663  0  0  0.110232  0  0.982513  0  0  0.112183  0  0.981619  0  0.043339  0  0.093205  0.108845  0  0.983211  0
H  H5  1  0.50229330  0.38229643  0.64728742  1  0  0.093244  0  0.926679  0  0  0.110241  0  0.982526  0  0  0.112195  0  0.981631  0  0.043343  0  0.093211  0.108859  0  0.98322  0
H  H6  1  0.65117550  0.53869074  0.37492091  1  0  0.07796  0  0.951187  0  0  0.094469  0  1.011443  0  0  0.095742  0  1.011333  0  0.019942  0  0.085141  0.093485  0  1.011805  0
H  H7  1  0.34882361  0.46130880  0.62507986  1  0  0.077946  0  0.951194  0  0  0.094448  0  1.01146  0  0  0.095723  0  1.011351  0  0.019944  0  0.085138  0.093466  0  1.011821  0
H  H8  1  0.69232843  0.65144696  0.20295151  1  0  0.0512  0  0.957005  0  0  0.068309  0  1.029528  0  0  0.069785  0  1.027891  0  0.011641  0  0.079377  0.067364  0  1.030635  0
H  H9  1  0.30767383  0.34855258  0.79704798  1  0  0.051223  0  0.956924  0  0  0.068281  0  1.029504  0  0  0.069762  0  1.027857  0  0.011612  0  0.079369  0.067337  0  1.03061  0
H  H10  1  0.63915896  0.80275762  0.23429178  1  0  0.078095  0  0.926741  0  0  0.09854  0  0.983061  0  0  0.099899  0  0.982678  0  0.035114  0  0.090695  0.097719  0  0.983204  0
H  H11  1  0.36084120  0.19724192  0.76570813  1  0  0.078113  0  0.926825  0  0  0.098571  0  0.983112  0  0  0.09993  0  0.982728  0  0.035101  0  0.090712  0.09775  0  0.983256  0
H  H12  1  0.83991671  0.80478071  0.29943643  1  0  0.056975  0  0.948856  0  0  0.0773  0  1.010797  0  0  0.077435  0  1.012415  0  0.008982  0  0.083922  0.077259  0  1.009753  0
H  H13  1  0.16008346  0.19521982  0.70056332  1  0  0.056993  0  0.94883  0  0  0.077323  0  1.010766  0  0  0.077457  0  1.012386  0  0.008986  0  0.083936  0.077283  0  1.009722  0
H  H14  1  0.89049334  0.64597762  0.27932817  1  0  0.04805  0  0.934902  0  0  0.067986  0  0.996326  0  0  0.069007  0  0.995974  0  0.002503  0  0.078959  0.067387  0  0.99665  0
H  H15  1  0.10950789  0.35402291  0.72067203  1  0  0.04804  0  0.934898  0  0  0.06798  0  0.996322  0  0  0.069001  0  0.99597  0  0.002682  0  0.07896  0.067382  0  0.996645  0
H  H16  1  0.94043100  0.73374711  0.10453535  1  0  0.048419  0  0.973785  0  0  0.068746  0  1.03834  0  0  0.068559  0  1.040574  0  0.006205  0  0.080057  0.068868  0  1.036942  0
H  H17  1  0.05957022  0.26625342  0.89546485  1  0  0.048453  0  0.973791  0  0  0.068765  0  1.038376  0  0  0.068576  0  1.040612  0  0.006186  0  0.08007  0.068885  0  1.036978  0
H  H18  1  0.88434671  0.89188248  0.12279665  1  0  0.051186  0  0.950636  0  0  0.073144  0  1.010852  0  0  0.073383  0  1.011517  0  -0.001175  0  0.083315  0.072868  0  1.010681  0
H  H19  1  0.11565242  0.10811905  0.87720316  1  0  0.051197  0  0.95069  0  0  0.073158  0  1.010893  0  0  0.073399  0  1.011558  0  -0.001128  0  0.083317  0.072884  0  1.010719  0
H  H20  1  0.13353358  0.74403600  0.17637349  1  0  0.062314  0  0.92762  0  0  0.084322  0  0.982581  0  0  0.084847  0  0.983436  0  0.017862  0  0.086682  0.084007  0  0.981916  0
H  H21  1  0.86646661  0.25596553  0.82362677  1  0  0.062304  0  0.927627  0  0  0.084311  0  0.982591  0  0  0.084835  0  0.983446  0  0.017856  0  0.086679  0.083996  0  0.981926  0
H  H22  1  0.08007035  0.90457118  0.19368891  1  0  0.044851  0  0.947973  0  0  0.063405  0  1.013972  0  0  0.063793  0  1.014826  0  -0.019363  0  0.077846  0.063182  0  1.013507  0
H  H23  1  0.91993088  0.09543035  0.80631048  1  0  0.044885  0  0.947951  0  0  0.063437  0  1.013948  0  0  0.063824  0  1.014803  0  -0.019346  0  0.077859  0.063213  0  1.013486  0
H  H24  1  0.13133772  0.98878481  0.01844967  1  0  0.039717  0  0.973208  0  0  0.059185  0  1.040345  0  0  0.059725  0  1.040477  0  -0.005805  0  0.077135  0.058838  0  1.040197  0
H  H25  1  0.86866349  0.01121473  0.98155134  1  0  0.039717  0  0.973185  0  0  0.059185  0  1.040325  0  0  0.059726  0  1.040457  0  -0.00582  0  0.077139  0.058836  0  1.040178  0
H  H26  1  0.17958574  0.82735667  0.00048657  1  0  0.063152  0  0.94853  0  0  0.081545  0  1.013687  0  0  0.082708  0  1.0138  0  0.026359  0  0.08432  0.08083  0  1.013363  0
H  H27  1  0.82041341  0.17264585  0.99951375  1  0  0.063143  0  0.948512  0  0  0.08153  0  1.013676  0  0  0.082694  0  1.01379  0  0.026325  0  0.084303  0.080821  0  1.013336  0
H  H28  1  0.38503177  0.98188635  0.97448276  1  0  0.10685  0  0.93377  0  0  0.123202  0  0.99239  0  0  0.12564  0  0.991576  0  0.089299  0  0.097139  0.121432  0  0.993095  0
H  H29  1  0.61496843  0.01811618  0.02551603  1  0  0.106862  0  0.933785  0  0  0.123209  0  0.992399  0  0  0.125646  0  0.991585  0  0.089336  0  0.097133  0.121441  0  0.993103  0
H  H30  1  0.33063883  0.97693524  0.09641563  1  0  0.079307  0  0.942986  0  0  0.097376  0  1.002065  0  0  0.098958  0  1.00174  0  0.014606  0  0.086579  0.096068  0  1.002832  0
H  H31  1  0.66936239  0.02306529  0.90358457  1  0  0.079306  0  0.942963  0  0  0.09737  0  1.002043  0  0  0.098952  0  1.001717  0  0.014621  0  0.086565  0.096059  0  1.002815  0
H  H32  1  0.89843230  0.84749794  0.43159267  1  0  0.086896  0  0.928348  0  0  0.097021  0  0.988719  0  0  0.099662  0  0.986525  0  0.103443  0  0.118634  0.094898  0  0.990506  0
H  H33  1  0.10156267  0.15250558  0.56840570  1  0  0.086913  0  0.928327  0  0  0.097035  0  0.988695  0  0  0.09968  0  0.986504  0  0.103418  0  0.118628  0.094911  0  0.990483  0
H  H34  1  0.12295256  0.96924648  0.33927045  1  0  0.107417  0  0.941412  0  0  0.122363  0  0.993866  0  0  0.125433  0  0.992737  0  0.085789  0  0.112678  0.119961  0  0.995173  0
H  H35  1  0.87704136  0.03075605  0.66072698  1  0  0.107383  0  0.94136  0  0  0.122326  0  0.993828  0  0  0.125397  0  0.992698  0  0.085745  0  0.112648  0.119924  0  0.995134  0
H  H36  1  0.91510862  0.32967898  0.40788340  1  0  0.106486  0  0.942116  0  0  0.121344  0  0.993246  0  0  0.124386  0  0.992382  0  0.05557  0  0.110815  0.118668  0  0.994862  0
H  H37  1  0.08489154  0.67032055  0.59211848  1  0  0.106501  0  0.942089  0  0  0.121345  0  0.993235  0  0  0.124396  0  0.99236  0  0.055576  0  0.110814  0.118667  0  0.994853  0
H  H38  1  0.70194446  0.19002554  0.50207293  1  0  0.102297  0  0.962989  0  0  0.109052  0  1.025651  0  0  0.112658  0  1.022308  0  0.178112  0  0.116875  0.106039  0  1.028656  0
H  H39  1  0.29805469  0.80997698  0.49792869  1  0  0.102244  0  0.963059  0  0  0.109033  0  1.025684  0  0  0.112637  0  1.022342  0  0.178157  0  0.116876  0.106022  0  1.028685  0
H  H40  1  0.25831765  0.09900116  0.21997869  1  0  0.103227  0  0.953807  0  0  0.115924  0  1.010634  0  0  0.118864  0  1.009529  0  0.066748  0  0.109405  0.113268  0  1.012685  0
H  H41  1  0.74168148  0.90099937  0.78001931  1  0  0.103214  0  0.953815  0  0  0.115872  0  1.010688  0  0  0.118812  0  1.009583  0  0.066692  0  0.10938  0.113218  0  1.012736  0
H  H42  1  0.46256300  0.24576633  0.12037225  1  0  0.094322  0  0.958023  0  0  0.104007  0  1.017465  0  0  0.106895  0  1.015161  0  0.157627  0  0.117469  0.101505  0  1.019734  0
H  H43  1  0.53743717  0.75423420  0.87962750  1  0  0.094314  0  0.958024  0  0  0.104005  0  1.017467  0  0  0.106892  0  1.015166  0  0.157625  0  0.11747  0.101503  0  1.019737  0
H  H44  1  0.32643929  0.54152905  0.27034553  1  0  0.085624  0  0.917476  0  0  0.098374  0  0.97249  0  0  0.100884  0  0.970269  0  0.10822  0  0.123667  0.096165  0  0.974622  0
H  H45  1  0.67355982  0.45847049  0.72965525  1  0  0.085602  0  0.917492  0  0  0.098379  0  0.972479  0  0  0.100891  0  0.970256  0  0.108221  0  0.123665  0.096169  0  0.974613  0
H  H46  1  0.12179215  0.40559990  0.38038904  1  0  0.110586  0  0.936885  0  0  0.124706  0  0.987605  0  0  0.127952  0  0.986228  0  0.081509  0  0.113656  0.122224  0  0.988942  0
H  H47  1  0.87820799  0.59439864  0.61961103  1  0  0.110597  0  0.936857  0  0  0.124722  0  0.987574  0  0  0.127968  0  0.986197  0  0.081525  0  0.11366  0.122242  0  0.98891  0
H  H48  1  0.46226854  0.63651890  0.64505057  1  0  0.087325  0  0.946241  0  0  0.094874  0  1.012071  0  0  0.096986  0  1.010859  0  0.124291  0  0.11797  0.093356  0  1.012926  0
H  H49  1  0.53772952  0.36348063  0.35494976  1  0  0.087296  0  0.946175  0  0  0.094843  0  1.012027  0  0  0.096956  0  1.010815  0  0.124289  0  0.117962  0.093324  0  1.012885  0
H  H50  1  0.24131620  0.54119320  0.76406331  1  0  0.099009  0  0.993526  0  0  0.109845  0  1.057535  0  0  0.112512  0  1.056629  0  0.084422  0  0.106237  0.107933  0  1.058423  0
H  H51  1  0.75868497  0.45880335  0.23593685  1  0  0.098946  0  0.993545  0  0  0.109755  0  1.057602  0  0  0.112425  0  1.0567  0  0.084477  0  0.106182  0.107843  0  1.058488  0
H  H52  1  0.14347133  0.93725864  0.81594540  1  0  0.0995  0  0.977842  0  0  0.111988  0  1.036983  0  0  0.114404  0  1.037081  0  0.091836  0  0.106453  0.110216  0  1.037146  0
H  H53  1  0.85652985  0.06273891  0.18405592  1  0  0.099499  0  0.977822  0  0  0.111981  0  1.036981  0  0  0.114396  0  1.037079  0  0.091802  0  0.106474  0.110211  0  1.037143  0
H  H54  1  0.37304609  0.01284616  0.69841630  1  0  0.094983  0  0.963268  0  0  0.100875  0  1.0301  0  0  0.104252  0  1.026767  0  0.14874  0  0.116711  0.098245  0  1.032879  0
H  H55  1  0.62695511  0.98715337  0.30158471  1  0  0.094968  0  0.96336  0  0  0.100863  0  1.030179  0  0  0.10424  0  1.026846  0  0.14874  0  0.116713  0.098233  0  1.032959  0
H  H56  1  0.80433515  0.41383181  0.94651615  1  0  0.099619  0  0.96989  0  0  0.106115  0  1.035797  0  0  0.109537  0  1.032665  0  0.1647  0  0.116572  0.103564  0  1.038013  0
H  H57  1  0.19566500  0.58616673  0.05348653  1  0  0.099585  0  0.969933  0  0  0.106046  0  1.035887  0  0  0.109468  0  1.032755  0  0.164713  0  0.116567  0.103497  0  1.038097  0
H  H58  1  0.04138036  0.48416480  0.83617901  1  0  0.102048  0  0.975207  0  0  0.115751  0  1.032852  0  0  0.118052  0  1.032928  0  0.100849  0  0.106947  0.113929  0  1.033236  0
H  H59  1  0.95862186  0.51583174  0.16382291  1  0  0.101982  0  0.975199  0  0  0.115689  0  1.032851  0  0  0.11799  0  1.032928  0  0.100847  0  0.106961  0.113868  0  1.033233  0
H  H60  1  0.97150750  0.86450790  0.91757165  1  0  0.099335  0  0.980898  0  0  0.111552  0  1.041322  0  0  0.114113  0  1.040996  0  0.068397  0  0.107162  0.10974  0  1.041644  0
H  H61  1  0.02849579  0.13549064  0.08242844  1  0  0.099329  0  0.980957  0  0  0.111557  0  1.041373  0  0  0.114117  0  1.041047  0  0.068379  0  0.107171  0.109744  0  1.041697  0
H  H62  1  0.73669660  0.77808581  0.02233123  1  0  0.099881  0  0.948296  0  0  0.109432  0  1.009058  0  0  0.111971  0  1.007322  0  0.157208  0  0.12131  0.107354  0  1.010618  0
H  H63  1  0.26330567  0.22191472  0.97766744  1  0  0.09987  0  0.948308  0  0  0.109421  0  1.009065  0  0  0.111962  0  1.007325  0  0.157177  0  0.121283  0.107341  0  1.010628  0
C  C64  1  0.59523506  0.71634550  0.42821449  1  0  0.683176  0  3.888314  0  0  0.645035  0  4.174398  0  0  0.676954  0  4.171377  0  1.54397  0  0.179423  0.623323  0  4.175034  0
C  C65  1  0.40476198  0.28365603  0.57178574  1  0  0.683129  0  3.888455  0  0  0.644977  0  4.17455  0  0  0.676898  0  4.171535  0  1.544085  0  0.179437  0.623265  0  4.175186  0
C  C66  1  0.60429859  0.63533095  0.35401723  1  0  -0.255899  0  3.679425  0  0  -0.29114  0  3.926475  0  0  -0.296904  0  3.936705  0  -0.034823  0  -0.172668  -0.286822  0  3.918702  0
C  C67  1  0.39570052  0.36466858  0.64598355  1  0  -0.255865  0  3.679477  0  0  -0.291097  0  3.926512  0  0  -0.296871  0  3.936751  0  -0.034827  0  -0.172653  -0.286785  0  3.918737  0
C  C68  1  0.69198818  0.70966031  0.25560699  1  0  -0.08925  0  3.680214  0  0  -0.13  0  3.940012  0  0  -0.130598  0  3.954334  0  -0.006391  0  -0.166914  -0.129208  0  3.929214  0
C  C69  1  0.30801303  0.29033923  0.74439336  1  0  -0.089333  0  3.680253  0  0  -0.130048  0  3.940018  0  0  -0.130645  0  3.954339  0  -0.006387  0  -0.166947  -0.129256  0  3.929218  0
C  C70  1  0.84222904  0.73892544  0.25110530  1  0  -0.108911  0  3.705975  0  0  -0.147983  0  3.969941  0  0  -0.149206  0  3.985424  0  -0.028522  0  -0.170045  -0.147035  0  3.958787  0
C  C71  1  0.15777218  0.26107509  0.74889424  1  0  -0.108861  0  3.705906  0  0  -0.147941  0  3.969864  0  0  -0.149165  0  3.985349  0  -0.028693  0  -0.170032  -0.146995  0  3.958714  0
C  C72  1  0.93501934  0.80148895  0.15201954  1  0  -0.116335  0  3.720522  0  0  -0.15715  0  3.984032  0  0  -0.158149  0  3.999529  0  -0.011372  0  -0.173216  -0.156193  0  3.97303  0
C  C73  1  0.06498188  0.19851159  0.84798000  1  0  -0.116404  0  3.720607  0  0  -0.157228  0  3.984128  0  0  -0.15823  0  3.999626  0  -0.011405  0  -0.173249  -0.15627  0  3.973127  0
C  C74  1  0.08386945  0.83515108  0.14723661  1  0  -0.108454  0  3.702921  0  0  -0.145276  0  3.964364  0  0  -0.146395  0  3.979363  0  -0.007206  0  -0.170994  -0.144314  0  3.953507  0
C  C75  1  0.91613072  0.16484946  0.85276446  1  0  -0.108503  0  3.702949  0  0  -0.145319  0  3.964403  0  0  -0.146436  0  3.9794  0  -0.007207  0  -0.171011  -0.144362  0  3.95355  0
C  C76  1  0.17698525  0.89521710  0.04743750  1  0  -0.087866  0  3.714929  0  0  -0.132575  0  3.980617  0  0  -0.132675  0  3.994819  0  -0.015328  0  -0.17361  -0.132384  0  3.970463  0
C  C77  1  0.82301494  0.10478443  0.95256276  1  0  -0.087817  0  3.714973  0  0  -0.132526  0  3.980644  0  0  -0.13263  0  3.99485  0  -0.015306  0  -0.173594  -0.132329  0  3.97049  0
C  C78  1  0.32753890  0.92028057  0.04381085  1  0  -0.260047  0  3.680405  0  0  -0.295725  0  3.929716  0  0  -0.302434  0  3.940795  0  -0.076396  0  -0.172961  -0.290997  0  3.921921  0
C  C79  1  0.67246233  0.07972095  0.95618854  1  0  -0.260069  0  3.680479  0  0  -0.295727  0  3.929764  0  0  -0.302434  0  3.940841  0  -0.076417  0  -0.172928  -0.291002  0  3.921974  0
C  C80  1  0.41059917  0.79195050  0.05930447  1  0  0.669248  0  3.899898  0  0  0.628925  0  4.19174  0  0  0.660984  0  4.188613  0  1.564184  0  0.179062  0.607216  0  4.192268  0
C  C81  1  0.58940101  0.20805103  0.94069512  1  0  0.669245  0  3.899921  0  0  0.628924  0  4.191755  0  0  0.660984  0  4.188627  0  1.564192  0  0.179078  0.607217  0  4.192285  0
C  C82  1  0.90834361  0.95461341  0.42467532  1  0  0.11573  0  3.719012  0  0  0.083056  0  3.974238  0  0  0.089935  0  3.993169  0  0.447042  0  0.042936  0.078451  0  3.961964  0
C  C83  1  0.09165134  0.04538811  0.57532336  1  0  0.115674  0  3.719027  0  0  0.083012  0  3.974247  0  0  0.089882  0  3.993187  0  0.447018  0  0.042927  0.078408  0  3.961972  0
C  C84  1  0.03221010  0.02391938  0.37220361  1  0  -0.156251  0  3.717579  0  0  -0.177219  0  3.970204  0  0  -0.184597  0  3.991589  0  0.00486  0  -0.083081  -0.172635  0  3.956163  0
C  C85  1  0.96778693  0.97608116  0.62779481  1  0  -0.156226  0  3.717548  0  0  -0.177201  0  3.970169  0  0  -0.184579  0  3.991557  0  0.004862  0  -0.083045  -0.172616  0  3.956126  0
C  C86  1  0.03979043  0.16199221  0.36472741  1  0  0.089709  0  3.765856  0  0  0.099735  0  4.001  0  0  0.104176  0  4.022251  0  -0.050747  0  0.010099  0.096623  0  3.986814  0
C  C87  1  0.96020869  0.83800733  0.63527205  1  0  0.089704  0  3.765891  0  0  0.099767  0  4.000982  0  0  0.104205  0  4.022236  0  -0.050768  0  0.010115  0.096657  0  3.986792  0
C  C88  1  0.91842191  0.22260337  0.41222745  1  0  -0.15862  0  3.716547  0  0  -0.175737  0  3.960305  0  0  -0.183659  0  3.982322  0  -0.01607  0  -0.081888  -0.170553  0  3.946373  0
C  C89  1  0.08157617  0.77739716  0.58777404  1  0  -0.158593  0  3.716481  0  0  -0.175703  0  3.96023  0  0  -0.183632  0  3.982245  0  -0.016054  0  -0.081877  -0.170519  0  3.946298  0
C  C90  1  0.79858378  0.14668544  0.46413619  1  0  0.118009  0  3.690549  0  0  0.088833  0  3.936448  0  0  0.095842  0  3.954235  0  0.445253  0  0.043016  0.084002  0  3.925244  0
C  C91  1  0.20141536  0.85331609  0.53586362  1  0  0.118063  0  3.69059  0  0  0.088854  0  3.936494  0  0  0.095865  0  3.954282  0  0.445265  0  0.043038  0.084022  0  3.925289  0
C  C92  1  0.16760115  0.24090193  0.30797980  1  0  0.085844  0  3.770209  0  0  0.093653  0  4.011298  0  0  0.098218  0  4.031045  0  0.046925  0  0.009648  0.090756  0  3.998373  0
C  C93  1  0.83239691  0.75909761  0.69201988  1  0  0.085865  0  3.770161  0  0  0.093666  0  4.011243  0  0  0.098233  0  4.030988  0  0.046936  0  0.009658  0.090767  0  3.998319  0
C  C94  1  0.26886750  0.19566032  0.23514276  1  0  -0.151264  0  3.708735  0  0  -0.171258  0  3.962871  0  0  -0.177796  0  3.982254  0  -0.03133  0  -0.08023  -0.167999  0  3.952046  0
C  C95  1  0.73113059  0.80434121  0.76485595  1  0  -0.15121  0  3.708704  0  0  -0.171167  0  3.962864  0  0  -0.177704  0  3.982245  0  -0.031281  0  -0.080185  -0.167906  0  3.952038  0
C  C96  1  0.38301772  0.27645959  0.17875504  1  0  0.125954  0  3.689078  0  0  0.092736  0  3.938391  0  0  0.099831  0  3.956465  0  0.431554  0  0.043157  0.087788  0  3.927721  0
C  C97  1  0.61698141  0.72354094  0.82124427  1  0  0.125932  0  3.68905  0  0  0.092691  0  3.938383  0  0  0.099786  0  3.956457  0  0.431553  0  0.043112  0.087742  0  3.927713  0
C  C98  1  0.30723276  0.44235747  0.26220762  1  0  0.124202  0  3.709939  0  0  0.091617  0  3.961364  0  0  0.098604  0  3.979502  0  0.439456  0  0.048697  0.08674  0  3.950057  0
C  C99  1  0.69276741  0.55764306  0.73779213  1  0  0.124261  0  3.709995  0  0  0.091654  0  3.961411  0  0  0.098639  0  3.979551  0  0.439417  0  0.048718  0.086777  0  3.950102  0
C  C100  1  0.19163550  0.36650332  0.32234466  1  0  -0.14415  0  3.704644  0  0  -0.163048  0  3.953792  0  0  -0.169345  0  3.973032  0  0.015062  0  -0.076281  -0.159418  0  3.941433  0
C  C101  1  0.80836361  0.63349622  0.67765546  1  0  -0.144227  0  3.704723  0  0  -0.163132  0  3.953887  0  0  -0.16943  0  3.973129  0  0.01503  0  -0.076322  -0.159504  0  3.94153  0
C  C102  1  0.38877980  0.69830506  0.68647213  1  0  0.125243  0  3.707653  0  0  0.092271  0  3.959637  0  0  0.099374  0  3.978046  0  0.440852  0  0.045735  0.087246  0  3.948384  0
C  C103  1  0.61122036  0.30169448  0.31352646  1  0  0.125301  0  3.707569  0  0  0.092332  0  3.959565  0  0  0.099434  0  3.977977  0  0.440833  0  0.045744  0.087306  0  3.948311  0
C  C104  1  0.26379321  0.64674999  0.75235163  1  0  -0.1669  0  3.726708  0  0  -0.189624  0  3.985452  0  0  -0.196148  0  4.004116  0  0.004973  0  -0.085129  -0.184995  0  3.973479  0
C  C105  1  0.73620899  0.35324556  0.24764848  1  0  -0.166794  0  3.726624  0  0  -0.189495  0  3.98538  0  0  -0.196024  0  4.004049  0  0.004778  0  -0.085047  -0.184861  0  3.973402  0
C  C106  1  0.16881511  0.73095365  0.80086181  1  0  0.091918  0  3.757082  0  0  0.103132  0  3.986993  0  0  0.107889  0  4.00714  0  -0.065917  0  0.009444  0.100062  0  3.972996  0
C  C107  1  0.83118709  0.26904190  0.19913895  1  0  0.091878  0  3.756985  0  0  0.103054  0  3.986906  0  0  0.10781  0  4.007053  0  -0.065676  0  0.009426  0.099982  0  3.97291  0
C  C108  1  0.21050602  0.86493245  0.78171630  1  0  -0.146996  0  3.695281  0  0  -0.164745  0  3.938345  0  0  -0.172185  0  3.959936  0  0.036566  0  -0.08086  -0.159717  0  3.924023  0
C  C109  1  0.78949515  0.13506410  0.21828517  1  0  -0.146919  0  3.695171  0  0  -0.164657  0  3.938238  0  0  -0.172095  0  3.959827  0  0.036552  0  -0.080869  -0.159632  0  3.92392  0
C  C110  1  0.33839748  0.90900904  0.71621694  1  0  0.120305  0  3.689656  0  0  0.090627  0  3.935163  0  0  0.097974  0  3.952484  0  0.439183  0  0.04492  0.085602  0  3.924648  0
C  C111  1  0.66160161  0.09098850  0.28378415  1  0  0.120229  0  3.689716  0  0  0.09056  0  3.935224  0  0  0.097908  0  3.952544  0  0.439117  0  0.044862  0.085535  0  3.924708  0
C  C112  1  0.84818859  0.51224897  0.93808942  1  0  0.117259  0  3.684302  0  0  0.085913  0  3.934747  0  0  0.092806  0  3.95311  0  0.45209  0  0.042042  0.081587  0  3.922171  0
C  C113  1  0.15181364  0.48774857  0.06191169  1  0  0.117398  0  3.684301  0  0  0.086062  0  3.934773  0  0  0.092954  0  3.953137  0  0.45202  0  0.042109  0.081736  0  3.922196  0
C  C114  1  0.97984264  0.55343044  0.87654166  1  0  -0.154295  0  3.698372  0  0  -0.172848  0  3.943926  0  0  -0.180504  0  3.966383  0  -0.049316  0  -0.083598  -0.167671  0  3.929208  0
C  C115  1  0.02015959  0.44656711  0.12345945  1  0  -0.154269  0  3.698391  0  0  -0.172846  0  3.943928  0  0  -0.180503  0  3.966385  0  -0.049179  0  -0.083658  -0.167669  0  3.929208  0
C  C116  1  0.03048608  0.68209836  0.86655475  1  0  0.090801  0  3.75809  0  0  0.102077  0  3.988132  0  0  0.106424  0  4.009069  0  -0.00374  0  0.00929  0.098853  0  3.974125  0
C  C117  1  0.96951719  0.31789918  0.13344615  1  0  0.090764  0  3.75811  0  0  0.102129  0  3.988027  0  0  0.106476  0  4.008962  0  -0.003729  0  0.009334  0.098905  0  3.974022  0
C  C118  1  0.94085072  0.76361320  0.92076906  1  0  -0.158242  0  3.71814  0  0  -0.177774  0  3.967905  0  0  -0.185309  0  3.989056  0  -0.007768  0  -0.083562  -0.17275  0  3.953973  0
C  C119  1  0.05915046  0.23638435  0.07923160  1  0  -0.158212  0  3.718109  0  0  -0.177773  0  3.967818  0  0  -0.185307  0  3.988968  0  -0.007787  0  -0.083579  -0.172749  0  3.953886  0
C  C120  1  0.81011283  0.71651591  0.98046193  1  0  0.111066  0  3.709632  0  0  0.080297  0  3.95866  0  0  0.087385  0  3.97665  0  0.423879  0  0.043611  0.075706  0  3.946925  0
C  C121  1  0.18988837  0.28348263  0.01953792  1  0  0.110994  0  3.70961  0  0  0.080229  0  3.958642  0  0  0.087318  0  3.976633  0  0.4241  0  0.043587  0.07564  0  3.946908  0
N  N122  1  0.79298908  0.01429821  0.47027223  1  0  -0.287588  0  3.349034  0  0  -0.204475  0  3.637777  0  0  -0.221794  0  3.652421  0  -1.178518  0  -0.348962  -0.193307  0  3.62808  0
N  N123  1  0.20700689  0.98570133  0.52972918  1  0  -0.287601  0  3.349121  0  0  -0.204487  0  3.637856  0  0  -0.221805  0  3.652502  0  -1.178447  0  -0.348999  -0.193319  0  3.628159  0
N  N124  1  0.40095484  0.39965220  0.19037396  1  0  -0.288792  0  3.339551  0  0  -0.204687  0  3.624765  0  0  -0.222492  0  3.640189  0  -1.18911  0  -0.345617  -0.193369  0  3.61527  0
N  N125  1  0.59904324  0.60034833  0.80962622  1  0  -0.288783  0  3.339485  0  0  -0.204664  0  3.624708  0  0  -0.22247  0  3.640133  0  -1.189072  0  -0.345588  -0.193345  0  3.615211  0
N  N126  1  0.42600662  0.82744138  0.66794155  1  0  -0.285983  0  3.343438  0  0  -0.201474  0  3.624624  0  0  -0.219162  0  3.639703  0  -1.217859  0  -0.347629  -0.190428  0  3.615514  0
N  N127  1  0.57399146  0.17255915  0.33205862  1  0  -0.285953  0  3.343382  0  0  -0.201471  0  3.624597  0  0  -0.219162  0  3.639677  0  -1.217822  0  -0.347591  -0.190424  0  3.615485  0
N  N128  1  0.76398636  0.59235461  0.98982079  1  0  -0.286515  0  3.336169  0  0  -0.202653  0  3.621569  0  0  -0.220429  0  3.636161  0  -1.19702  0  -0.346409  -0.191161  0  3.611466  0
N  N129  1  0.23601273  0.40764293  0.01017898  1  0  -0.286528  0  3.336213  0  0  -0.202667  0  3.621611  0  0  -0.220446  0  3.636206  0  -1.197253  0  -0.346417  -0.191174  0  3.611505  0
O  O130  1  0.66659217  0.68098715  0.48535492  1  0  -0.677462  0  1.865394  0  0  -0.625906  0  2.091986  0  0  -0.651552  0  2.082336  0  -1.189811  0  -0.375207  -0.607026  0  2.09751  0
O  O131  1  0.33340381  0.31901338  0.51464634  1  0  -0.677434  0  1.865426  0  0  -0.62587  0  2.092013  0  0  -0.651516  0  2.082368  0  -1.189909  0  -0.375234  -0.60699  0  2.097537  0
O  O132  1  0.51804078  0.82005858  0.42494230  1  0  -0.690228  0  1.964729  0  0  -0.623591  0  2.214346  0  0  -0.653023  0  2.202919  0  -1.180116  0  -0.356286  -0.601814  0  2.220591  0
O  O133  1  0.48195627  0.17994295  0.57505530  1  0  -0.690239  0  1.96481  0  0  -0.623584  0  2.214419  0  0  -0.653016  0  2.202995  0  -1.180093  0  -0.35629  -0.601806  0  2.220665  0
O  O134  1  0.38478489  0.69729351  0.02425766  1  0  -0.684162  0  1.99261  0  0  -0.614899  0  2.24708  0  0  -0.644293  0  2.236081  0  -1.185042  0  -0.351537  -0.593133  0  2.253057  0
O  O135  1  0.61521528  0.30270702  0.97574143  1  0  -0.684151  0  1.992619  0  0  -0.614899  0  2.24709  0  0  -0.644293  0  2.236091  0  -1.185038  0  -0.351543  -0.593135  0  2.253068  0
O  O136  1  0.50091055  0.78696052  0.10259965  1  0  -0.665834  0  1.903069  0  0  -0.614619  0  2.134322  0  0  -0.640556  0  2.125064  0  -1.186335  0  -0.357651  -0.595757  0  2.139474  0
O  O137  1  0.49908962  0.21304001  0.89739945  1  0  -0.66584  0  1.903075  0  0  -0.614625  0  2.134326  0  0  -0.640562  0  2.125069  0  -1.186352  0  -0.357667  -0.59576  0  2.139478  0
