# generated using pymatgen
data_AgH6C5NO2
_symmetry_space_group_name_H-M   'P 1'
_cell_length_a   8.13942883
_cell_length_b   8.13944590
_cell_length_c   9.50580177
_cell_angle_alpha   89.19442287
_cell_angle_beta   89.19435638
_cell_angle_gamma   71.42519687
_symmetry_Int_Tables_number   1
_chemical_formula_structural   AgH6C5NO2
_chemical_formula_sum   'Ag4 H24 C20 N4 O8'
_cell_volume   596.86877508
_cell_formula_units_Z   4
loop_
 _symmetry_equiv_pos_site_id
 _symmetry_equiv_pos_as_xyz
  1  'x, y, z'
loop_
 _atom_site_type_symbol
 _atom_site_label
 _atom_site_symmetry_multiplicity
 _atom_site_fract_x
 _atom_site_fract_y
 _atom_site_fract_z
 _atom_site_occupancy
 _atom_site_hle17_bader_spin_density
 _atom_site_hle17_ddec_charge
 _atom_site_hle17_ddec_spin_density
 _atom_site_hle17_ddec_sum_bond_order
 _atom_site_hle17_magmom
 _atom_site_hse06_10hf_bader_spin_density
 _atom_site_hse06_10hf_ddec_charge
 _atom_site_hse06_10hf_ddec_spin_density
 _atom_site_hse06_10hf_ddec_sum_bond_order
 _atom_site_hse06_10hf_magmom
 _atom_site_hse06_bader_spin_density
 _atom_site_hse06_ddec_charge
 _atom_site_hse06_ddec_spin_density
 _atom_site_hse06_ddec_sum_bond_order
 _atom_site_hse06_magmom
 _atom_site_pbe_bader_spin_density
 _atom_site_pbe_cm5_charge
 _atom_site_pbe_ddec_charge
 _atom_site_pbe_ddec_spin_density
 _atom_site_pbe_ddec_sum_bond_order
 _atom_site_pbe_magmom
Ag  Ag0  1  0.00000069  0.00000104  0.49999976  1  0  0.450795  0  1.678837  0  0  0.318439  0  2.161795  0  0  0.347513  0  2.107138  0  0  0.450232  0.300207  0  2.200916  0
Ag  Ag1  1  0.00000000  0.00000000  0.00000000  1  0  0.450802  0  1.678838  0  0  0.318444  0  2.161809  0  0  0.347525  0  2.10714  0  0  0.450238  0.300213  0  2.200949  0
Ag  Ag2  1  0.16881679  0.83118232  0.74999937  1  0  0.589567  0  1.406321  0  0  0.478129  0  1.879084  0  0  0.518952  0  1.806522  0  0  0.393326  0.447308  0  1.932616  0
Ag  Ag3  1  0.83118314  0.16881736  0.25000029  1  0  0.589565  0  1.406331  0  0  0.478125  0  1.879097  0  0  0.518945  0  1.806534  0  0  0.393321  0.447298  0  1.932637  0
H  H4  1  0.59675774  0.00494768  0.91028437  1  0  0.101272  0  0.93119  0  0  0.120629  0  0.987711  0  0  0.122643  0  0.986364  0  0  0.102667  0.119117  0  0.988785  0
H  H5  1  0.99505384  0.40324253  0.58971581  1  0  0.101264  0  0.931223  0  0  0.120617  0  0.987747  0  0  0.122631  0  0.9864  0  0  0.102666  0.11911  0  0.988812  0
H  H6  1  0.40324299  0.99505331  0.08971524  1  0  0.101232  0  0.9312  0  0  0.12058  0  0.98774  0  0  0.122593  0  0.986394  0  0  0.102651  0.119074  0  0.988808  0
H  H7  1  0.00494732  0.59675717  0.41028487  1  0  0.101277  0  0.93122  0  0  0.120621  0  0.987743  0  0  0.122633  0  0.986398  0  0  0.102669  0.119111  0  0.988809  0
H  H8  1  0.48708029  0.96350695  0.76189860  1  0  0.111262  0  0.918837  0  0  0.128499  0  0.97875  0  0  0.1309  0  0.977332  0  0  0.104605  0.126633  0  0.979998  0
H  H9  1  0.03649341  0.51291839  0.73810214  1  0  0.111265  0  0.918836  0  0  0.128506  0  0.978745  0  0  0.130907  0  0.977327  0  0  0.104606  0.126639  0  0.979995  0
H  H10  1  0.51292129  0.03649145  0.23810105  1  0  0.111262  0  0.91884  0  0  0.128508  0  0.978748  0  0  0.130907  0  0.977332  0  0  0.104606  0.126641  0  0.979996  0
H  H11  1  0.96350531  0.48708128  0.26189860  1  0  0.111279  0  0.918822  0  0  0.128516  0  0.978725  0  0  0.130919  0  0.977306  0  0  0.104599  0.126647  0  0.979976  0
H  H12  1  0.53609180  0.31303452  0.83072417  1  0  0.06658  0  0.947932  0  0  0.086036  0  1.009418  0  0  0.086092  0  1.010804  0  0  0.09022  0.08591  0  1.008502  0
H  H13  1  0.68696554  0.46390854  0.66927727  1  0  0.066571  0  0.947944  0  0  0.086039  0  1.009417  0  0  0.086095  0  1.0108  0  0  0.090231  0.085914  0  1.008501  0
H  H14  1  0.46390936  0.68696518  0.16927547  1  0  0.066575  0  0.947935  0  0  0.086015  0  1.009452  0  0  0.086067  0  1.010838  0  0  0.090224  0.08589  0  1.008528  0
H  H15  1  0.31303439  0.53609114  0.33072239  1  0  0.066583  0  0.947931  0  0  0.08605  0  1.009402  0  0  0.086107  0  1.010785  0  0  0.090235  0.085923  0  1.008487  0
H  H16  1  0.33927735  0.26677107  0.83295711  1  0  0.079442  0  0.946828  0  0  0.098858  0  1.004207  0  0  0.099559  0  1.005142  0  0  0.093879  0.09839  0  1.003547  0
H  H17  1  0.73323039  0.66072197  0.66704544  1  0  0.079443  0  0.946846  0  0  0.098851  0  1.004238  0  0  0.09955  0  1.005176  0  0  0.093891  0.098382  0  1.00358  0
H  H18  1  0.66072504  0.73322865  0.16704355  1  0  0.079416  0  0.946846  0  0  0.098836  0  1.004225  0  0  0.099537  0  1.005161  0  0  0.093868  0.098367  0  1.003566  0
H  H19  1  0.26676955  0.33927773  0.33295527  1  0  0.07944  0  0.946841  0  0  0.098848  0  1.004234  0  0  0.099548  0  1.005171  0  0  0.093885  0.098379  0  1.00357  0
H  H20  1  0.39261488  0.41501393  0.60239838  1  0  0.118426  0  0.933142  0  0  0.135119  0  0.990943  0  0  0.137596  0  0.989992  0  0  0.106204  0.13328  0  0.991692  0
H  H21  1  0.58498893  0.60738634  0.89760416  1  0  0.118412  0  0.933189  0  0  0.135087  0  0.991003  0  0  0.137562  0  0.990056  0  0  0.106181  0.133251  0  0.991749  0
H  H22  1  0.60738463  0.58498705  0.39760232  1  0  0.11844  0  0.933138  0  0  0.135119  0  0.990947  0  0  0.137595  0  0.989997  0  0  0.106204  0.133281  0  0.991694  0
H  H23  1  0.41501100  0.39261334  0.10239550  1  0  0.118432  0  0.933176  0  0  0.135099  0  0.990987  0  0  0.137574  0  0.990037  0  0  0.106185  0.133264  0  0.991733  0
H  H24  1  0.35466529  0.21426723  0.58056572  1  0  0.113137  0  0.922359  0  0  0.130477  0  0.980372  0  0  0.13245  0  0.98017  0  0  0.104294  0.129092  0  0.980541  0
H  H25  1  0.78573520  0.64533472  0.91943572  1  0  0.113113  0  0.922338  0  0  0.13046  0  0.98035  0  0  0.132432  0  0.980148  0  0  0.104301  0.129074  0  0.980526  0
H  H26  1  0.64533628  0.78573117  0.41943394  1  0  0.113124  0  0.92238  0  0  0.130462  0  0.980383  0  0  0.132434  0  0.980183  0  0  0.104283  0.129075  0  0.980555  0
H  H27  1  0.21426350  0.35466495  0.08056396  1  0  0.113102  0  0.922356  0  0  0.13044  0  0.980363  0  0  0.132412  0  0.980162  0  0  0.104285  0.129054  0  0.980538  0
C  C28  1  0.73433106  0.99152793  0.71882800  1  0  0.605944  0  3.768279  0  0  0.565823  0  4.046736  0  0  0.596338  0  4.050142  0  0  0.231308  0.544505  0  4.044309  0
C  C29  1  0.00847546  0.26566720  0.78117154  1  0  0.605926  0  3.768389  0  0  0.565854  0  4.046781  0  0  0.596381  0  4.050164  0  0  0.231307  0.544539  0  4.044351  0
C  C30  1  0.26566924  0.00847436  0.28117161  1  0  0.60588  0  3.768394  0  0  0.565779  0  4.046825  0  0  0.596292  0  4.05023  0  0  0.231279  0.54446  0  4.044402  0
C  C31  1  0.99152692  0.73433250  0.21882807  1  0  0.605913  0  3.768327  0  0  0.56575  0  4.046834  0  0  0.596266  0  4.050241  0  0  0.231264  0.544439  0  4.044402  0
C  C32  1  0.56532895  0.04230620  0.80008613  1  0  -0.252279  0  3.682449  0  0  -0.289933  0  3.928798  0  0  -0.296056  0  3.938848  0  0  -0.15942  -0.285368  0  3.921632  0
C  C33  1  0.95769559  0.43467115  0.69991514  1  0  -0.252282  0  3.682504  0  0  -0.289956  0  3.928855  0  0  -0.296084  0  3.938902  0  0  -0.15942  -0.285392  0  3.921686  0
C  C34  1  0.43467179  0.95769480  0.19991559  1  0  -0.252233  0  3.682455  0  0  -0.289908  0  3.928831  0  0  -0.296031  0  3.938884  0  0  -0.159409  -0.285351  0  3.921669  0
C  C35  1  0.04230434  0.56532854  0.30008558  1  0  -0.252325  0  3.682504  0  0  -0.289942  0  3.928834  0  0  -0.296066  0  3.938886  0  0  -0.159418  -0.285375  0  3.921661  0
C  C36  1  0.46628109  0.23414547  0.78108161  1  0  -0.064728  0  3.697062  0  0  -0.108118  0  3.954556  0  0  -0.1076  0  3.968505  0  0  -0.167558  -0.108278  0  3.944553  0
C  C37  1  0.76585559  0.53372016  0.71892084  1  0  -0.064709  0  3.697066  0  0  -0.108109  0  3.954596  0  0  -0.10759  0  3.968545  0  0  -0.16757  -0.108271  0  3.944595  0
C  C38  1  0.53372130  0.76585425  0.21891905  1  0  -0.064679  0  3.69703  0  0  -0.108061  0  3.95452  0  0  -0.107541  0  3.968466  0  0  -0.167539  -0.108216  0  3.944509  0
C  C39  1  0.23414434  0.46627953  0.28107882  1  0  -0.064696  0  3.697067  0  0  -0.10811  0  3.954576  0  0  -0.107592  0  3.968525  0  0  -0.167572  -0.108277  0  3.944572  0
C  C40  1  0.44568530  0.27536245  0.62447640  1  0  -0.261874  0  3.675023  0  0  -0.298969  0  3.922748  0  0  -0.305699  0  3.932423  0  0  -0.161845  -0.294018  0  3.915571  0
C  C41  1  0.72463973  0.55431515  0.87552502  1  0  -0.261837  0  3.675068  0  0  -0.298919  0  3.922791  0  0  -0.305649  0  3.932467  0  0  -0.161858  -0.293968  0  3.915616  0
C  C42  1  0.55431544  0.72463855  0.37552427  1  0  -0.261898  0  3.675056  0  0  -0.298954  0  3.922756  0  0  -0.305688  0  3.932428  0  0  -0.161858  -0.294005  0  3.915587  0
C  C43  1  0.27535897  0.44568452  0.12447467  1  0  -0.26189  0  3.675097  0  0  -0.29894  0  3.922769  0  0  -0.305665  0  3.932445  0  0  -0.161853  -0.293986  0  3.915596  0
C  C44  1  0.38581331  0.79244581  0.45692757  1  0  0.602366  0  3.769758  0  0  0.562459  0  4.050685  0  0  0.593197  0  4.054177  0  0  0.235631  0.541453  0  4.047521  0
C  C45  1  0.20755311  0.61418615  0.04307041  1  0  0.602466  0  3.769714  0  0  0.562607  0  4.050564  0  0  0.593322  0  4.054088  0  0  0.235703  0.541603  0  4.047409  0
C  C46  1  0.61418822  0.20755649  0.54307201  1  0  0.602415  0  3.769813  0  0  0.562548  0  4.050693  0  0  0.59327  0  4.054206  0  0  0.23565  0.541549  0  4.047519  0
C  C47  1  0.79244600  0.38581221  0.95692719  1  0  0.60238  0  3.769753  0  0  0.562507  0  4.050649  0  0  0.593234  0  4.054158  0  0  0.235688  0.541516  0  4.047467  0
N  N48  1  0.75039984  0.07728052  0.59719688  1  0  -0.582545  0  3.217811  0  0  -0.493665  0  3.501694  0  0  -0.529874  0  3.51232  0  0  -0.400559  -0.468568  0  3.493938  0
N  N49  1  0.92272077  0.24960132  0.90280431  1  0  -0.582525  0  3.217789  0  0  -0.493657  0  3.501657  0  0  -0.52987  0  3.512276  0  0  -0.400564  -0.468565  0  3.493906  0
N  N50  1  0.24960047  0.92272177  0.40280377  1  0  -0.582497  0  3.217755  0  0  -0.493604  0  3.501628  0  0  -0.529815  0  3.512248  0  0  -0.400534  -0.468504  0  3.493876  0
N  N51  1  0.07727874  0.75039965  0.09719533  1  0  -0.582544  0  3.217763  0  0  -0.493658  0  3.501661  0  0  -0.529865  0  3.512289  0  0  -0.400557  -0.468572  0  3.493931  0
O  O52  1  0.85988225  0.86914483  0.76406387  1  0  -0.594016  0  2.084407  0  0  -0.532532  0  2.356189  0  0  -0.560875  0  2.345142  0  0  -0.301034  -0.513488  0  2.365036  0
O  O53  1  0.13085423  0.14011874  0.73593664  1  0  -0.593993  0  2.084502  0  0  -0.532526  0  2.356259  0  0  -0.560886  0  2.345242  0  0  -0.301012  -0.513481  0  2.3651  0
O  O54  1  0.14012055  0.13085358  0.23593576  1  0  -0.593979  0  2.08449  0  0  -0.532501  0  2.356259  0  0  -0.560853  0  2.345238  0  0  -0.300998  -0.513453  0  2.365103  0
O  O55  1  0.86914731  0.85988358  0.26406504  1  0  -0.593991  0  2.084443  0  0  -0.532502  0  2.356259  0  0  -0.560838  0  2.345196  0  0  -0.301006  -0.513457  0  2.365102  0
O  O56  1  0.37402626  0.72587472  0.57519750  1  0  -0.56318  0  2.035306  0  0  -0.502994  0  2.302665  0  0  -0.531917  0  2.292107  0  0  -0.300177  -0.482448  0  2.309248  0
O  O57  1  0.27412203  0.62597263  0.92480115  1  0  -0.563213  0  2.035303  0  0  -0.503064  0  2.302674  0  0  -0.531978  0  2.292125  0  0  -0.300213  -0.48252  0  2.309262  0
O  O58  1  0.62597491  0.27412499  0.42480424  1  0  -0.563239  0  2.035395  0  0  -0.503069  0  2.30274  0  0  -0.531983  0  2.292187  0  0  -0.300193  -0.482526  0  2.309321  0
O  O59  1  0.72587466  0.37402572  0.07519966  1  0  -0.563218  0  2.03529  0  0  -0.503046  0  2.302646  0  0  -0.531966  0  2.292094  0  0  -0.300219  -0.482503  0  2.309222  0
