# generated using pymatgen
data_ZnPH5C3(NO2)2
_symmetry_space_group_name_H-M   'P 1'
_cell_length_a   5.11817327
_cell_length_b   7.61544705
_cell_length_c   17.50472911
_cell_angle_alpha   90.00114327
_cell_angle_beta   89.86264240
_cell_angle_gamma   90.00036211
_symmetry_Int_Tables_number   1
_chemical_formula_structural   ZnPH5C3(NO2)2
_chemical_formula_sum   'Zn4 P4 H20 C12 N8 O16'
_cell_volume   682.28297282
_cell_formula_units_Z   4
loop_
 _symmetry_equiv_pos_site_id
 _symmetry_equiv_pos_as_xyz
  1  'x, y, z'
loop_
 _atom_site_type_symbol
 _atom_site_label
 _atom_site_symmetry_multiplicity
 _atom_site_fract_x
 _atom_site_fract_y
 _atom_site_fract_z
 _atom_site_occupancy
 _atom_site_hle17_bader_spin_density
 _atom_site_hle17_ddec_charge
 _atom_site_hle17_ddec_spin_density
 _atom_site_hle17_ddec_sum_bond_order
 _atom_site_hle17_magmom
 _atom_site_hse06_10hf_bader_spin_density
 _atom_site_hse06_10hf_ddec_charge
 _atom_site_hse06_10hf_ddec_spin_density
 _atom_site_hse06_10hf_ddec_sum_bond_order
 _atom_site_hse06_10hf_magmom
 _atom_site_hse06_bader_spin_density
 _atom_site_hse06_ddec_charge
 _atom_site_hse06_ddec_spin_density
 _atom_site_hse06_ddec_sum_bond_order
 _atom_site_hse06_magmom
 _atom_site_pbe_bader_spin_density
 _atom_site_pbe_cm5_charge
 _atom_site_pbe_ddec_charge
 _atom_site_pbe_ddec_spin_density
 _atom_site_pbe_ddec_sum_bond_order
 _atom_site_pbe_magmom
Zn  Zn0  1  0.68180637  0.64021924  0.42017212  1  0  1.180139  0  1.809747  0  0  1.003635  0  2.289386  0  0  1.046155  0  2.230238  0  0  0.724724  0.973678  0  2.330254  0
Zn  Zn1  1  0.68179965  0.85977271  0.92017162  1  0  1.180175  0  1.809752  0  0  1.003646  0  2.289436  0  0  1.04617  0  2.230295  0  0  0.724739  0.973692  0  2.330313  0
Zn  Zn2  1  0.31818824  0.35979337  0.57982748  1  0  1.180222  0  1.809625  0  0  1.003721  0  2.289265  0  0  1.046237  0  2.230118  0  0  0.724744  0.973769  0  2.33014  0
Zn  Zn3  1  0.31818130  0.14021627  0.07982739  1  0  1.180167  0  1.809722  0  0  1.003675  0  2.289386  0  0  1.046183  0  2.230232  0  0  0.724709  0.973721  0  2.330257  0
P  P4  1  0.17293767  0.74075667  0.51324218  1  0  1.768158  0  4.882389  0  0  1.579632  0  5.401175  0  0  1.637369  0  5.348073  0  0  0.416147  1.539207  0  5.437513  0
P  P5  1  0.17293568  0.75924438  0.01324198  1  0  1.768288  0  4.88238  0  0  1.579786  0  5.401154  0  0  1.637525  0  5.348051  0  0  0.416172  1.539363  0  5.437499  0
P  P6  1  0.82705697  0.25925726  0.48675628  1  0  1.768048  0  4.882645  0  0  1.579511  0  5.401409  0  0  1.637252  0  5.348293  0  0  0.416087  1.539091  0  5.437741  0
P  P7  1  0.82705699  0.24073804  0.98675705  1  0  1.768182  0  4.882192  0  0  1.579702  0  5.400868  0  0  1.637444  0  5.347749  0  0  0.416201  1.539277  0  5.43723  0
H  H8  1  0.22508838  0.02933460  0.52475265  1  0  0.437873  0  0.865983  0  0  0.404241  0  0.933698  0  0  0.415374  0  0.917546  0  0  0.308359  0.396413  0  0.945039  0
H  H9  1  0.22509020  0.47066683  0.02475256  1  0  0.437802  0  0.86609  0  0  0.404123  0  0.933839  0  0  0.415255  0  0.917689  0  0  0.308312  0.396298  0  0.94517  0
H  H10  1  0.77488864  0.97067933  0.47524750  1  0  0.437705  0  0.866249  0  0  0.404023  0  0.933984  0  0  0.415155  0  0.917838  0  0  0.308326  0.396197  0  0.945319  0
H  H11  1  0.77489261  0.52931821  0.97524988  1  0  0.437657  0  0.866282  0  0  0.403991  0  0.934011  0  0  0.415124  0  0.917862  0  0  0.308261  0.396165  0  0.945345  0
H  H12  1  0.03602075  0.83640379  0.16012151  1  0  0.320001  0  0.917785  0  0  0.299429  0  0.977868  0  0  0.307694  0  0.972163  0  0  0.312587  0.293597  0  0.981951  0
H  H13  1  0.03600660  0.66359684  0.66011474  1  0  0.320048  0  0.917932  0  0  0.299454  0  0.978019  0  0  0.307718  0  0.972314  0  0  0.312578  0.293623  0  0.9821  0
H  H14  1  0.96396815  0.16359044  0.83987237  1  0  0.320022  0  0.917864  0  0  0.299429  0  0.977961  0  0  0.307694  0  0.972252  0  0  0.3126  0.293597  0  0.982041  0
H  H15  1  0.96401730  0.33639871  0.33988548  1  0  0.320046  0  0.917925  0  0  0.299437  0  0.978025  0  0  0.3077  0  0.972318  0  0  0.312609  0.293605  0  0.982106  0
H  H16  1  0.62178205  0.67155256  0.12562489  1  0  0.134613  0  0.969526  0  0  0.140993  0  1.030932  0  0  0.14415  0  1.028947  0  0  0.124509  0.138638  0  1.032578  0
H  H17  1  0.62177909  0.82845310  0.62561956  1  0  0.134673  0  0.969475  0  0  0.141053  0  1.030888  0  0  0.144211  0  1.028897  0  0  0.124548  0.138698  0  1.032533  0
H  H18  1  0.37819676  0.32844955  0.87438097  1  0  0.134632  0  0.969586  0  0  0.141014  0  1.030982  0  0  0.144168  0  1.029002  0  0  0.124564  0.138658  0  1.032627  0
H  H19  1  0.37826055  0.17155163  0.37437668  1  0  0.134565  0  0.969501  0  0  0.141046  0  1.03082  0  0  0.144206  0  1.028821  0  0  0.124506  0.138692  0  1.032463  0
H  H20  1  0.09978769  0.84894633  0.30773065  1  0  0.093208  0  0.953055  0  0  0.10077  0  1.020023  0  0  0.102782  0  1.018248  0  0  0.134142  0.099255  0  1.021316  0
H  H21  1  0.09976764  0.65104564  0.80772148  1  0  0.09323  0  0.953072  0  0  0.100802  0  1.020021  0  0  0.102811  0  1.01825  0  0  0.134143  0.09929  0  1.021316  0
H  H22  1  0.90023643  0.15105972  0.69226099  1  0  0.093272  0  0.953225  0  0  0.10081  0  1.020206  0  0  0.102821  0  1.018432  0  0  0.134201  0.099297  0  1.021498  0
H  H23  1  0.90022688  0.34893415  0.19228155  1  0  0.093321  0  0.952986  0  0  0.100764  0  1.020087  0  0  0.102774  0  1.018316  0  0  0.134114  0.099254  0  1.021386  0
H  H24  1  0.40670356  0.56455563  0.26423070  1  0  0.10288  0  0.973173  0  0  0.110687  0  1.036298  0  0  0.11259  0  1.036871  0  0  0.115269  0.109301  0  1.036025  0
H  H25  1  0.40670928  0.93544493  0.76422801  1  0  0.10287  0  0.973192  0  0  0.110705  0  1.036282  0  0  0.112609  0  1.036857  0  0  0.115281  0.109316  0  1.03601  0
H  H26  1  0.59327709  0.43544779  0.73577973  1  0  0.102891  0  0.973337  0  0  0.110684  0  1.036472  0  0  0.112587  0  1.037044  0  0  0.115287  0.109297  0  1.0362  0
H  H27  1  0.59331086  0.06455324  0.23576648  1  0  0.103114  0  0.973185  0  0  0.110929  0  1.036242  0  0  0.112834  0  1.036816  0  0  0.11537  0.109542  0  1.035968  0
C  C28  1  0.68643211  0.69199408  0.18383066  1  0  -0.001628  0  3.652019  0  0  -0.037852  0  3.910837  0  0  -0.035833  0  3.928603  0  0  0.005504  -0.039225  0  3.899066  0
C  C29  1  0.68642705  0.80800668  0.68382400  1  0  -0.001421  0  3.652097  0  0  -0.037683  0  3.910928  0  0  -0.03566  0  3.928688  0  0  0.005588  -0.039055  0  3.899151  0
C  C30  1  0.31357602  0.30801853  0.81617467  1  0  -0.001492  0  3.652197  0  0  -0.037747  0  3.911049  0  0  -0.035723  0  3.92881  0  0  0.005511  -0.039119  0  3.899274  0
C  C31  1  0.31360671  0.19200068  0.31617280  1  0  -0.001294  0  3.651818  0  0  -0.037655  0  3.910592  0  0  -0.035632  0  3.928357  0  0  0.005515  -0.039025  0  3.898815  0
C  C32  1  0.93858121  0.78712060  0.27796630  1  0  0.212554  0  3.673989  0  0  0.153739  0  3.942554  0  0  0.167866  0  3.955155  0  0  0.142806  0.144627  0  3.933682  0
C  C33  1  0.93856937  0.71287254  0.77796281  1  0  0.212658  0  3.673622  0  0  0.153823  0  3.942188  0  0  0.167952  0  3.954783  0  0  0.142795  0.144706  0  3.93332  0
C  C34  1  0.06141948  0.21288151  0.72202474  1  0  0.212393  0  3.673489  0  0  0.153574  0  3.942035  0  0  0.167701  0  3.954637  0  0  0.14265  0.144459  0  3.933164  0
C  C35  1  0.06141541  0.28711382  0.22203906  1  0  0.212513  0  3.673559  0  0  0.153763  0  3.942114  0  0  0.167888  0  3.954715  0  0  0.142838  0.144639  0  3.933254  0
C  C36  1  0.58179785  0.63996171  0.25251794  1  0  -0.020485  0  3.74367  0  0  -0.050322  0  4.006657  0  0  -0.05011  0  4.028756  0  0  -0.009433  -0.05048  0  3.991779  0
C  C37  1  0.58179129  0.86003780  0.75251116  1  0  -0.020533  0  3.743783  0  0  -0.050381  0  4.006765  0  0  -0.050175  0  4.028864  0  0  -0.009537  -0.050538  0  3.991886  0
C  C38  1  0.41821024  0.36004959  0.74748911  1  0  -0.020334  0  3.743977  0  0  -0.050181  0  4.006982  0  0  -0.049971  0  4.029075  0  0  -0.009377  -0.050337  0  3.992104  0
C  C39  1  0.41822879  0.13996562  0.24748563  1  0  -0.020868  0  3.743972  0  0  -0.050717  0  4.007022  0  0  -0.050512  0  4.029125  0  0  -0.009543  -0.050875  0  3.992145  0
N  N40  1  0.74088641  0.70028293  0.31083544  1  0  -0.418266  0  3.310982  0  0  -0.336214  0  3.613439  0  0  -0.356705  0  3.625284  0  0  -0.366373  -0.322297  0  3.605137  0
N  N41  1  0.74086951  0.79971344  0.81083041  1  0  -0.41837  0  3.310844  0  0  -0.336333  0  3.613323  0  0  -0.356824  0  3.62517  0  0  -0.366368  -0.322416  0  3.605024  0
N  N42  1  0.25914723  0.29973231  0.68916593  1  0  -0.418418  0  3.310886  0  0  -0.33634  0  3.613315  0  0  -0.356826  0  3.625153  0  0  -0.366482  -0.322422  0  3.605018  0
N  N43  1  0.25912711  0.20027422  0.18916691  1  0  -0.418358  0  3.310668  0  0  -0.336301  0  3.61311  0  0  -0.356791  0  3.624952  0  0  -0.366401  -0.322382  0  3.60481  0
N  N44  1  0.90988189  0.78453586  0.20129223  1  0  -0.279979  0  3.440099  0  0  -0.210943  0  3.67363  0  0  -0.227444  0  3.689259  0  0  -0.372551  -0.19992  0  3.66296  0
N  N45  1  0.90987016  0.71546149  0.70128534  1  0  -0.280288  0  3.440063  0  0  -0.211183  0  3.67357  0  0  -0.227679  0  3.689191  0  0  -0.37259  -0.200157  0  3.662899  0
N  N46  1  0.09012627  0.21546757  0.79871196  1  0  -0.280103  0  3.439612  0  0  -0.211003  0  3.673124  0  0  -0.227501  0  3.68875  0  0  -0.372509  -0.199974  0  3.66245  0
N  N47  1  0.09013223  0.28453537  0.29871542  1  0  -0.280169  0  3.439892  0  0  -0.211012  0  3.673354  0  0  -0.22751  0  3.688981  0  0  -0.372551  -0.199987  0  3.662687  0
O  O48  1  0.31293833  0.68510393  0.43972302  1  0  -0.913435  0  1.96267  0  0  -0.821994  0  2.267391  0  0  -0.848877  0  2.236542  0  0  -0.390259  -0.802945  0  2.288082  0
O  O49  1  0.31292928  0.81488197  0.93972156  1  0  -0.913536  0  1.962662  0  0  -0.822084  0  2.267369  0  0  -0.848967  0  2.236518  0  0  -0.390355  -0.803035  0  2.288058  0
O  O50  1  0.68706219  0.31490212  0.56027488  1  0  -0.913391  0  1.96267  0  0  -0.821974  0  2.267399  0  0  -0.848859  0  2.236555  0  0  -0.390239  -0.80293  0  2.288096  0
O  O51  1  0.68705362  0.18510569  0.06027745  1  0  -0.913453  0  1.962636  0  0  -0.822024  0  2.267324  0  0  -0.848908  0  2.236481  0  0  -0.390317  -0.802969  0  2.288004  0
O  O52  1  0.20530873  0.60639056  0.57837556  1  0  -0.916787  0  2.04785  0  0  -0.818829  0  2.345203  0  0  -0.847053  0  2.317003  0  0  -0.377544  -0.798701  0  2.363741  0
O  O53  1  0.20530793  0.89361364  0.07837537  1  0  -0.916794  0  2.047814  0  0  -0.818889  0  2.345272  0  0  -0.847083  0  2.316994  0  0  -0.377543  -0.798753  0  2.363792  0
O  O54  1  0.79469171  0.39361024  0.42162519  1  0  -0.916748  0  2.047916  0  0  -0.818756  0  2.345277  0  0  -0.846965  0  2.317044  0  0  -0.377549  -0.798634  0  2.363825  0
O  O55  1  0.79467693  0.10637796  0.92162364  1  0  -0.91673  0  2.047818  0  0  -0.818752  0  2.345151  0  0  -0.846977  0  2.316953  0  0  -0.377515  -0.798628  0  2.363697  0
O  O56  1  0.87977667  0.77764739  0.49600775  1  0  -0.918293  0  2.028275  0  0  -0.811309  0  2.310548  0  0  -0.840579  0  2.28235  0  0  -0.375546  -0.790762  0  2.329628  0
O  O57  1  0.87977067  0.72235553  0.99600835  1  0  -0.918307  0  2.028281  0  0  -0.811326  0  2.310557  0  0  -0.840604  0  2.282362  0  0  -0.375536  -0.790789  0  2.329647  0
O  O58  1  0.12021206  0.22235997  0.50399241  1  0  -0.918326  0  2.028257  0  0  -0.811322  0  2.310499  0  0  -0.840582  0  2.282288  0  0  -0.375533  -0.790789  0  2.329593  0
O  O59  1  0.12021805  0.27764132  0.00399238  1  0  -0.918336  0  2.028256  0  0  -0.81131  0  2.310458  0  0  -0.840566  0  2.282245  0  0  -0.375534  -0.790787  0  2.329559  0
O  O60  1  0.28801843  0.91598318  0.54862545  1  0  -0.780591  0  1.997629  0  0  -0.705688  0  2.22086  0  0  -0.727418  0  2.194545  0  0  -0.392342  -0.690408  0  2.23889  0
O  O61  1  0.28800117  0.58402134  0.04862772  1  0  -0.780502  0  1.997679  0  0  -0.705555  0  2.221005  0  0  -0.727287  0  2.194683  0  0  -0.392254  -0.690275  0  2.239035  0
O  O62  1  0.71198395  0.08402550  0.45137587  1  0  -0.780351  0  1.997828  0  0  -0.705441  0  2.221244  0  0  -0.727175  0  2.194927  0  0  -0.392273  -0.690159  0  2.239272  0
O  O63  1  0.71197969  0.41597421  0.95137472  1  0  -0.780337  0  1.997659  0  0  -0.705471  0  2.221017  0  0  -0.727202  0  2.194703  0  0  -0.392243  -0.69019  0  2.239048  0
