# generated using pymatgen
data_CuH24C16N12(ClO5)2
_symmetry_space_group_name_H-M   'P 1'
_cell_length_a   8.57077167
_cell_length_b   9.17867023
_cell_length_c   10.21520836
_cell_angle_alpha   107.68235092
_cell_angle_beta   99.03662192
_cell_angle_gamma   116.42057875
_symmetry_Int_Tables_number   1
_chemical_formula_structural   CuH24C16N12(ClO5)2
_chemical_formula_sum   'Cu1 H24 C16 N12 Cl2 O10'
_cell_volume   644.21034612
_cell_formula_units_Z   1
loop_
 _symmetry_equiv_pos_site_id
 _symmetry_equiv_pos_as_xyz
  1  'x, y, z'
loop_
 _atom_site_type_symbol
 _atom_site_label
 _atom_site_symmetry_multiplicity
 _atom_site_fract_x
 _atom_site_fract_y
 _atom_site_fract_z
 _atom_site_occupancy
 _atom_site_hle17_ddec_charge
 _atom_site_hle17_ddec_spin_density
 _atom_site_hle17_ddec_sum_bond_order
 _atom_site_hle17_magmom
 _atom_site_hse06_10hf_ddec_charge
 _atom_site_hse06_10hf_ddec_spin_density
 _atom_site_hse06_10hf_ddec_sum_bond_order
 _atom_site_hse06_10hf_magmom
 _atom_site_hse06_ddec_charge
 _atom_site_hse06_ddec_spin_density
 _atom_site_hse06_ddec_sum_bond_order
 _atom_site_hse06_magmom
 _atom_site_pbe_cm5_charge
 _atom_site_pbe_ddec_charge
 _atom_site_pbe_ddec_spin_density
 _atom_site_pbe_ddec_sum_bond_order
 _atom_site_pbe_magmom
Cu  Cu0  1  0.50000098  0.49999958  0.49999884  1  0.820797  0.700895  1.899261  0.532  0.787156  0.778368  2.281635  0.633  0.86257  0.835204  2.229066  0.706  0.787706  0.740915  0.738461  2.317683  0.585
H  H1  1  0.23465079  0.20805542  0.17095683  1  0.104504  -0.00014  0.969958  0.0  0.111296  6e-06  1.032788  0.0  0.112929  -1.1e-05  1.030925  0.0  0.132029  0.110351  2.4e-05  1.033645  0.0
H  H2  1  0.76534905  0.79194643  0.82904323  1  0.104542  -0.000133  0.969993  0.0  0.111347  6e-06  1.032799  0.0  0.112982  -1.1e-05  1.030923  0.0  0.13205  0.110403  2.4e-05  1.033655  0.0
H  H3  1  0.47525306  0.77018296  0.34922042  1  0.126531  -0.000161  0.940134  0.0  0.129118  3e-05  1.011985  0.0  0.13188  2.6e-05  1.007663  0.0  0.144399  0.12708  3.9e-05  1.015083  0.0
H  H4  1  0.52475224  0.22982025  0.65078075  1  0.12655  -0.000157  0.940133  0.0  0.129129  3e-05  1.011976  0.0  0.131891  2.6e-05  1.007655  0.0  0.144387  0.127092  3.9e-05  1.01507  0.0
H  H5  1  0.22622693  0.73936760  0.10069202  1  0.108872  -8e-05  0.940422  0.0  0.119483  -3.2e-05  1.007233  0.0  0.120544  -3e-05  1.006295  0.0  0.116309  0.118897  -2.7e-05  1.007747  0.0
H  H6  1  0.77377434  0.26063694  0.89930994  1  0.108837  -9.7e-05  0.940506  0.0  0.119475  -3.2e-05  1.00729  0.0  0.120532  -3.1e-05  1.006351  0.0  0.116305  0.118886  -2.7e-05  1.0078  0.0
H  H7  1  0.16642005  0.54745381  0.94172202  1  0.106493  0.000283  0.920311  0.0  0.118406  0.000229  0.985973  0.0  0.119677  0.000152  0.985073  0.0  0.123825  0.117281  0.000248  0.987011  0.0
H  H8  1  0.83357860  0.45254805  0.05827984  1  0.106482  0.000276  0.920318  0.0  0.118392  0.000228  0.985987  0.0  0.119659  0.000151  0.985087  0.0  0.123823  0.117263  0.000248  0.987028  0.0
H  H9  1  0.51311200  0.67696605  0.98795788  1  0.04785  -2.6e-05  0.94079  0.0  0.059929  -3.3e-05  1.00915  0.0  0.060464  -3.3e-05  1.009191  0.0  0.096182  0.05939  -3.5e-05  1.009291  0.0
H  H10  1  0.48688449  0.32303177  0.01204065  1  0.047857  -1.5e-05  0.940752  0.0  0.059919  -3.3e-05  1.009126  0.0  0.060456  -3.3e-05  1.009164  0.0  0.096179  0.059383  -3.5e-05  1.00927  0.0
H  H11  1  0.42671479  0.80616557  0.94132908  1  0.054245  3.8e-05  0.93419  0.0  0.067194  1.6e-05  1.000354  0.0  0.067442  -1e-06  1.000714  0.0  0.099435  0.066755  4e-06  1.000422  0.0
H  H12  1  0.57328695  0.19383763  0.05867258  1  0.054239  5.3e-05  0.934215  0.0  0.067198  1.5e-05  1.00036  0.0  0.067445  -0.0  1.00072  0.0  0.099432  0.06676  4e-06  1.00043  0.0
H  H13  1  0.75696461  0.06244039  0.07487380  1  0.059192  2.4e-05  0.920544  0.0  0.075791  1.2e-05  0.981238  0.0  0.076372  7e-06  0.980879  0.0  0.100641  0.075387  1e-05  0.981286  0.0
H  H14  1  0.24303662  0.93755744  0.92512441  1  0.059182  3.4e-05  0.920563  0.0  0.075762  1.2e-05  0.981272  0.0  0.07635  6e-06  0.980902  0.0  0.100639  0.075359  1e-05  0.981322  0.0
H  H15  1  0.82513987  0.93106563  0.13938465  1  0.069923  6.7e-05  0.939913  0.0  0.080823  3.1e-05  1.008305  0.0  0.081329  1.4e-05  1.007822  0.0  0.102  0.080316  6.5e-05  1.008807  0.0
H  H16  1  0.17486327  0.06893355  0.86061418  1  0.069952  8.7e-05  0.939907  0.0  0.080845  3.1e-05  1.008299  0.0  0.08135  1.3e-05  1.007818  0.0  0.102011  0.080336  6.5e-05  1.008802  0.0
H  H17  1  0.86921333  0.11546957  0.39512306  1  0.106316  -5.2e-05  0.920517  0.0  0.116924  -7e-06  0.987988  0.0  0.117271  -7e-06  0.988159  0.0  0.118935  0.116833  -1.2e-05  0.987512  0.0
H  H18  1  0.13078862  0.88452961  0.60487659  1  0.106359  -6.8e-05  0.920598  0.0  0.116949  -7e-06  0.98805  0.0  0.117295  -7e-06  0.988219  0.0  0.118955  0.116856  -1.2e-05  0.987575  0.0
H  H19  1  0.01932314  0.24444444  0.32003366  1  0.098606  0.000106  0.937691  0.0  0.110287  9.3e-05  1.007023  0.0  0.110431  3.8e-05  1.007527  0.0  0.117896  0.110029  0.000121  1.006836  0.0
H  H20  1  0.98067454  0.75555336  0.67996308  1  0.098635  0.0001  0.937625  0.0  0.110251  9.4e-05  1.007011  0.0  0.110393  3.8e-05  1.007514  0.0  0.117882  0.109998  0.000122  1.006823  0.0
H  H21  1  0.59924883  0.17650534  0.43296694  1  0.124204  -0.000194  0.949096  0.0  0.12844  -5e-06  1.020028  0.0  0.130706  -1.2e-05  1.016189  0.0  0.142295  0.126648  -1.4e-05  1.022846  0.0
H  H22  1  0.40074479  0.82348705  0.56702389  1  0.124208  -0.000193  0.949199  0.0  0.128496  -5e-06  1.020047  0.0  0.130762  -1.3e-05  1.016207  0.0  0.142316  0.126703  -1.5e-05  1.02287  0.0
H  H23  1  0.81205791  0.63873417  0.34916999  1  0.118735  -0.00014  0.947204  0.0  0.126435  1.2e-05  1.006853  0.0  0.128207  -2e-06  1.004399  0.0  0.137911  0.124974  2.8e-05  1.008839  0.0
H  H24  1  0.18794902  0.36126774  0.65083400  1  0.118705  -0.000135  0.947204  0.0  0.126376  1.2e-05  1.006885  0.0  0.128145  -2e-06  1.004434  0.0  0.1379  0.124916  2.8e-05  1.008874  0.0
C  C25  1  0.27159161  0.34191967  0.18196063  1  0.179631  -0.005827  3.708217  -0.003  0.131719  -0.001745  4.003095  0.0  0.143809  -0.002608  4.017019  -0.001  0.137873  0.123984  -0.001158  3.993334  0.0
C  C26  1  0.72840895  0.65808351  0.81803891  1  0.179628  -0.005879  3.708221  -0.003  0.131702  -0.001743  4.003105  0.0  0.143796  -0.002614  4.01703  -0.001  0.137856  0.123968  -0.001158  3.993345  0.0
C  C27  1  0.39630672  0.62815709  0.27710277  1  0.189051  -0.006074  3.577127  -0.003  0.113367  -0.001435  3.84367  0.0  0.129759  -0.002686  3.854243  -0.001  0.167466  0.102696  -0.000655  3.836821  0.001
C  C28  1  0.60369405  0.37184207  0.72289475  1  0.188927  -0.006117  3.577059  -0.003  0.11327  -0.001434  3.843587  0.0  0.129657  -0.002688  3.854165  -0.001  0.167433  0.102598  -0.000655  3.836738  0.001
C  C29  1  0.27332918  0.65134510  0.04727233  1  -0.06007  0.000722  3.618649  0.001  -0.138543  0.000587  3.876708  0.001  -0.13583  0.000464  3.886458  0.001  -0.052812  -0.140602  0.000802  3.870392  0.001
C  C30  1  0.72667019  0.34865810  0.95272900  1  -0.060021  0.000774  3.618715  0.001  -0.138514  0.000585  3.876771  0.001  -0.135789  0.000468  3.886506  0.001  -0.052784  -0.140569  0.000802  3.870449  0.001
C  C31  1  0.45377261  0.76024003  0.02575380  1  0.075518  -0.00017  3.665452  0.0  0.017055  -0.000124  3.943646  0.0  0.022991  -0.0001  3.950687  0.0  -0.068543  0.013212  -0.000109  3.939  0.0
C  C32  1  0.54622769  0.23976048  0.97424598  1  0.075489  -0.000279  3.665457  0.0  0.017067  -0.000115  3.943644  0.0  0.023003  -0.000107  3.950686  0.0  -0.068552  0.013218  -0.000109  3.939007  0.0
C  C33  1  0.76070747  0.01246785  0.16043444  1  0.063776  -8.5e-05  3.644772  0.0  0.00479  -4.7e-05  3.91884  0.0  0.010816  -5.7e-05  3.925204  0.0  -0.071459  0.000845  -2.7e-05  3.914148  0.0
C  C34  1  0.23929375  0.98752999  0.83956475  1  0.063725  -0.000188  3.644817  0.0  0.004784  -4.6e-05  3.918825  0.0  0.010811  -5.6e-05  3.925189  0.0  -0.071493  0.000834  -2.7e-05  3.914142  0.0
C  C35  1  0.87440289  0.16677918  0.31100848  1  -0.050002  0.000701  3.628481  0.001  -0.128118  0.000555  3.888173  0.001  -0.124972  0.000419  3.898941  0.001  -0.053253  -0.130031  0.000679  3.880541  0.001
C  C36  1  0.12559859  0.83322133  0.68899048  1  -0.050057  0.000747  3.628605  0.001  -0.128072  0.000554  3.888192  0.001  -0.124917  0.000418  3.898947  0.001  -0.053257  -0.129991  0.000679  3.880563  0.001
C  C37  1  0.67666267  0.28228880  0.40109903  1  0.186257  -0.005931  3.595788  -0.003  0.106407  -0.001499  3.873251  0.0  0.123198  -0.00271  3.883956  -0.001  0.166117  0.095681  -0.000699  3.866149  0.001
C  C38  1  0.32334028  0.71771435  0.59889593  1  0.186305  -0.005936  3.595579  -0.003  0.106406  -0.001499  3.873069  0.0  0.123201  -0.002715  3.883769  -0.001  0.166128  0.095682  -0.0007  3.865957  0.001
C  C39  1  0.78653942  0.51455673  0.35529762  1  0.191516  -0.005491  3.676742  -0.002  0.143652  -0.001491  3.970351  0.0  0.156437  -0.002352  3.983883  -0.001  0.142694  0.135316  -0.000946  3.961109  0.0
C  C40  1  0.21346561  0.48544382  0.64470379  1  0.191625  -0.005518  3.676856  -0.002  0.143788  -0.00149  3.970475  0.0  0.156578  -0.002358  3.984004  -0.001  0.142762  0.135443  -0.000946  3.961238  0.0
N  N41  1  0.38409362  0.49334192  0.30965276  1  -0.38406  0.07539  3.291732  0.1  -0.344445  0.053242  3.616001  0.074  -0.377129  0.043257  3.635362  0.065  -0.367404  -0.324292  0.059432  3.604137  0.079
N  N42  1  0.61590740  0.50665992  0.69034649  1  -0.383992  0.075407  3.2917  0.1  -0.344377  0.053243  3.615951  0.074  -0.377063  0.043258  3.635315  0.065  -0.367374  -0.324227  0.059433  3.604089  0.079
N  N43  1  0.29464261  0.55839006  0.13567669  1  0.056544  0.00197  3.537222  0.003  0.179329  0.001431  3.719963  0.002  0.170236  0.001068  3.741119  0.002  -0.12587  0.184956  0.001674  3.706395  0.002
N  N44  1  0.70535794  0.44161315  0.86432579  1  0.056689  0.001982  3.537101  0.003  0.17946  0.001429  3.719857  0.002  0.170381  0.001062  3.740979  0.002  -0.125844  0.185094  0.001675  3.706278  0.002
N  N45  1  0.21474139  0.37659706  0.07314365  1  -0.256713  0.010053  2.836371  0.012  -0.263808  0.004543  3.102121  0.006  -0.272172  0.002993  3.11458  0.004  -0.220102  -0.257669  0.006115  3.093239  0.007
N  N46  1  0.78525679  0.62340614  0.92685850  1  -0.256859  0.010068  2.83634  0.012  -0.263951  0.004543  3.102103  0.006  -0.272321  0.003  3.114563  0.004  -0.220147  -0.257814  0.006115  3.093222  0.007
N  N47  1  0.80904801  0.29117809  0.34368167  1  0.051006  0.001952  3.558102  0.003  0.171277  0.0014  3.745213  0.002  0.161646  0.001038  3.767162  0.002  -0.13225  0.176866  0.001674  3.731761  0.002
N  N48  1  0.19095038  0.70882108  0.65631846  1  0.050896  0.001937  3.558178  0.003  0.171195  0.001401  3.745217  0.002  0.161551  0.00104  3.767185  0.002  -0.132276  0.176787  0.001674  3.731752  0.002
N  N49  1  0.88082766  0.43800036  0.31351320  1  -0.267433  0.009284  2.830184  0.011  -0.273512  0.004106  3.100082  0.005  -0.28208  0.002795  3.113326  0.004  -0.225127  -0.266736  0.005934  3.090492  0.007
N  N50  1  0.11917594  0.56199750  0.68648730  1  -0.267455  0.009297  2.830356  0.011  -0.273541  0.004106  3.100224  0.005  -0.28211  0.002798  3.11347  0.004  -0.225158  -0.266764  0.005935  3.090632  0.007
N  N51  1  0.65937938  0.42293231  0.41030289  1  -0.384569  0.075809  3.280776  0.101  -0.344742  0.05362  3.604959  0.075  -0.377803  0.043514  3.624403  0.065  -0.365282  -0.324107  0.06007  3.592719  0.08
N  N52  1  0.34062230  0.57706420  0.58969601  1  -0.384573  0.075821  3.280732  0.101  -0.344758  0.053623  3.604941  0.075  -0.377819  0.043518  3.624382  0.065  -0.365297  -0.324122  0.060077  3.592694  0.08
Cl  Cl53  1  0.18956422  0.99651112  0.34601556  1  1.394686  -0.000345  6.193135  0.0  1.333649  -0.000426  6.756825  0.0  1.386013  -0.000413  6.732799  0.0  0.730191  1.297711  -0.000463  6.772137  0.0
Cl  Cl54  1  0.81043298  0.00348806  0.65398539  1  1.394812  -0.000341  6.192888  0.0  1.333747  -0.000425  6.756615  0.0  1.38611  -0.000383  6.732588  0.0  0.730217  1.297798  -0.000463  6.771947  0.0
O  O55  1  0.57834647  0.90940510  0.16196665  1  -0.314671  0.000254  2.255698  0.0  -0.246025  6.4e-05  2.514777  0.0  -0.262069  1.7e-05  2.517099  0.0  -0.23425  -0.234782  4.5e-05  2.512706  0.0
O  O56  1  0.42165666  0.09059410  0.83803414  1  -0.314622  0.000266  2.255716  0.0  -0.246056  6.4e-05  2.514827  0.0  -0.262117  1.8e-05  2.517162  0.0  -0.234228  -0.234811  4.5e-05  2.512757  0.0
O  O57  1  0.25595677  0.18532368  0.43739572  1  -0.590008  -0.002017  1.915256  0.0  -0.569023  -0.002025  2.195689  0.0  -0.586207  -0.002114  2.179394  0.0  -0.325801  -0.557277  -0.001796  2.206623  0.0
O  O58  1  0.74404161  0.81467551  0.56260637  1  -0.590038  -0.002104  1.91521  0.0  -0.569061  -0.001998  2.195646  0.0  -0.586259  -0.002178  2.179378  0.0  -0.325837  -0.557312  -0.001796  2.206581  0.0
O  O59  1  0.99925445  0.88406189  0.33433126  1  -0.518242  -0.00022  1.869066  0.0  -0.487268  -0.000269  2.10653  0.0  -0.501972  -0.000232  2.092924  0.0  -0.300436  -0.47736  -0.000247  2.115532  0.0
O  O60  1  0.00074227  0.11593866  0.66567390  1  -0.518252  -0.000241  1.869051  0.0  -0.487247  -0.000265  2.106496  0.0  -0.50195  -0.000269  2.092889  0.0  -0.300411  -0.47734  -0.000247  2.115508  0.0
O  O61  1  0.30853914  0.94573775  0.41454799  1  -0.551222  -8.3e-05  1.850782  0.0  -0.522319  -5.8e-05  2.100481  0.0  -0.538099  -5.4e-05  2.086867  0.0  -0.314962  -0.511787  -5.2e-05  2.109532  0.0
O  O62  1  0.69145616  0.05426008  0.58545234  1  -0.551221  -1e-06  1.850631  0.0  -0.522309  -8.1e-05  2.100329  0.0  -0.538084  1e-06  2.086714  0.0  -0.314932  -0.511773  -5.2e-05  2.109381  0.0
O  O63  1  0.20095027  0.97894221  0.20120986  1  -0.546864  1.2e-05  1.868204  0.0  -0.521158  2.8e-05  2.113664  0.0  -0.535115  3e-05  2.099252  0.0  -0.312502  -0.511029  4.1e-05  2.122039  0.0
O  O64  1  0.79904002  0.02105292  0.79879005  1  -0.546951  2.9e-05  1.868199  0.0  -0.521239  2.2e-05  2.113664  0.0  -0.535194  3.8e-05  2.099251  0.0  -0.312539  -0.511104  4e-05  2.122042  0.0
