# generated using pymatgen
data_Cu3SiH21C28(IN)3
_symmetry_space_group_name_H-M   'P 1'
_cell_length_a   12.43673289
_cell_length_b   12.49085463
_cell_length_c   12.64070000
_cell_angle_alpha   61.93031112
_cell_angle_beta   61.79726412
_cell_angle_gamma   62.10765745
_symmetry_Int_Tables_number   1
_chemical_formula_structural   Cu3SiH21C28(IN)3
_chemical_formula_sum   'Cu6 Si2 H42 C56 I6 N6'
_cell_volume   1448.94182577
_cell_formula_units_Z   2
loop_
 _symmetry_equiv_pos_site_id
 _symmetry_equiv_pos_as_xyz
  1  'x, y, z'
loop_
 _atom_site_type_symbol
 _atom_site_label
 _atom_site_symmetry_multiplicity
 _atom_site_fract_x
 _atom_site_fract_y
 _atom_site_fract_z
 _atom_site_occupancy
 _atom_site_hle17_bader_spin_density
 _atom_site_hle17_ddec_charge
 _atom_site_hle17_ddec_spin_density
 _atom_site_hle17_ddec_sum_bond_order
 _atom_site_hle17_magmom
 _atom_site_hse06_10hf_bader_spin_density
 _atom_site_hse06_10hf_ddec_charge
 _atom_site_hse06_10hf_ddec_spin_density
 _atom_site_hse06_10hf_ddec_sum_bond_order
 _atom_site_hse06_10hf_magmom
 _atom_site_hse06_bader_spin_density
 _atom_site_hse06_ddec_charge
 _atom_site_hse06_ddec_spin_density
 _atom_site_hse06_ddec_sum_bond_order
 _atom_site_hse06_magmom
 _atom_site_pbe_bader_charge
 _atom_site_pbe_bader_spin_density
 _atom_site_pbe_cm5_charge
 _atom_site_pbe_ddec_charge
 _atom_site_pbe_ddec_spin_density
 _atom_site_pbe_ddec_sum_bond_order
 _atom_site_pbe_magmom
Cu  Cu0  1  0.84528682  0.01069395  0.23419776  1  0  0.276676  0  2.097679  0  0  0.194541  0  2.572887  0  0  0.206482  0  2.520235  0  0.421468  0  0.254527  0.18865  0  2.60731  0
Cu  Cu1  1  0.22994380  0.84316277  0.01358345  1  0  0.273411  0  2.105506  0  0  0.191363  0  2.582009  0  0  0.20361  0  2.528704  0  0.418718  0  0.25159  0.185243  0  2.616943  0
Cu  Cu2  1  0.00876503  0.23021721  0.84549505  1  0  0.272031  0  2.096929  0  0  0.190587  0  2.570765  0  0  0.203251  0  2.517201  0  0.418103  0  0.25135  0.18414  0  2.605867  0
Cu  Cu3  1  0.15471728  0.98931623  0.76579149  1  0  0.276707  0  2.097627  0  0  0.194542  0  2.572886  0  0  0.206469  0  2.520225  0  0.421495  0  0.254521  0.188638  0  2.607351  0
Cu  Cu4  1  0.77004905  0.15683976  0.98642566  1  0  0.273448  0  2.105391  0  0  0.191388  0  2.581893  0  0  0.203626  0  2.52858  0  0.418717  0  0.251605  0.185262  0  2.616827  0
Cu  Cu5  1  0.99123785  0.76977958  0.15450495  1  0  0.272079  0  2.09682  0  0  0.190624  0  2.570644  0  0  0.20329  0  2.51708  0  0.418032  0  0.251347  0.184177  0  2.605734  0
Si  Si6  1  0.34202177  0.34358222  0.34578267  1  0  0.945737  0  3.4677  0  0  0.811812  0  3.848261  0  0  0.83243  0  3.847739  0  2.700203  0  0.136164  0.796864  0  3.849729  0
Si  Si7  1  0.65797594  0.65641648  0.65422279  1  0  0.94578  0  3.467541  0  0  0.811806  0  3.848254  0  0  0.832409  0  3.847768  0  2.700167  0  0.136168  0.796889  0  3.849634  0
H  H8  1  0.58678197  0.14279248  0.25833444  1  0  0.059584  0  0.965965  0  0  0.065909  0  1.04297  0  0  0.070053  0  1.036959  0  0.080115  0  0.097907  0.062473  0  1.047669  0
H  H9  1  0.25508476  0.58478311  0.14426633  1  0  0.059799  0  0.9648  0  0  0.06556  0  1.042729  0  0  0.069891  0  1.036359  0  0.097054  0  0.098046  0.062047  0  1.047613  0
H  H10  1  0.14007723  0.25524529  0.58865945  1  0  0.057725  0  0.969792  0  0  0.063732  0  1.04778  0  0  0.068104  0  1.041321  0  0.096668  0  0.096436  0.060202  0  1.052676  0
H  H11  1  0.41322517  0.85720526  0.74166234  1  0  0.059562  0  0.966001  0  0  0.065911  0  1.042979  0  0  0.070041  0  1.036977  0  0.080398  0  0.097925  0.062475  0  1.047679  0
H  H12  1  0.74491082  0.41521655  0.85573493  1  0  0.05985  0  0.964771  0  0  0.065618  0  1.042678  0  0  0.069947  0  1.036312  0  0.097045  0  0.098091  0.062105  0  1.047568  0
H  H13  1  0.85991684  0.74475341  0.41134850  1  0  0.057776  0  0.969726  0  0  0.06374  0  1.047751  0  0  0.068109  0  1.041289  0  0.096639  0  0.09643  0.060207  0  1.052651  0
H  H14  1  0.89498369  0.95219053  0.45218882  1  0  0.09474  0  1.005318  0  0  0.100811  0  1.079837  0  0  0.104904  0  1.076785  0  0.10132  0  0.083993  0.097406  0  1.082825  0
H  H15  1  0.45289373  0.89335184  0.95198976  1  0  0.095298  0  1.006133  0  0  0.101527  0  1.080547  0  0  0.105604  0  1.077555  0  0.088205  0  0.083702  0.098169  0  1.083438  0
H  H16  1  0.95279865  0.45083818  0.89248057  1  0  0.094979  0  1.008758  0  0  0.101228  0  1.082905  0  0  0.105251  0  1.079996  0  0.077415  0  0.082978  0.097923  0  1.085713  0
H  H17  1  0.10503014  0.04780913  0.54781029  1  0  0.094711  0  1.005422  0  0  0.100855  0  1.079819  0  0  0.104963  0  1.076753  0  0.101568  0  0.08402  0.097449  0  1.082805  0
H  H18  1  0.54710307  0.10664687  0.04801218  1  0  0.095267  0  1.006138  0  0  0.101495  0  1.080558  0  0  0.105566  0  1.07757  0  0.088219  0  0.083708  0.098128  0  1.083456  0
H  H19  1  0.04719420  0.54917009  0.10751955  1  0  0.095001  0  1.008646  0  0  0.101223  0  1.082842  0  0  0.105246  0  1.079934  0  0.077444  0  0.082966  0.097917  0  1.085648  0
H  H20  1  0.39172400  0.26868635  0.58719619  1  0  0.090523  0  0.956367  0  0  0.102078  0  1.018309  0  0  0.104671  0  1.016638  0  0.06815  0  0.101235  0.100127  0  1.019555  0
H  H21  1  0.58780727  0.39426468  0.26887762  1  0  0.090895  0  0.954949  0  0  0.102569  0  1.016925  0  0  0.10522  0  1.015178  0  0.072828  0  0.10114  0.10062  0  1.018165  0
H  H22  1  0.26708627  0.58833628  0.39393661  1  0  0.090738  0  0.956077  0  0  0.102023  0  1.018495  0  0  0.104622  0  1.016837  0  0.086998  0  0.1008  0.100098  0  1.01968  0
H  H23  1  0.60828193  0.73131809  0.41279804  1  0  0.090523  0  0.956382  0  0  0.102142  0  1.018249  0  0  0.104733  0  1.016583  0  0.067947  0  0.101249  0.100191  0  1.019496  0
H  H24  1  0.41219288  0.60573211  0.73111811  1  0  0.090905  0  0.954958  0  0  0.102552  0  1.016964  0  0  0.105201  0  1.015218  0  0.072803  0  0.101142  0.100604  0  1.018204  0
H  H25  1  0.73290901  0.41166434  0.60606830  1  0  0.090785  0  0.956001  0  0  0.102061  0  1.018417  0  0  0.104653  0  1.016775  0  0.086987  0  0.100831  0.100132  0  1.019612  0
H  H26  1  0.90440711  0.95080407  0.64504069  1  0  0.086565  0  0.96762  0  0  0.097941  0  1.028676  0  0  0.100088  0  1.028396  0  0.103155  0  0.096224  0.096374  0  1.028848  0
H  H27  1  0.64814855  0.90497041  0.95005231  1  0  0.086519  0  0.966316  0  0  0.097774  0  1.027362  0  0  0.100037  0  1.026853  0  0.108863  0  0.096452  0.096158  0  1.027587  0
H  H28  1  0.95339679  0.64530946  0.90130265  1  0  0.086692  0  0.967139  0  0  0.098211  0  1.027732  0  0  0.100378  0  1.027463  0  0.077322  0  0.095887  0.096609  0  1.02792  0
H  H29  1  0.09559547  0.04920229  0.35495737  1  0  0.086559  0  0.967594  0  0  0.097947  0  1.028639  0  0  0.100096  0  1.028358  0  0.103208  0  0.096221  0.09638  0  1.028813  0
H  H30  1  0.35185068  0.09502925  0.04994646  1  0  0.086485  0  0.96632  0  0  0.097757  0  1.02735  0  0  0.100016  0  1.026845  0  0.108839  0  0.09645  0.09614  0  1.027576  0
H  H31  1  0.04660609  0.35469020  0.09869917  1  0  0.086695  0  0.967002  0  0  0.098198  0  1.02762  0  0  0.100363  0  1.027351  0  0.077384  0  0.095894  0.096597  0  1.027809  0
H  H32  1  0.50697284  0.18445718  0.73721174  1  0  0.0942  0  0.969329  0  0  0.103135  0  1.034454  0  0  0.105193  0  1.035277  0  0.064604  0  0.096078  0.101097  0  1.035187  0
H  H33  1  0.74080556  0.51007560  0.18331122  1  0  0.092759  0  0.973555  0  0  0.101111  0  1.039724  0  0  0.103135  0  1.040636  0  0.088114  0  0.095389  0.099207  0  1.040239  0
H  H34  1  0.18510573  0.73955656  0.50774540  1  0  0.093167  0  0.973627  0  0  0.101792  0  1.039464  0  0  0.103866  0  1.040312  0  0.068509  0  0.095517  0.099839  0  1.040038  0
H  H35  1  0.49303065  0.81555204  0.26277507  1  0  0.094136  0  0.969457  0  0  0.103074  0  1.03458  0  0  0.105135  0  1.0354  0  0.064645  0  0.096068  0.101036  0  1.035312  0
H  H36  1  0.25919367  0.48992119  0.81668097  1  0  0.092732  0  0.973559  0  0  0.101065  0  1.039741  0  0  0.10309  0  1.040646  0  0.088179  0  0.095369  0.099166  0  1.040256  0
H  H37  1  0.81490050  0.26044119  0.49225893  1  0  0.093272  0  0.973652  0  0  0.101856  0  1.039503  0  0  0.103932  0  1.040349  0  0.068395  0  0.095559  0.099886  0  1.040095  0
H  H38  1  0.21861285  0.36071319  0.22940540  1  0  0.1582  0  0.981759  0  0  0.176771  0  1.038238  0  0  0.178152  0  1.040092  0  0.051736  0  0.092636  0.175604  0  1.037163  0
H  H39  1  0.22416812  0.21934159  0.36223522  1  0  0.158684  0  0.982089  0  0  0.17706  0  1.03888  0  0  0.178471  0  1.040736  0  0.069098  0  0.09231  0.175896  0  1.037785  0
H  H40  1  0.36015587  0.22660858  0.22290344  1  0  0.15921  0  0.977219  0  0  0.17788  0  1.03347  0  0  0.179338  0  1.035168  0  0.059789  0  0.093447  0.17667  0  1.032497  0
H  H41  1  0.78138547  0.63928360  0.77059830  1  0  0.15813  0  0.981791  0  0  0.176708  0  1.038264  0  0  0.178089  0  1.040118  0  0.051692  0  0.092608  0.175541  0  1.037191  0
H  H42  1  0.77582959  0.78065711  0.63777024  1  0  0.158661  0  0.982024  0  0  0.177032  0  1.038832  0  0  0.178444  0  1.040689  0  0.06878  0  0.092305  0.175866  0  1.037742  0
H  H43  1  0.63984306  0.77339204  0.77710136  1  0  0.159178  0  0.977325  0  0  0.177856  0  1.033559  0  0  0.179314  0  1.035256  0  0.059808  0  0.093434  0.176644  0  1.032588  0
H  H44  1  0.71228824  0.06587238  0.78711404  1  0  0.090812  0  0.971535  0  0  0.100444  0  1.036056  0  0  0.103406  0  1.034755  0  0.070327  0  0.090376  0.09794  0  1.037577  0
H  H45  1  0.79206814  0.71515573  0.06432991  1  0  0.091657  0  0.969599  0  0  0.100354  0  1.03567  0  0  0.103516  0  1.034122  0  0.071455  0  0.090506  0.097768  0  1.037208  0
H  H46  1  0.06885300  0.78917287  0.71079556  1  0  0.089966  0  0.970071  0  0  0.098479  0  1.036541  0  0  0.101622  0  1.034976  0  0.046432  0  0.090461  0.095913  0  1.038126  0
H  H47  1  0.28771069  0.93413111  0.21288152  1  0  0.090826  0  0.971471  0  0  0.100448  0  1.036031  0  0  0.103426  0  1.03469  0  0.070275  0  0.090401  0.097945  0  1.037548  0
H  H48  1  0.20793018  0.28484106  0.93567062  1  0  0.091698  0  0.969563  0  0  0.10038  0  1.035647  0  0  0.10354  0  1.034101  0  0.071338  0  0.090514  0.097794  0  1.037187  0
H  H49  1  0.93115413  0.21082201  0.28921283  1  0  0.090022  0  0.970205  0  0  0.098536  0  1.036654  0  0  0.101676  0  1.035091  0  0.046686  0  0.090477  0.095971  0  1.038242  0
C  C50  1  0.58358236  0.14344173  0.34600045  1  0  0.169552  0  3.689783  0  0  0.13233  0  3.935552  0  0  0.143254  0  3.950139  0  0.446558  0  0.049211  0.124742  0  3.926907  0
C  C51  1  0.34395535  0.58266612  0.14446369  1  0  0.169574  0  3.686246  0  0  0.132649  0  3.931766  0  0  0.143512  0  3.946239  0  0.514224  0  0.048736  0.125156  0  3.923054  0
C  C52  1  0.14119334  0.34392454  0.58519657  1  0  0.171722  0  3.687354  0  0  0.134617  0  3.933317  0  0  0.145433  0  3.947948  0  0.496033  0  0.049474  0.127136  0  3.924477  0
C  C53  1  0.41642387  0.85655889  0.65399304  1  0  0.169498  0  3.690011  0  0  0.132282  0  3.935763  0  0  0.143223  0  3.950356  0  0.446304  0  0.04912  0.124692  0  3.927119  0
C  C54  1  0.65604054  0.41733259  0.85554025  1  0  0.169658  0  3.686283  0  0  0.132738  0  3.931797  0  0  0.143603  0  3.946265  0  0.514267  0  0.048759  0.125235  0  3.923092  0
C  C55  1  0.85880741  0.65607034  0.41481163  1  0  0.171719  0  3.687247  0  0  0.134639  0  3.933217  0  0  0.145462  0  3.947839  0  0.496145  0  0.049501  0.127155  0  3.924383  0
C  C56  1  0.69606662  0.07084644  0.48329761  1  0  0.19966  0  3.731415  0  0  0.199745  0  3.95946  0  0  0.205917  0  3.982131  0  0.385204  0  0.105996  0.195636  0  3.944853  0
C  C57  1  0.48396908  0.69566108  0.07052622  1  0  0.201739  0  3.728739  0  0  0.201388  0  3.957554  0  0  0.207658  0  3.980074  0  0.389773  0  0.106096  0.197196  0  3.943081  0
C  C58  1  0.07026371  0.48264559  0.69571222  1  0  0.201505  0  3.730785  0  0  0.20103  0  3.959692  0  0  0.20727  0  3.982351  0  0.344024  0  0.10624  0.196878  0  3.945093  0
C  C59  1  0.30394022  0.92914940  0.51669624  1  0  0.199553  0  3.731677  0  0  0.199686  0  3.959721  0  0  0.20586  0  3.982393  0  0.385078  0  0.10602  0.195577  0  3.94511  0
C  C60  1  0.51602742  0.30433571  0.92947516  1  0  0.201797  0  3.728562  0  0  0.201486  0  3.957324  0  0  0.207731  0  3.979875  0  0.389779  0  0.106133  0.197291  0  3.942845  0
C  C61  1  0.92972579  0.51735598  0.30429335  1  0  0.201388  0  3.730835  0  0  0.200956  0  3.959709  0  0  0.207194  0  3.982367  0  0.34379  0  0.106279  0.196813  0  3.945093  0
C  C62  1  0.47193929  0.21868756  0.41671846  1  0  -0.337196  0  3.737825  0  0  -0.286854  0  3.990139  0  0  -0.300617  0  4.013291  0  -0.56997  0  -0.062828  -0.277743  0  3.975274  0
C  C63  1  0.41480799  0.47271564  0.22021487  1  0  -0.337795  0  3.738475  0  0  -0.286777  0  3.989655  0  0  -0.300481  0  4.012793  0  -0.676036  0  -0.062822  -0.277673  0  3.974711  0
C  C64  1  0.21657633  0.41556747  0.47420933  1  0  -0.337782  0  3.733028  0  0  -0.287249  0  3.98525  0  0  -0.300957  0  4.008401  0  -0.624171  0  -0.062971  -0.278137  0  3.970333  0
C  C65  1  0.52806512  0.78131305  0.58327825  1  0  -0.33721  0  3.737907  0  0  -0.286893  0  3.990272  0  0  -0.300655  0  4.013421  0  -0.570463  0  -0.062841  -0.277783  0  3.975405  0
C  C66  1  0.58518698  0.52728307  0.77978949  1  0  -0.33786  0  3.738168  0  0  -0.28685  0  3.989385  0  0  -0.300552  0  4.012516  0  -0.675722  0  -0.062854  -0.277748  0  3.974444  0
C  C67  1  0.78342624  0.58442741  0.52580040  1  0  -0.337694  0  3.732925  0  0  -0.28716  0  3.985142  0  0  -0.300868  0  4.008293  0  -0.62497  0  -0.062938  -0.278049  0  3.970225  0
C  C68  1  0.81084535  0.00294887  0.51477414  1  0  -0.157317  0  3.735189  0  0  -0.172188  0  3.979308  0  0  -0.177466  0  3.997987  0  -0.0554  0  -0.094762  -0.169325  0  3.967806  0
C  C69  1  0.51623151  0.81022610  0.00242556  1  0  -0.157347  0  3.732139  0  0  -0.172814  0  3.976934  0  0  -0.178095  0  3.99574  0  -0.013613  0  -0.094956  -0.169917  0  3.965223  0
C  C70  1  0.00350379  0.51430002  0.80904478  1  0  -0.157057  0  3.734718  0  0  -0.171962  0  3.978499  0  0  -0.177221  0  3.997151  0  0.023758  0  -0.094746  -0.16908  0  3.966886  0
C  C71  1  0.18916422  0.99704697  0.48522318  1  0  -0.157382  0  3.735453  0  0  -0.1723  0  3.979576  0  0  -0.177593  0  3.998242  0  -0.055441  0  -0.09487  -0.169433  0  3.968072  0
C  C72  1  0.48376499  0.18977069  0.99757344  1  0  -0.15729  0  3.732343  0  0  -0.17278  0  3.977137  0  0  -0.178046  0  3.995952  0  -0.013601  0  -0.094962  -0.169874  0  3.965431  0
C  C73  1  0.99648602  0.48570347  0.19095501  1  0  -0.156992  0  3.734633  0  0  -0.171889  0  3.97841  0  0  -0.177152  0  3.997067  0  0.023598  0  -0.094722  -0.169007  0  3.966793  0
C  C74  1  0.58549661  0.13858337  0.56451320  1  0  0.012536  0  3.791466  0  0  0.033899  0  4.015118  0  0  0.028999  0  4.039699  0  0.046008  0  -0.008168  0.036841  0  3.998616  0
C  C75  1  0.56601391  0.58651284  0.13804626  1  0  0.013795  0  3.787092  0  0  0.035089  0  4.01113  0  0  0.030171  0  4.035729  0  0.051135  0  -0.007618  0.038037  0  3.994602  0
C  C76  1  0.13790353  0.56503029  0.58591366  1  0  0.013553  0  3.789117  0  0  0.035237  0  4.012453  0  0  0.030328  0  4.037083  0  -0.012438  0  -0.00756  0.038181  0  3.995891  0
C  C77  1  0.41451053  0.86141438  0.43548121  1  0  0.012744  0  3.791252  0  0  0.034004  0  4.015049  0  0  0.029101  0  4.039635  0  0.045592  0  -0.008133  0.036946  0  3.998548  0
C  C78  1  0.43398623  0.41348395  0.86195026  1  0  0.013764  0  3.787129  0  0  0.035062  0  4.011123  0  0  0.030151  0  4.035727  0  0.050856  0  -0.007688  0.038009  0  3.994598  0
C  C79  1  0.86209206  0.43497224  0.41408706  1  0  0.013506  0  3.78944  0  0  0.035122  0  4.012844  0  0  0.030213  0  4.037472  0  -0.01251  0  -0.007618  0.038065  0  3.996274  0
C  C80  1  0.47411651  0.21323063  0.52779906  1  0  -0.014118  0  3.720655  0  0  -0.049033  0  3.966793  0  0  -0.04144  0  3.981904  0  -0.093294  0  -0.061058  -0.054052  0  3.956473  0
C  C81  1  0.52787246  0.47569510  0.21364486  1  0  -0.016436  0  3.721729  0  0  -0.051704  0  3.968316  0  0  -0.044169  0  3.983419  0  -0.059001  0  -0.061585  -0.056619  0  3.957855  0
C  C82  1  0.21171713  0.52798873  0.47580203  1  0  -0.015437  0  3.720508  0  0  -0.050438  0  3.96701  0  0  -0.042958  0  3.982196  0  -0.035192  0  -0.06102  -0.05536  0  3.956592  0
C  C83  1  0.52588911  0.78676903  0.47219437  1  0  -0.014196  0  3.720603  0  0  -0.049121  0  3.966759  0  0  -0.041526  0  3.981867  0  -0.092682  0  -0.061057  -0.054143  0  3.956446  0
C  C84  1  0.47212464  0.52430265  0.78635184  1  0  -0.016461  0  3.721556  0  0  -0.051708  0  3.968145  0  0  -0.04417  0  3.983243  0  -0.059149  0  -0.061601  -0.056625  0  3.957687  0
C  C85  1  0.78827784  0.47200998  0.52420313  1  0  -0.015475  0  3.720451  0  0  -0.050444  0  3.966969  0  0  -0.042962  0  3.982153  0  -0.0343  0  -0.060988  -0.055368  0  3.956554  0
C  C86  1  0.81523849  0.00202902  0.62232877  1  0  -0.03555  0  3.7472  0  0  -0.048378  0  3.98947  0  0  -0.047463  0  4.009667  0  -0.08681  0  -0.083132  -0.048974  0  3.976482  0
C  C87  1  0.62509894  0.81583316  0.00125513  1  0  -0.03547  0  3.747567  0  0  -0.048128  0  3.989864  0  0  -0.047308  0  4.010176  0  -0.085512  0  -0.083992  -0.04855  0  3.976549  0
C  C88  1  0.00376829  0.62272061  0.81309299  1  0  -0.036592  0  3.749305  0  0  -0.049319  0  3.991304  0  0  -0.048412  0  4.01135  0  -0.075431  0  -0.083675  -0.049901  0  3.978328  0
C  C89  1  0.18476379  0.99797255  0.37766928  1  0  -0.035486  0  3.747165  0  0  -0.048326  0  3.989455  0  0  -0.047412  0  4.009656  0  -0.086887  0  -0.0831  -0.048924  0  3.976468  0
C  C90  1  0.37490060  0.18416555  0.99874236  1  0  -0.035434  0  3.747681  0  0  -0.048093  0  3.989971  0  0  -0.047273  0  4.010282  0  -0.085942  0  -0.084024  -0.048514  0  3.976653  0
C  C91  1  0.99623125  0.37728097  0.18691187  1  0  -0.036606  0  3.749462  0  0  -0.049322  0  3.991466  0  0  -0.048417  0  4.011522  0  -0.075521  0  -0.083742  -0.049906  0  3.978492  0
C  C92  1  0.59249866  0.13375273  0.67554561  1  0  -0.099656  0  3.739165  0  0  -0.11828  0  3.981167  0  0  -0.119353  0  4.003015  0  0.013503  0  -0.087742  -0.117567  0  3.967538  0
C  C93  1  0.67860010  0.59462414  0.13270313  1  0  -0.100934  0  3.73802  0  0  -0.119087  0  3.979855  0  0  -0.120254  0  4.001815  0  -0.151053  0  -0.088723  -0.118256  0  3.96599  0
C  C94  1  0.13435241  0.67703273  0.59249368  1  0  -0.101683  0  3.738059  0  0  -0.120084  0  3.979739  0  0  -0.121304  0  4.001872  0  -0.056336  0  -0.088314  -0.119156  0  3.96563  0
C  C95  1  0.40750605  0.86625553  0.32444187  1  0  -0.099541  0  3.738994  0  0  -0.118142  0  3.981017  0  0  -0.119218  0  4.00287  0  0.01347  0  -0.087714  -0.11743  0  3.967388  0
C  C96  1  0.32140004  0.40537839  0.86728597  1  0  -0.100865  0  3.737832  0  0  -0.11899  0  3.979634  0  0  -0.120156  0  4.001597  0  -0.150739  0  -0.088633  -0.118164  0  3.965775  0
C  C97  1  0.86564500  0.32296693  0.40751464  1  0  -0.101673  0  3.737876  0  0  -0.120018  0  3.979564  0  0  -0.121239  0  4.001694  0  -0.056497  0  -0.08832  -0.119076  0  3.965464  0
C  C98  1  0.28052745  0.28185299  0.28476610  1  0  -0.68021  0  3.621562  0  0  -0.713135  0  3.832059  0  0  -0.723276  0  3.839174  0  -0.819663  0  -0.29301  -0.705589  0  3.827185  0
C  C99  1  0.71947026  0.71814572  0.71524016  1  0  -0.680101  0  3.621491  0  0  -0.713038  0  3.832015  0  0  -0.723177  0  3.839134  0  -0.819341  0  -0.292965  -0.705492  0  3.827143  0
C  C100  1  0.70556618  0.06692896  0.70371351  1  0  -0.076223  0  3.779285  0  0  -0.089009  0  4.027585  0  0  -0.092817  0  4.049326  0  -0.059476  0  -0.095087  -0.086808  0  4.014143  0
C  C101  1  0.70746885  0.70753209  0.06585683  1  0  -0.076614  0  3.781124  0  0  -0.08916  0  4.029329  0  0  -0.092933  0  4.050914  0  0.019377  0  -0.094642  -0.086933  0  4.01576  0
C  C102  1  0.06889628  0.70507661  0.70440132  1  0  -0.074418  0  3.778192  0  0  -0.086746  0  4.026453  0  0  -0.090577  0  4.048181  0  -0.008641  0  -0.094189  -0.08443  0  4.0127  0
C  C103  1  0.29443458  0.93307740  0.29628145  1  0  -0.076306  0  3.779294  0  0  -0.089095  0  4.027595  0  0  -0.092905  0  4.049347  0  -0.059105  0  -0.095131  -0.086896  0  4.014154  0
C  C104  1  0.29252764  0.29246757  0.93414006  1  0  -0.076657  0  3.780944  0  0  -0.089209  0  4.029162  0  0  -0.092981  0  4.050747  0  0.019677  0  -0.094601  -0.086983  0  4.015596  0
C  C105  1  0.93110812  0.29491827  0.29559806  1  0  -0.074596  0  3.778123  0  0  -0.086926  0  4.026379  0  0  -0.090755  0  4.048105  0  -0.008498  0  -0.094214  -0.084616  0  4.012631  0
I  I106  1  0.07113208  0.86384213  0.24515643  1  0  -0.384495  0  1.849676  0  0  -0.331263  0  2.333911  0  0  -0.347874  0  2.287437  0  -0.41158  0  -0.164613  -0.316653  0  2.365216  0
I  I107  1  0.24492317  0.06717470  0.86234080  1  0  -0.389303  0  1.828579  0  0  -0.335047  0  2.310783  0  0  -0.351976  0  2.264547  0  -0.420169  0  -0.168247  -0.320176  0  2.342038  0
I  I108  1  0.86451284  0.24476171  0.06897693  1  0  -0.387976  0  1.824534  0  0  -0.334289  0  2.304923  0  0  -0.351103  0  2.258943  0  -0.418135  0  -0.168099  -0.319533  0  2.335838  0
I  I109  1  0.92887324  0.13615562  0.75484437  1  0  -0.384493  0  1.849687  0  0  -0.331256  0  2.333894  0  0  -0.347859  0  2.287421  0  -0.411483  0  -0.164607  -0.316643  0  2.365203  0
I  I110  1  0.75507667  0.93282018  0.13766308  1  0  -0.389307  0  1.828518  0  0  -0.335056  0  2.31072  0  0  -0.351984  0  2.264486  0  -0.420208  0  -0.168241  -0.320183  0  2.341965  0
I  I111  1  0.13549339  0.75525038  0.93101044  1  0  -0.388039  0  1.824539  0  0  -0.334329  0  2.304888  0  0  -0.351142  0  2.258908  0  -0.418107  0  -0.168116  -0.319586  0  2.335841  0
N  N112  1  0.69203272  0.07321299  0.37495708  1  0  -0.310457  0  3.300078  0  0  -0.239041  0  3.583773  0  0  -0.254248  0  3.593662  0  -1.202937  0  -0.353274  -0.230044  0  3.577818  0
N  N113  1  0.37402787  0.69065451  0.07348308  1  0  -0.311633  0  3.295565  0  0  -0.239866  0  3.577817  0  0  -0.255132  0  3.587875  0  -1.20635  0  -0.352509  -0.230797  0  3.571759  0
N  N114  1  0.07163651  0.37311679  0.69242428  1  0  -0.312496  0  3.292294  0  0  -0.240796  0  3.574397  0  0  -0.256373  0  3.584817  0  -1.195004  0  -0.351563  -0.231523  0  3.568093  0
N  N115  1  0.30797411  0.92678858  0.62503569  1  0  -0.310352  0  3.299973  0  0  -0.238946  0  3.583632  0  0  -0.254149  0  3.593503  0  -1.202847  0  -0.353198  -0.229949  0  3.577678  0
N  N116  1  0.62597289  0.30934324  0.92651587  1  0  -0.31184  0  3.295494  0  0  -0.240089  0  3.577759  0  0  -0.255342  0  3.58781  0  -1.206339  0  -0.352595  -0.231006  0  3.571689  0
N  N117  1  0.92835756  0.62688478  0.30757996  1  0  -0.312565  0  3.292279  0  0  -0.240841  0  3.574347  0  0  -0.256412  0  3.584754  0  -1.194931  0  -0.351639  -0.23157  0  3.568039  0
