# generated using pymatgen
data_CsUH15C10O11
_symmetry_space_group_name_H-M   'P 1'
_cell_length_a   8.28266833
_cell_length_b   10.38042361
_cell_length_c   10.68145461
_cell_angle_alpha   68.18452306
_cell_angle_beta   71.02527339
_cell_angle_gamma   79.99164081
_symmetry_Int_Tables_number   1
_chemical_formula_structural   CsUH15C10O11
_chemical_formula_sum   'Cs2 U2 H30 C20 O22'
_cell_volume   804.80091763
_cell_formula_units_Z   2
loop_
 _symmetry_equiv_pos_site_id
 _symmetry_equiv_pos_as_xyz
  1  'x, y, z'
loop_
 _atom_site_type_symbol
 _atom_site_label
 _atom_site_symmetry_multiplicity
 _atom_site_fract_x
 _atom_site_fract_y
 _atom_site_fract_z
 _atom_site_occupancy
 _atom_site_hle17_bader_spin_density
 _atom_site_hle17_ddec_charge
 _atom_site_hle17_ddec_spin_density
 _atom_site_hle17_ddec_sum_bond_order
 _atom_site_hle17_magmom
 _atom_site_hse06_10hf_bader_spin_density
 _atom_site_hse06_10hf_ddec_charge
 _atom_site_hse06_10hf_ddec_spin_density
 _atom_site_hse06_10hf_ddec_sum_bond_order
 _atom_site_hse06_10hf_magmom
 _atom_site_hse06_bader_spin_density
 _atom_site_hse06_ddec_charge
 _atom_site_hse06_ddec_spin_density
 _atom_site_hse06_ddec_sum_bond_order
 _atom_site_hse06_magmom
 _atom_site_pbe_bader_spin_density
 _atom_site_pbe_cm5_charge
 _atom_site_pbe_ddec_charge
 _atom_site_pbe_ddec_spin_density
 _atom_site_pbe_ddec_sum_bond_order
 _atom_site_pbe_magmom
Cs  Cs0  1  0.34617157  0.53371266  0.20690532  1  0  0.977832  0  0.555824  0  0  0.937108  0  0.789472  0  0  0.953963  0  0.764176  0  0  0.897312  0.924878  0  0.807026  0
Cs  Cs1  1  0.65382729  0.46628843  0.79309409  1  0  0.977842  0  0.555827  0  0  0.937119  0  0.789472  0  0  0.953971  0  0.764181  0  0  0.897315  0.924891  0  0.807029  0
U  U2  1  0.82078704  0.34512607  0.38972711  1  0  2.388255  0  4.15548  0  0  2.440769  0  4.801914  0  0  2.549185  0  4.770997  0  0  2.163275  2.366116  0  4.823498  0
U  U3  1  0.17921324  0.65487294  0.61027269  1  0  2.3883  0  4.155387  0  0  2.440782  0  4.801886  0  0  2.549142  0  4.771051  0  0  2.163278  2.366085  0  4.823539  0
H  H4  1  0.89742444  0.14643177  0.71522940  1  0  0.410933  0  0.879  0  0  0.383204  0  0.95387  0  0  0.394737  0  0.938991  0  0  0.316651  0.375067  0  0.962652  0
H  H5  1  0.10257577  0.85356829  0.28477005  1  0  0.410928  0  0.879004  0  0  0.383204  0  0.953863  0  0  0.394737  0  0.938987  0  0  0.316646  0.375067  0  0.962645  0
H  H6  1  0.36123891  0.80636763  0.91698993  1  0  0.409188  0  0.895632  0  0  0.379811  0  0.958435  0  0  0.390192  0  0.943191  0  0  0.283449  0.37252  0  0.969127  0
H  H7  1  0.63875989  0.19363451  0.08300819  1  0  0.409185  0  0.895641  0  0  0.379822  0  0.958427  0  0  0.390202  0  0.943186  0  0  0.283449  0.37253  0  0.96912  0
H  H8  1  0.32118920  0.73436693  0.82751796  1  0  0.41685  0  0.88451  0  0  0.393537  0  0.937728  0  0  0.40312  0  0.923281  0  0  0.292984  0.386815  0  0.947883  0
H  H9  1  0.67880974  0.26563313  0.17248180  1  0  0.416877  0  0.884473  0  0  0.393569  0  0.937682  0  0  0.403151  0  0.923238  0  0  0.292997  0.386849  0  0.947836  0
H  H10  1  0.21854358  0.28803792  0.63273639  1  0  0.119681  0  0.927511  0  0  0.135215  0  0.980287  0  0  0.137243  0  0.979368  0  0  0.113293  0.13372  0  0.981158  0
H  H11  1  0.78145925  0.71196108  0.36726373  1  0  0.119699  0  0.92752  0  0  0.13526  0  0.980271  0  0  0.137288  0  0.979349  0  0  0.113314  0.133766  0  0.981143  0
H  H12  1  0.31382663  0.17901762  0.76846665  1  0  0.11721  0  0.957534  0  0  0.128244  0  1.022764  0  0  0.130531  0  1.021794  0  0  0.10722  0.126783  0  1.023356  0
H  H13  1  0.68617235  0.82098139  0.23153628  1  0  0.117227  0  0.95756  0  0  0.128261  0  1.0228  0  0  0.130547  0  1.021829  0  0  0.107233  0.126799  0  1.023393  0
H  H14  1  0.39658174  0.99640471  0.65806687  1  0  0.074398  0  0.940862  0  0  0.09357  0  1.00085  0  0  0.094465  0  1.001278  0  0  0.099005  0.092848  0  1.000721  0
H  H15  1  0.60341740  0.00359222  0.34193489  1  0  0.074398  0  0.940809  0  0  0.0936  0  1.000777  0  0  0.094483  0  1.001215  0  0  0.099022  0.092874  0  1.000647  0
H  H16  1  0.17518550  0.02767473  0.71667924  1  0  0.077699  0  0.931697  0  0  0.095574  0  0.991643  0  0  0.097033  0  0.991341  0  0  0.096859  0.094451  0  0.991997  0
H  H17  1  0.82481356  0.97232324  0.28332311  1  0  0.077662  0  0.931675  0  0  0.095557  0  0.991627  0  0  0.097013  0  0.991323  0  0  0.09685  0.094437  0  0.991978  0
H  H18  1  0.38954513  0.14954263  0.40651939  1  0  0.10953  0  0.935058  0  0  0.124385  0  0.993074  0  0  0.127013  0  0.991499  0  0  0.108889  0.122485  0  0.994378  0
H  H19  1  0.61045378  0.85045742  0.59348320  1  0  0.109484  0  0.935107  0  0  0.124359  0  0.993106  0  0  0.126986  0  0.991531  0  0  0.108874  0.122459  0  0.994412  0
H  H20  1  0.27449162  0.99732906  0.47941771  1  0  0.126114  0  0.937992  0  0  0.135364  0  1.006067  0  0  0.138027  0  1.005119  0  0  0.116017  0.133527  0  1.006668  0
H  H21  1  0.72550722  0.00267202  0.52058358  1  0  0.126082  0  0.938002  0  0  0.135349  0  1.006071  0  0  0.13801  0  1.005123  0  0  0.116025  0.133512  0  1.006674  0
H  H22  1  0.99924174  0.70537366  0.93492630  1  0  0.121627  0  0.945129  0  0  0.135191  0  1.004063  0  0  0.137828  0  1.002585  0  0  0.114006  0.133327  0  1.005284  0
H  H23  1  0.00075734  0.29462432  0.06507323  1  0  0.121624  0  0.945137  0  0  0.135194  0  1.004063  0  0  0.137834  0  1.002586  0  0  0.11399  0.133327  0  1.005289  0
H  H24  1  0.93415464  0.79098974  0.05887155  1  0  0.11545  0  0.916612  0  0  0.13098  0  0.973057  0  0  0.132903  0  0.972725  0  0  0.110571  0.129609  0  0.973403  0
H  H25  1  0.06584295  0.20901136  0.94112723  1  0  0.11548  0  0.916596  0  0  0.130977  0  0.97309  0  0  0.132898  0  0.972764  0  0  0.110572  0.129605  0  0.973434  0
H  H26  1  0.62359246  0.79562872  0.05796215  1  0  0.061542  0  0.951125  0  0  0.075966  0  1.020361  0  0  0.077576  0  1.019721  0  0  0.095164  0.074752  0  1.020851  0
H  H27  1  0.37640642  0.20437239  0.94203444  1  0  0.061558  0  0.951066  0  0  0.075982  0  1.020306  0  0  0.07759  0  1.019663  0  0  0.095163  0.074768  0  1.020797  0
H  H28  1  0.69800252  0.71625751  0.92718629  1  0  0.075708  0  0.938846  0  0  0.093234  0  1.001259  0  0  0.094613  0  1.001046  0  0  0.102885  0.092255  0  1.001319  0
H  H29  1  0.30199636  0.28374360  0.07281030  1  0  0.075653  0  0.938839  0  0  0.093177  0  1.001261  0  0  0.094552  0  1.00105  0  0  0.102847  0.092198  0  1.00132  0
H  H30  1  0.88172026  0.92302970  0.77040611  1  0  0.115265  0  0.937203  0  0  0.128171  0  0.998458  0  0  0.130671  0  0.997331  0  0  0.108422  0.126427  0  0.999133  0
H  H31  1  0.11828110  0.07697243  0.22959138  1  0  0.115261  0  0.937198  0  0  0.128169  0  0.998468  0  0  0.130668  0  0.997341  0  0  0.108409  0.126424  0  0.999141  0
H  H32  1  0.65918733  0.95856335  0.80435073  1  0  0.137827  0  0.906505  0  0  0.154688  0  0.960244  0  0  0.157331  0  0.95914  0  0  0.118216  0.15256  0  0.961408  0
H  H33  1  0.34081147  0.04143879  0.19564739  1  0  0.137816  0  0.906486  0  0  0.154685  0  0.960236  0  0  0.157327  0  0.959134  0  0  0.11821  0.152555  0  0.961398  0
C  C34  1  0.48982724  0.26158584  0.56908202  1  0  0.701604  0  3.796067  0  0  0.66901  0  4.098398  0  0  0.705024  0  4.090609  0  0  0.213921  0.64461  0  4.102509  0
C  C35  1  0.51017429  0.73841315  0.43092029  1  0  0.701661  0  3.796043  0  0  0.669109  0  4.098327  0  0  0.705121  0  4.090534  0  0  0.213979  0.644709  0  4.102435  0
C  C36  1  0.31821733  0.20631475  0.65804781  1  0  -0.277867  0  3.643547  0  0  -0.310358  0  3.880809  0  0  -0.315841  0  3.88727  0  0  -0.160351  -0.306764  0  3.876278  0
C  C37  1  0.68178422  0.79368424  0.34195355  1  0  -0.277975  0  3.643627  0  0  -0.310514  0  3.880952  0  0  -0.315987  0  3.887384  0  0  -0.160404  -0.306919  0  3.876426  0
C  C38  1  0.29147845  0.07372916  0.63707760  1  0  -0.045141  0  3.650182  0  0  -0.089326  0  3.906312  0  0  -0.088744  0  3.918657  0  0  -0.156138  -0.089455  0  3.897763  0
C  C39  1  0.70852061  0.92626881  0.36292475  1  0  -0.045085  0  3.650064  0  0  -0.089321  0  3.906279  0  0  -0.088723  0  3.918606  0  0  -0.156167  -0.089447  0  3.897726  0
C  C40  1  0.27890006  0.09805710  0.49029807  1  0  -0.278509  0  3.654707  0  0  -0.309007  0  3.893169  0  0  -0.315262  0  3.900362  0  0  -0.156656  -0.304768  0  3.888047  0
C  C41  1  0.72110147  0.90194189  0.50970424  1  0  -0.278434  0  3.654553  0  0  -0.308944  0  3.89303  0  0  -0.315205  0  3.900228  0  0  -0.156624  -0.304704  0  3.887912  0
C  C42  1  0.12087877  0.18244074  0.46021907  1  0  0.720088  0  3.77571  0  0  0.678789  0  4.080438  0  0  0.714528  0  4.072409  0  0  0.222778  0.65461  0  4.084508  0
C  C43  1  0.87911891  0.81755826  0.53978700  1  0  0.72019  0  3.775629  0  0  0.678879  0  4.080368  0  0  0.714618  0  4.072328  0  0  0.222797  0.654698  0  4.08444  0
C  C44  1  0.86474034  0.58499801  0.14005395  1  0  0.708522  0  3.798773  0  0  0.672132  0  4.103286  0  0  0.708279  0  4.09541  0  0  0.214965  0.647646  0  4.10735  0
C  C45  1  0.13526116  0.41500204  0.85994424  1  0  0.708568  0  3.798822  0  0  0.672195  0  4.103292  0  0  0.708344  0  4.095413  0  0  0.21499  0.647708  0  4.10735  0
C  C46  1  0.89055384  0.72129521  0.02099007  1  0  -0.276389  0  3.660003  0  0  -0.30537  0  3.896817  0  0  -0.311444  0  3.904201  0  0  -0.156441  -0.301301  0  3.891602  0
C  C47  1  0.10944389  0.27870381  0.97900942  1  0  -0.276392  0  3.660006  0  0  -0.305393  0  3.896878  0  0  -0.311444  0  3.904206  0  0  -0.156437  -0.301335  0  3.891689  0
C  C48  1  0.73316726  0.78509164  0.96989719  1  0  -0.053234  0  3.700947  0  0  -0.101572  0  3.964039  0  0  -0.100995  0  3.976965  0  0  -0.159484  -0.10179  0  3.954978  0
C  C49  1  0.26683162  0.21490947  0.03010034  1  0  -0.05319  0  3.700859  0  0  -0.101498  0  3.963923  0  0  -0.100914  0  3.97685  0  0  -0.15941  -0.101716  0  3.954855  0
C  C50  1  0.76361790  0.92681356  0.85462801  1  0  -0.290426  0  3.664194  0  0  -0.326977  0  3.913274  0  0  -0.333301  0  3.921306  0  0  -0.159347  -0.322584  0  3.907643  0
C  C51  1  0.23638096  0.07318753  0.14537140  1  0  -0.290395  0  3.664015  0  0  -0.326993  0  3.913163  0  0  -0.33332  0  3.921197  0  0  -0.159374  -0.322593  0  3.907521  0
C  C52  1  0.76610909  0.04336088  0.90615065  1  0  0.717514  0  3.720164  0  0  0.670149  0  4.02538  0  0  0.702528  0  4.016535  0  0  0.242985  0.647989  0  4.031046  0
C  C53  1  0.23389114  0.95663918  0.09384598  1  0  0.717506  0  3.720159  0  0  0.670128  0  4.025406  0  0  0.702507  0  4.016562  0  0  0.243  0.647969  0  4.03107  0
O  O54  1  0.81010607  0.23156255  0.29711292  1  0  -0.743855  0  1.644109  0  0  -0.739224  0  1.937783  0  0  -0.762345  0  1.925973  0  0  -0.751207  -0.724767  0  1.946411  0
O  O55  1  0.18989542  0.76843750  0.70288622  1  0  -0.743851  0  1.644049  0  0  -0.739216  0  1.937723  0  0  -0.762322  0  1.92592  0  0  -0.751205  -0.724755  0  1.946368  0
O  O56  1  0.83472737  0.45646362  0.48178608  1  0  -0.729542  0  1.614952  0  0  -0.739919  0  1.912451  0  0  -0.759829  0  1.899997  0  0  -0.797165  -0.727521  0  1.921196  0
O  O57  1  0.16527029  0.54353644  0.51821400  1  0  -0.729581  0  1.614991  0  0  -0.739939  0  1.912481  0  0  -0.75984  0  1.900042  0  0  -0.797182  -0.72753  0  1.921234  0
O  O58  1  0.50734914  0.36342851  0.45285328  1  0  -0.655712  0  1.987495  0  0  -0.640486  0  2.250941  0  0  -0.673112  0  2.247782  0  0  -0.397992  -0.617579  0  2.252191  0
O  O59  1  0.49265376  0.63656945  0.54714719  1  0  -0.655723  0  1.987432  0  0  -0.640522  0  2.250907  0  0  -0.673142  0  2.247751  0  0  -0.398011  -0.617607  0  2.252157  0
O  O60  1  0.62499801  0.20302861  0.60619518  1  0  -0.6448  0  1.950288  0  0  -0.629143  0  2.208858  0  0  -0.661986  0  2.205867  0  0  -0.354909  -0.606331  0  2.210144  0
O  O61  1  0.37500369  0.79696832  0.39380501  1  0  -0.644818  0  1.950328  0  0  -0.629178  0  2.208891  0  0  -0.662015  0  2.2059  0  0  -0.35493  -0.60636  0  2.210177  0
O  O62  1  0.12948771  0.27973732  0.34269127  1  0  -0.654964  0  2.006928  0  0  -0.630384  0  2.270546  0  0  -0.662207  0  2.267166  0  0  -0.409597  -0.607882  0  2.271669  0
O  O63  1  0.87051245  0.72026270  0.65731475  1  0  -0.654975  0  2.00705  0  0  -0.630388  0  2.270677  0  0  -0.662204  0  2.267298  0  0  -0.409571  -0.60788  0  2.271803  0
O  O64  1  0.97186128  0.15678172  0.54949198  1  0  -0.666604  0  2.017782  0  0  -0.627637  0  2.266539  0  0  -0.659341  0  2.261239  0  0  -0.337385  -0.605183  0  2.26877  0
O  O65  1  0.02813658  0.84321521  0.45051104  1  0  -0.666696  0  2.01768  0  0  -0.627733  0  2.266468  0  0  -0.659431  0  2.261166  0  0  -0.337437  -0.605274  0  2.268702  0
O  O66  1  0.71474885  0.54436010  0.21486684  1  0  -0.670752  0  1.983095  0  0  -0.645597  0  2.241532  0  0  -0.678012  0  2.238518  0  0  -0.407552  -0.622522  0  2.242278  0
O  O67  1  0.28525135  0.45563994  0.78513449  1  0  -0.670761  0  1.983155  0  0  -0.645602  0  2.24158  0  0  -0.678016  0  2.238568  0  0  -0.407536  -0.622527  0  2.242338  0
O  O68  1  0.99417567  0.50799901  0.17239047  1  0  -0.666717  0  1.97066  0  0  -0.648269  0  2.229114  0  0  -0.680917  0  2.225293  0  0  -0.409855  -0.625385  0  2.230862  0
O  O69  1  0.00582566  0.49200311  0.82760890  1  0  -0.666786  0  1.970707  0  0  -0.648321  0  2.229133  0  0  -0.680966  0  2.225308  0  0  -0.409891  -0.625432  0  2.230884  0
O  O70  1  0.69354432  0.04174737  0.02742642  1  0  -0.5577  0  1.939424  0  0  -0.499992  0  2.144905  0  0  -0.523415  0  2.138185  0  0  -0.273279  -0.484082  0  2.149451  0
O  O71  1  0.30645334  0.95825269  0.97257365  1  0  -0.557739  0  1.939555  0  0  -0.499982  0  2.145007  0  0  -0.523413  0  2.138294  0  0  -0.27328  -0.484073  0  2.149555  0
O  O72  1  0.84841710  0.15582919  0.81134693  1  0  -0.590671  0  2.083852  0  0  -0.547688  0  2.309569  0  0  -0.569296  0  2.292165  0  0  -0.36639  -0.532615  0  2.319774  0
O  O73  1  0.15158304  0.84417190  0.18865216  1  0  -0.590646  0  2.08381  0  0  -0.547663  0  2.30953  0  0  -0.569269  0  2.292126  0  0  -0.366377  -0.532592  0  2.319737  0
O  O74  1  0.39397363  0.72319076  0.88780854  1  0  -0.899942  0  1.758033  0  0  -0.864139  0  1.914764  0  0  -0.88074  0  1.885278  0  0  -0.685118  -0.85246  0  1.935117  0
O  O75  1  0.60602651  0.27681033  0.11219055  1  0  -0.899969  0  1.758016  0  0  -0.864177  0  1.914718  0  0  -0.880779  0  1.885235  0  0  -0.685127  -0.8525  0  1.93507  0
