# generated using pymatgen
data_Al2H8C17S2(NO7)2
_symmetry_space_group_name_H-M   'P 1'
_cell_length_a   6.97872627
_cell_length_b   11.21772720
_cell_length_c   12.66250585
_cell_angle_alpha   77.83355303
_cell_angle_beta   75.01829056
_cell_angle_gamma   70.84253843
_symmetry_Int_Tables_number   1
_chemical_formula_structural   Al2H8C17S2(NO7)2
_chemical_formula_sum   'Al2 H8 C17 S2 N2 O14'
_cell_volume   895.90959954
_cell_formula_units_Z   1
loop_
 _symmetry_equiv_pos_site_id
 _symmetry_equiv_pos_as_xyz
  1  'x, y, z'
loop_
 _atom_site_type_symbol
 _atom_site_label
 _atom_site_symmetry_multiplicity
 _atom_site_fract_x
 _atom_site_fract_y
 _atom_site_fract_z
 _atom_site_occupancy
 _atom_site_pbe_bader_charge
 _atom_site_pbe_bader_spin_density
 _atom_site_pbe_cm5_charge
 _atom_site_pbe_ddec_charge
 _atom_site_pbe_ddec_spin_density
 _atom_site_pbe_ddec_sum_bond_order
 _atom_site_pbe_magmom
Al  Al0  1  0.50090578  0.50056979  0.49722405  1  2.508943  0  0.413693  1.636295  0  2.535107  0
Al  Al1  1  0.00054679  0.50071837  0.49941775  1  2.510462  0  0.405056  1.652462  0  2.530765  0
H  H2  1  0.22168316  0.64336518  0.40312243  1  0.630014  0  0.331227  0.412997  0  0.890454  0
H  H3  1  0.78242904  0.35454752  0.58802343  1  0.624972  0  0.329569  0.408326  0  0.8994  0
H  H4  1  0.76025321  0.11730177  0.47082724  1  0.164574  0  0.118972  0.125852  0  1.079954  0
H  H5  1  0.24048001  0.88364776  0.52663325  1  0.181434  0  0.119107  0.126424  0  1.079201  0
H  H6  1  0.61478098  0.51925062  0.13959931  1  0.125275  0  0.1146  0.136931  0  0.995387  0
H  H7  1  0.51890683  0.48827875  0.77253347  1  0.128205  0  0.102846  0.161938  0  1.006288  0
H  H8  1  0.46236334  0.56943266  0.88836451  1  0.04053  0  0.087904  0.125779  0  1.017292  0
H  H9  1  0.53773340  0.40082540  0.90629438  1  0.063702  0  0.091002  0.129896  0  0.999684  0
C  C10  1  0.84306660  0.50653134  0.30373535  1  1.583901  0  0.25952  0.654017  0  4.12899  0
C  C11  1  0.62661038  0.72455358  0.50314081  1  1.64008  0  0.278896  0.656298  0  4.072208  0
C  C12  1  0.16056759  0.49563200  0.69324095  1  1.581924  0  0.261919  0.664843  0  4.115307  0
C  C13  1  0.37479127  0.27650285  0.49399171  1  1.629509  0  0.278135  0.654894  0  4.073283  0
C  C14  1  0.56213603  0.86599276  0.50334947  1  0.067661  0  0.009499  -0.050921  0  3.912436  0
C  C15  1  0.43862527  0.13500092  0.49421429  1  0.021358  0  0.008639  -0.051487  0  3.909239  0
C  C16  1  0.70504936  0.93395763  0.48921349  1  0.176231  0  0.094015  0.066329  0  3.933425  0
C  C17  1  0.29568993  0.06697820  0.50862621  1  0.115027  0  0.094576  0.066527  0  3.931962  0
C  C18  1  0.64722417  0.06532537  0.48379939  1  0.081791  0  -0.066213  -0.123635  0  3.915661  0
C  C19  1  0.35347788  0.93562028  0.51387092  1  0.115056  0  -0.065757  -0.123495  0  3.916933  0
C  C20  1  0.22706660  0.49258358  0.88586491  1  0.063874  0  -0.003617  0.156992  0  3.992844  0
C  C21  1  0.77923597  0.51107874  0.11222526  1  0.056171  0  -0.086545  -0.127687  0  3.957532  0
C  C22  1  0.10477413  0.50004034  0.81248074  1  -0.189416  0  -0.025156  -0.202591  0  3.941325  0
C  C23  1  0.90326370  0.50354090  0.18434868  1  -0.178736  0  -0.021749  -0.125022  0  3.976876  0
C  C24  1  0.89593294  0.50713395  0.00300272  1  -0.211596  0  -0.02301  -0.013705  0  4.099239  0
C  C25  1  0.10600212  0.49643848  0.99436458  1  -0.151746  0  -0.023249  -0.080393  0  4.049259  0
C  C26  1  0.44883039  0.48669782  0.86039428  1  -0.08372  0  -0.245562  -0.417571  0  3.999065  0
S  S27  1  0.84822005  0.51307650  0.87508330  1  0.278565  0  0.098756  0.132389  0  2.989486  0
S  S28  1  0.16042714  0.49164050  0.12051812  1  0.248459  0  0.085925  0.129275  0  2.781836  0
N  N29  1  0.92634343  0.86688904  0.48572065  1  0.400826  0  0.062096  0.516926  0  4.222844  0
N  N30  1  0.07452382  0.13438744  0.51204421  1  0.400529  0  0.063006  0.518828  0  4.221171  0
O  O31  1  0.65263115  0.51842601  0.34887731  1  -1.263038  0  -0.238379  -0.590981  0  2.314724  0
O  O32  1  0.81990593  0.67019270  0.49383730  1  -1.253231  0  -0.222484  -0.586568  0  2.41176  0
O  O33  1  0.01164969  0.50336599  0.64783171  1  -1.253135  0  -0.241523  -0.603226  0  2.346017  0
O  O34  1  0.51655492  0.32737654  0.48551459  1  -1.235789  0  -0.218527  -0.559135  0  2.332564  0
O  O35  1  0.35009970  0.48179787  0.64510316  1  -1.262863  0  -0.235351  -0.589346  0  2.350295  0
O  O36  1  0.18119868  0.33103326  0.50508559  1  -1.252515  0  -0.222287  -0.587711  0  2.40907  0
O  O37  1  0.98907312  0.49901750  0.35097150  1  -1.259571  0  -0.241199  -0.602211  0  2.359027  0
O  O38  1  0.48599043  0.67345314  0.50968977  1  -1.239418  0  -0.219144  -0.560316  0  2.328291  0
O  O39  1  0.24292799  0.56048031  0.44860284  1  -1.435536  0  -0.45394  -0.983468  0  2.110414  0
O  O40  1  0.75785763  0.44068421  0.54830233  1  -1.432135  0  -0.455151  -0.979767  0  2.104939  0
O  O41  1  0.97720097  0.83105540  0.57644614  1  -0.426588  0  -0.092032  -0.279273  0  1.935019  0
O  O42  1  0.04496638  0.85746123  0.39448047  1  -0.435221  0  -0.107838  -0.307506  0  1.895724  0
O  O43  1  0.95561370  0.14423275  0.60323758  1  -0.444326  0  -0.10857  -0.308487  0  1.895978  0
O  O44  1  0.02385938  0.17066762  0.42132575  1  -0.430494  0  -0.091673  -0.279715  0  1.933973  0
