# generated using pymatgen
data_Cu3Sb2H14C15S9N7
_symmetry_space_group_name_H-M   'P 1'
_cell_length_a   6.86903580
_cell_length_b   13.61385767
_cell_length_c   15.61838953
_cell_angle_alpha   108.65053435
_cell_angle_beta   90.43355100
_cell_angle_gamma   99.75758200
_symmetry_Int_Tables_number   1
_chemical_formula_structural   Cu3Sb2H14C15S9N7
_chemical_formula_sum   'Cu6 Sb4 H28 C30 S18 N14'
_cell_volume   1360.83558940
_cell_formula_units_Z   2
loop_
 _symmetry_equiv_pos_site_id
 _symmetry_equiv_pos_as_xyz
  1  'x, y, z'
loop_
 _atom_site_type_symbol
 _atom_site_label
 _atom_site_symmetry_multiplicity
 _atom_site_fract_x
 _atom_site_fract_y
 _atom_site_fract_z
 _atom_site_occupancy
 _atom_site_hle17_bader_spin_density
 _atom_site_hle17_ddec_charge
 _atom_site_hle17_ddec_spin_density
 _atom_site_hle17_ddec_sum_bond_order
 _atom_site_hle17_magmom
 _atom_site_hse06_10hf_bader_spin_density
 _atom_site_hse06_10hf_ddec_charge
 _atom_site_hse06_10hf_ddec_spin_density
 _atom_site_hse06_10hf_ddec_sum_bond_order
 _atom_site_hse06_10hf_magmom
 _atom_site_hse06_bader_spin_density
 _atom_site_hse06_ddec_charge
 _atom_site_hse06_ddec_spin_density
 _atom_site_hse06_ddec_sum_bond_order
 _atom_site_hse06_magmom
 _atom_site_pbe_bader_spin_density
 _atom_site_pbe_cm5_charge
 _atom_site_pbe_ddec_charge
 _atom_site_pbe_ddec_spin_density
 _atom_site_pbe_ddec_sum_bond_order
 _atom_site_pbe_magmom
Cu  Cu0  1  0.20955696  0.78958209  0.12403019  1  0  0.389221  0  2.258021  0  0  0.312153  0  2.747231  0  0  0.301998  0  2.710986  0  0  0.473324  0.322967  0  2.76837  0
Cu  Cu1  1  0.79043536  0.21041877  0.87597178  1  0  0.389213  0  2.258086  0  0  0.312133  0  2.747298  0  0  0.301962  0  2.711039  0  0  0.47334  0.322958  0  2.768435  0
Cu  Cu2  1  0.06876743  0.25346965  0.23693100  1  0  0.355437  0  2.286936  0  0  0.284255  0  2.782598  0  0  0.278698  0  2.744219  0  0  0.40989  0.290616  0  2.806099  0
Cu  Cu3  1  0.93123442  0.74652885  0.76306721  1  0  0.355458  0  2.286897  0  0  0.284264  0  2.782561  0  0  0.278717  0  2.744187  0  0  0.409893  0.290633  0  2.806064  0
Cu  Cu4  1  0.47074514  0.28526151  0.57473207  1  0  0.433559  0  2.146741  0  0  0.347935  0  2.643916  0  0  0.341375  0  2.60521  0  0  0.471105  0.355793  0  2.667291  0
Cu  Cu5  1  0.52925024  0.71473934  0.42526608  1  0  0.433564  0  2.14666  0  0  0.34794  0  2.643831  0  0  0.341381  0  2.605127  0  0  0.471116  0.355795  0  2.667207  0
Sb  Sb6  1  0.44790214  0.04216099  0.20672625  1  0  0.648819  0  2.628177  0  0  0.550102  0  3.10934  0  0  0.567472  0  3.100007  0  0  0.402506  0.531601  0  3.118396  0
Sb  Sb7  1  0.55209796  0.95783672  0.79327238  1  0  0.64878  0  2.628164  0  0  0.550068  0  3.109324  0  0  0.567427  0  3.100006  0  0  0.402485  0.53157  0  3.118378  0
Sb  Sb8  1  0.01241626  0.51232874  0.31799497  1  0  0.672512  0  2.580415  0  0  0.575406  0  3.059766  0  0  0.591514  0  3.051783  0  0  0.407313  0.557693  0  3.068267  0
Sb  Sb9  1  0.98757930  0.48766424  0.68200359  1  0  0.672525  0  2.58039  0  0  0.575378  0  3.059814  0  0  0.591489  0  3.051829  0  0  0.4073  0.557666  0  3.06832  0
H  H10  1  0.82278119  0.91591069  0.19209117  1  0  0.090047  0  0.97866  0  0  0.105237  0  1.046778  0  0  0.105826  0  1.048061  0  0  0.084109  0.104602  0  1.046509  0
H  H11  1  0.17722161  0.08409964  0.80791287  1  0  0.090284  0  0.978483  0  0  0.105461  0  1.046548  0  0  0.106046  0  1.047826  0  0  0.084226  0.104822  0  1.046283  0
H  H12  1  0.92867005  0.04847231  0.25923101  1  0  0.092457  0  0.955955  0  0  0.104176  0  1.026518  0  0  0.105818  0  1.02566  0  0  0.08728  0.103018  0  1.027354  0
H  H13  1  0.07134218  0.95153568  0.74077184  1  0  0.092527  0  0.955936  0  0  0.104234  0  1.026486  0  0  0.105872  0  1.025627  0  0  0.087294  0.103078  0  1.027321  0
H  H14  1  0.86581976  0.02955616  0.09487935  1  0  0.091081  0  0.947096  0  0  0.109845  0  1.009415  0  0  0.109981  0  1.010993  0  0  0.091195  0.109524  0  1.008986  0
H  H15  1  0.13418580  0.97044945  0.90512406  1  0  0.091052  0  0.947094  0  0  0.10985  0  1.009389  0  0  0.109986  0  1.010966  0  0  0.091191  0.109526  0  1.008957  0
H  H16  1  0.03037072  0.93747029  0.06409943  1  0  0.097628  0  0.958126  0  0  0.113576  0  1.019474  0  0  0.114636  0  1.01962  0  0  0.08966  0.112847  0  1.019301  0
H  H17  1  0.96962624  0.06253137  0.93590280  1  0  0.097639  0  0.958097  0  0  0.11356  0  1.019486  0  0  0.114618  0  1.019634  0  0  0.089646  0.112829  0  1.019312  0
H  H18  1  0.78382930  0.91247905  0.36650272  1  0  0.087461  0  0.933573  0  0  0.096783  0  0.996056  0  0  0.099059  0  0.993062  0  0  0.117024  0.095016  0  0.998332  0
H  H19  1  0.21617632  0.08752575  0.63349150  1  0  0.08743  0  0.933365  0  0  0.096771  0  0.995901  0  0  0.09904  0  0.992904  0  0  0.117016  0.095005  0  0.998177  0
H  H20  1  0.84145621  0.98101324  0.53788799  1  0  0.116414  0  0.96128  0  0  0.122677  0  1.028067  0  0  0.125901  0  1.028235  0  0  0.10493  0.12031  0  1.028298  0
H  H21  1  0.15854602  0.01898997  0.46210448  1  0  0.116312  0  0.961244  0  0  0.12264  0  1.027979  0  0  0.125866  0  1.028145  0  0  0.104928  0.120271  0  1.028206  0
H  H22  1  0.70805640  0.14449181  0.62121155  1  0  0.078515  0  0.966343  0  0  0.087486  0  1.034513  0  0  0.089412  0  1.03227  0  0  0.105801  0.085796  0  1.036506  0
H  H23  1  0.29194005  0.85550746  0.37878234  1  0  0.078597  0  0.966298  0  0  0.087532  0  1.03449  0  0  0.089457  0  1.032247  0  0  0.105805  0.08584  0  1.036482  0
H  H24  1  0.55045493  0.38835733  0.24595157  1  0  0.086658  0  0.978602  0  0  0.101902  0  1.048537  0  0  0.102329  0  1.049922  0  0  0.081194  0.101482  0  1.048107  0
H  H25  1  0.44954658  0.61164039  0.75404835  1  0  0.0867  0  0.978669  0  0  0.101938  0  1.04857  0  0  0.102371  0  1.049958  0  0  0.0812  0.101515  0  1.048138  0
H  H26  1  0.53009583  0.52321226  0.26608732  1  0  0.095597  0  0.951309  0  0  0.108077  0  1.019196  0  0  0.109617  0  1.018699  0  0  0.088615  0.106977  0  1.019747  0
H  H27  1  0.46990284  0.47678545  0.73391064  1  0  0.095691  0  0.95135  0  0  0.108152  0  1.019217  0  0  0.109695  0  1.018729  0  0  0.088655  0.10705  0  1.019765  0
H  H28  1  0.58811129  0.48601803  0.41168881  1  0  0.087894  0  0.963324  0  0  0.103164  0  1.034156  0  0  0.103782  0  1.0353  0  0  0.08566  0.102365  0  1.034307  0
H  H29  1  0.41189047  0.51398441  0.58830921  1  0  0.087786  0  0.963333  0  0  0.10309  0  1.034144  0  0  0.103706  0  1.035289  0  0  0.085658  0.102291  0  1.034295  0
H  H30  1  0.36632772  0.39003166  0.38526373  1  0  0.089784  0  0.979764  0  0  0.106069  0  1.043083  0  0  0.106531  0  1.044037  0  0  0.084178  0.105708  0  1.04247  0
H  H31  1  0.63367618  0.60996449  0.61473579  1  0  0.08979  0  0.979824  0  0  0.106026  0  1.043205  0  0  0.106488  0  1.044158  0  0  0.084187  0.105664  0  1.042592  0
H  H32  1  0.63964586  0.39707137  0.06136564  1  0  0.080671  0  0.922123  0  0  0.092414  0  0.981414  0  0  0.094602  0  0.978595  0  0  0.115739  0.090685  0  0.98366  0
H  H33  1  0.36036189  0.60292795  0.93863799  1  0  0.080666  0  0.922115  0  0  0.092429  0  0.981403  0  0  0.094617  0  0.978586  0  0  0.115744  0.090702  0  0.983648  0
H  H34  1  0.66114211  0.48436415  0.94004296  1  0  0.115308  0  0.966013  0  0  0.119711  0  1.036609  0  0  0.122872  0  1.036947  0  0  0.101702  0.117369  0  1.036707  0
H  H35  1  0.33885528  0.51563516  0.05996504  1  0  0.11528  0  0.965913  0  0  0.1197  0  1.036507  0  0  0.12285  0  1.036872  0  0  0.101692  0.117358  0  1.036604  0
H  H36  1  0.89675180  0.65849800  0.97409658  1  0  0.079937  0  0.945365  0  0  0.089104  0  1.011076  0  0  0.090868  0  1.009099  0  0  0.110787  0.087592  0  1.012789  0
H  H37  1  0.10323911  0.34149893  0.02590685  1  0  0.079897  0  0.945431  0  0  0.089127  0  1.01108  0  0  0.090889  0  1.009105  0  0  0.110803  0.087603  0  1.012808  0
C  C38  1  0.56290212  0.73962804  0.23536545  1  0  0.288122  0  3.970013  0  0  0.275154  0  4.269529  0  0  0.292051  0  4.285171  0  0  0.134402  0.263753  0  4.258717  0
C  C39  1  0.43709738  0.26037678  0.76463704  1  0  0.288108  0  3.969917  0  0  0.275142  0  4.269424  0  0  0.292038  0  4.28507  0  0  0.134453  0.263741  0  4.258615  0
C  C40  1  0.95397092  0.97887353  0.20414186  1  0  -0.109871  0  3.675641  0  0  -0.144213  0  3.932791  0  0  -0.143915  0  3.944779  0  0  -0.166013  -0.144689  0  3.925191  0
C  C41  1  0.04603059  0.02113286  0.79586044  1  0  -0.110346  0  3.675789  0  0  -0.144579  0  3.932815  0  0  -0.144258  0  3.944761  0  0  -0.166176  -0.145058  0  3.925221  0
C  C42  1  0.99549199  0.00519410  0.11839091  1  0  -0.107026  0  3.674828  0  0  -0.143261  0  3.931733  0  0  -0.142487  0  3.943933  0  0  -0.163475  -0.143596  0  3.923206  0
C  C43  1  0.00450991  0.99480914  0.88161053  1  0  -0.106887  0  3.674753  0  0  -0.14317  0  3.931652  0  0  -0.142421  0  3.943891  0  0  -0.163429  -0.143531  0  3.923213  0
C  C44  1  0.57870671  0.12268491  0.41256977  1  0  0.380091  0  3.792894  0  0  0.358851  0  4.066969  0  0  0.376749  0  4.079526  0  0  0.23105  0.346719  0  4.058368  0
C  C45  1  0.42128282  0.87731594  0.58742896  1  0  0.379979  0  3.793043  0  0  0.358783  0  4.067072  0  0  0.376685  0  4.079634  0  0  0.231012  0.346663  0  4.058443  0
C  C46  1  0.73609495  0.98455551  0.40751322  1  0  0.198291  0  3.660288  0  0  0.16413  0  3.917443  0  0  0.178489  0  3.928317  0  0  0.066518  0.154342  0  3.910345  0
C  C47  1  0.26390888  0.01544377  0.59247819  1  0  0.198419  0  3.660002  0  0  0.164128  0  3.917348  0  0  0.178502  0  3.928215  0  0  0.066479  0.15434  0  3.910253  0
C  C48  1  0.76801243  0.02202738  0.50155073  1  0  -0.192135  0  3.723495  0  0  -0.205143  0  3.982628  0  0  -0.216682  0  4.002705  0  0  -0.095356  -0.197928  0  3.969821  0
C  C49  1  0.23199265  0.97797585  0.49844369  1  0  -0.192043  0  3.723472  0  0  -0.205042  0  3.9826  0  0  -0.216589  0  4.00268  0  0  -0.095336  -0.197824  0  3.969786  0
C  C50  1  0.69404170  0.11189195  0.54753449  1  0  0.187981  0  3.679051  0  0  0.149662  0  3.936296  0  0  0.161496  0  3.950632  0  0  0.055856  0.141863  0  3.927101  0
C  C51  1  0.30595613  0.88810733  0.45246133  1  0  0.187815  0  3.679122  0  0  0.149525  0  3.936385  0  0  0.161366  0  3.950722  0  0  0.055835  0.141723  0  3.927186  0
C  C52  1  0.24730749  0.79125920  0.92671826  1  0  0.278816  0  3.936297  0  0  0.265353  0  4.24144  0  0  0.28189  0  4.254613  0  0  0.140869  0.254284  0  4.232276  0
C  C53  1  0.75268815  0.20873852  0.07328288  1  0  0.278792  0  3.936316  0  0  0.265324  0  4.241462  0  0  0.281856  0  4.25464  0  0  0.140873  0.254253  0  4.232303  0
C  C54  1  0.46077160  0.44913128  0.27602086  1  0  -0.105288  0  3.668515  0  0  -0.140165  0  3.927302  0  0  -0.139863  0  3.939509  0  0  -0.165311  -0.140688  0  3.919513  0
C  C55  1  0.53922688  0.55086564  0.72397496  1  0  -0.105718  0  3.669106  0  0  -0.14051  0  3.927812  0  0  -0.140228  0  3.940035  0  0  -0.165429  -0.141007  0  3.919994  0
C  C56  1  0.44102440  0.46291271  0.37525305  1  0  -0.109943  0  3.67825  0  0  -0.144527  0  3.928627  0  0  -0.144071  0  3.941032  0  0  -0.166018  -0.144789  0  3.920404  0
C  C57  1  0.55897700  0.53708895  0.62474731  1  0  -0.109573  0  3.678341  0  0  -0.144199  0  3.928745  0  0  -0.143732  0  3.941154  0  0  -0.165964  -0.144468  0  3.920514  0
C  C58  1  0.96882436  0.60849811  0.16254110  1  0  0.380114  0  3.793295  0  0  0.359196  0  4.068793  0  0  0.376984  0  4.08095  0  0  0.229882  0.34711  0  4.060537  0
C  C59  1  0.03117531  0.39149883  0.83746179  1  0  0.380145  0  3.793192  0  0  0.35929  0  4.068591  0  0  0.377082  0  4.080754  0  0  0.229937  0.347195  0  4.060345  0
C  C60  1  0.73701334  0.47257979  0.07111888  1  0  0.195895  0  3.676295  0  0  0.162066  0  3.936433  0  0  0.175759  0  3.948195  0  0  0.063858  0.152751  0  3.928645  0
C  C61  1  0.26298425  0.52741558  0.92888611  1  0  0.195938  0  3.676243  0  0  0.162082  0  3.936405  0  0  0.175774  0  3.948167  0  0  0.063843  0.152764  0  3.928613  0
C  C62  1  0.74798981  0.52076320  0.00438894  1  0  -0.194828  0  3.736145  0  0  -0.210168  0  3.998486  0  0  -0.221909  0  4.020091  0  0  -0.096687  -0.202751  0  3.984479  0
C  C63  1  0.25200236  0.47922901  0.99561513  1  0  -0.194796  0  3.7363  0  0  -0.210113  0  3.99862  0  0  -0.221843  0  4.020214  0  0  -0.096601  -0.202691  0  3.984605  0
C  C64  1  0.87833765  0.61604063  0.02286652  1  0  0.18532  0  3.684338  0  0  0.149293  0  3.940695  0  0  0.160714  0  3.95488  0  0  0.056775  0.141843  0  3.931407  0
C  C65  1  0.12166838  0.38396263  0.97714137  1  0  0.185396  0  3.684443  0  0  0.149279  0  3.940879  0  0  0.160688  0  3.955078  0  0  0.05668  0.141839  0  3.931589  0
C  C66  1  0.07666971  0.27972107  0.43909257  1  0  0.296418  0  3.956511  0  0  0.283251  0  4.254865  0  0  0.300546  0  4.27084  0  0  0.137233  0.271541  0  4.243828  0
C  C67  1  0.92332927  0.72027743  0.56090433  1  0  0.296392  0  3.956631  0  0  0.283229  0  4.254972  0  0  0.300523  0  4.270953  0  0  0.137206  0.271519  0  4.243937  0
S  S68  1  0.52945634  0.75638996  0.13765167  1  0  -0.329301  0  2.396338  0  0  -0.298504  0  2.760859  0  0  -0.309546  0  2.750379  0  0  -0.166032  -0.290499  0  2.767266  0
S  S69  1  0.47053831  0.24361327  0.86234905  1  0  -0.329275  0  2.396415  0  0  -0.298492  0  2.760955  0  0  -0.309527  0  2.750467  0  0  -0.166019  -0.290469  0  2.767327  0
S  S70  1  0.15355240  0.92726271  0.24357999  1  0  -0.233284  0  2.455289  0  0  -0.198472  0  2.877083  0  0  -0.200286  0  2.863663  0  0  -0.140037  -0.195678  0  2.885487  0
S  S71  1  0.84644919  0.07273974  0.75642251  1  0  -0.233204  0  2.455392  0  0  -0.198407  0  2.877114  0  0  -0.200224  0  2.863677  0  0  -0.140048  -0.195611  0  2.885521  0
S  S72  1  0.19823274  0.11731240  0.13689456  1  0  -0.249242  0  2.398276  0  0  -0.210814  0  2.800199  0  0  -0.214396  0  2.789919  0  0  -0.151998  -0.206915  0  2.806572  0
S  S73  1  0.80177601  0.88268927  0.86310396  1  0  -0.249264  0  2.398234  0  0  -0.210842  0  2.800184  0  0  -0.214425  0  2.789914  0  0  -0.152002  -0.206939  0  2.806561  0
S  S74  1  0.45994972  0.18877835  0.35605922  1  0  -0.227364  0  2.210419  0  0  -0.216221  0  2.570558  0  0  -0.219593  0  2.564075  0  0  -0.067647  -0.212428  0  2.574834  0
S  S75  1  0.54003986  0.81122249  0.64393823  1  0  -0.227275  0  2.210358  0  0  -0.216135  0  2.570467  0  0  -0.219507  0  2.56398  0  0  -0.067592  -0.212347  0  2.574738  0
S  S76  1  0.26306021  0.76780291  0.81754527  1  0  -0.298616  0  2.542465  0  0  -0.267747  0  2.940249  0  0  -0.277479  0  2.926597  0  0  -0.134236  -0.260605  0  2.949298  0
S  S77  1  0.73694116  0.23219875  0.18245573  1  0  -0.298579  0  2.542494  0  0  -0.267712  0  2.94029  0  0  -0.277438  0  2.926631  0  0  -0.134215  -0.260571  0  2.94934  0
S  S78  1  0.22387774  0.40257209  0.20931158  1  0  -0.233732  0  2.431805  0  0  -0.195142  0  2.843055  0  0  -0.197822  0  2.830587  0  0  -0.139131  -0.191736  0  2.851167  0
S  S79  1  0.77612676  0.59742563  0.79068645  1  0  -0.233654  0  2.431862  0  0  -0.19507  0  2.84305  0  0  -0.19775  0  2.830595  0  0  -0.139132  -0.191672  0  2.851159  0
S  S80  1  0.30871063  0.56934709  0.43153855  1  0  -0.241458  0  2.411493  0  0  -0.203739  0  2.830248  0  0  -0.205665  0  2.818033  0  0  -0.140048  -0.200564  0  2.837601  0
S  S81  1  0.69128802  0.43065062  0.56846005  1  0  -0.241518  0  2.411477  0  0  -0.203777  0  2.830238  0  0  -0.205708  0  2.818025  0  0  -0.140045  -0.200604  0  2.837594  0
S  S82  1  0.11404593  0.66645474  0.26273571  1  0  -0.235588  0  2.301254  0  0  -0.226122  0  2.669368  0  0  -0.230442  0  2.663871  0  0  -0.064614  -0.221817  0  2.673095  0
S  S83  1  0.88595241  0.33354299  0.73727123  1  0  -0.235647  0  2.301287  0  0  -0.226171  0  2.669352  0  0  -0.230488  0  2.663849  0  0  -0.064665  -0.221864  0  2.673084  0
S  S84  1  0.13843320  0.29186268  0.54376316  1  0  -0.323987  0  2.50671  0  0  -0.295675  0  2.907314  0  0  -0.306931  0  2.895841  0  0  -0.153915  -0.287756  0  2.9146  0
S  S85  1  0.86156139  0.70813188  0.45623710  1  0  -0.323934  0  2.506875  0  0  -0.295627  0  2.907462  0  0  -0.306879  0  2.895987  0  0  -0.15385  -0.287713  0  2.914763  0
N  N86  1  0.58550729  0.72752741  0.30637224  1  0  -0.506244  0  3.080847  0  0  -0.458269  0  3.40346  0  0  -0.46955  0  3.403301  0  0  -0.430648  -0.451199  0  3.403203  0
N  N87  1  0.41449788  0.27247661  0.69362688  1  0  -0.506249  0  3.080717  0  0  -0.458275  0  3.403346  0  0  -0.469554  0  3.403184  0  0  -0.430703  -0.451207  0  3.403091  0
N  N88  1  0.64113039  0.03409502  0.36340422  1  0  -0.385742  0  3.106818  0  0  -0.323689  0  3.361479  0  0  -0.344425  0  3.377894  0  0  -0.308543  -0.309259  0  3.350037  0
N  N89  1  0.35886750  0.96590425  0.63659032  1  0  -0.385752  0  3.106859  0  0  -0.323704  0  3.361607  0  0  -0.344418  0  3.377966  0  0  -0.308526  -0.309278  0  3.350161  0
N  N90  1  0.59794000  0.16249946  0.50422772  1  0  -0.372656  0  3.306109  0  0  -0.303668  0  3.602192  0  0  -0.317882  0  3.606797  0  0  -0.358715  -0.295173  0  3.599429  0
N  N91  1  0.40205511  0.83750060  0.49577021  1  0  -0.372573  0  3.306146  0  0  -0.303591  0  3.602184  0  0  -0.317816  0  3.606801  0  0  -0.358682  -0.295086  0  3.599402  0
N  N92  1  0.23442576  0.80702331  0.00527087  1  0  -0.473441  0  3.088726  0  0  -0.430643  0  3.407763  0  0  -0.438578  0  3.405937  0  0  -0.417997  -0.426019  0  3.408502  0
N  N93  1  0.76556672  0.19297361  0.99472938  1  0  -0.473405  0  3.088728  0  0  -0.430598  0  3.407763  0  0  -0.438526  0  3.405929  0  0  -0.417992  -0.425977  0  3.408507  0
N  N94  1  0.84588627  0.51602714  0.14993615  1  0  -0.392117  0  3.097148  0  0  -0.333817  0  3.356512  0  0  -0.354105  0  3.372773  0  0  -0.310978  -0.319682  0  3.345174  0
N  N95  1  0.15412119  0.48397139  0.85006790  1  0  -0.392131  0  3.097059  0  0  -0.333836  0  3.356411  0  0  -0.354132  0  3.372679  0  0  -0.310957  -0.319715  0  3.345116  0
N  N96  1  0.99150734  0.66000859  0.10090725  1  0  -0.364242  0  3.297098  0  0  -0.297778  0  3.59014  0  0  -0.311309  0  3.595295  0  0  -0.355532  -0.2899  0  3.587274  0
N  N97  1  0.00848935  0.33998835  0.89909753  1  0  -0.364293  0  3.296707  0  0  -0.297859  0  3.58983  0  0  -0.311391  0  3.594972  0  0  -0.355563  -0.289981  0  3.586968  0
N  N98  1  0.03507320  0.26768167  0.36228645  1  0  -0.493974  0  3.116491  0  0  -0.449294  0  3.441525  0  0  -0.460067  0  3.440208  0  0  -0.43553  -0.442534  0  3.442123  0
N  N99  1  0.96493660  0.73232315  0.63771294  1  0  -0.494028  0  3.116468  0  0  -0.449324  0  3.441449  0  0  -0.460101  0  3.440142  0  0  -0.435563  -0.442562  0  3.442047  0
