# generated using pymatgen
data_TbH12C8NO11
_symmetry_space_group_name_H-M   'P 1'
_cell_length_a   6.55738450
_cell_length_b   12.26588281
_cell_length_c   17.56600000
_cell_angle_alpha   90.00000000
_cell_angle_beta   90.00000000
_cell_angle_gamma   90.00000000
_symmetry_Int_Tables_number   1
_chemical_formula_structural   TbH12C8NO11
_chemical_formula_sum   'Tb4 H48 C32 N4 O44'
_cell_volume   1412.87044145
_cell_formula_units_Z   4
loop_
 _symmetry_equiv_pos_site_id
 _symmetry_equiv_pos_as_xyz
  1  'x, y, z'
loop_
 _atom_site_type_symbol
 _atom_site_label
 _atom_site_symmetry_multiplicity
 _atom_site_fract_x
 _atom_site_fract_y
 _atom_site_fract_z
 _atom_site_occupancy
 _atom_site_hle17_bader_spin_density
 _atom_site_hle17_ddec_charge
 _atom_site_hle17_ddec_spin_density
 _atom_site_hle17_ddec_sum_bond_order
 _atom_site_hle17_magmom
 _atom_site_hse06_10hf_bader_spin_density
 _atom_site_hse06_10hf_ddec_charge
 _atom_site_hse06_10hf_ddec_spin_density
 _atom_site_hse06_10hf_ddec_sum_bond_order
 _atom_site_hse06_10hf_magmom
 _atom_site_hse06_bader_spin_density
 _atom_site_hse06_ddec_charge
 _atom_site_hse06_ddec_spin_density
 _atom_site_hse06_ddec_sum_bond_order
 _atom_site_hse06_magmom
 _atom_site_pbe_bader_charge
 _atom_site_pbe_bader_spin_density
 _atom_site_pbe_cm5_charge
 _atom_site_pbe_ddec_charge
 _atom_site_pbe_ddec_spin_density
 _atom_site_pbe_ddec_sum_bond_order
 _atom_site_pbe_magmom
Tb  Tb0  1  0.48341988  0.47214131  0.23924912  1  0  2.270095  0  1.593737  0  0  2.112215  0  2.072587  0  0  2.236322  0  1.879302  0  2.18865  0  1.484673  2.080617  0  2.100608  0
Tb  Tb1  1  0.51656876  0.52786172  0.73924399  1  0  2.270199  0  1.593618  0  0  2.112346  0  2.072418  0  0  2.236439  0  1.879173  0  2.188594  0  1.484663  2.080749  0  2.100436  0
Tb  Tb2  1  0.98342716  0.02786265  0.23924627  1  0  2.270166  0  1.593587  0  0  2.11233  0  2.072338  0  0  2.236402  0  1.879142  0  2.188614  0  1.484648  2.08073  0  2.100359  0
Tb  Tb3  1  0.01656911  0.97214446  0.73924912  1  0  2.270109  0  1.593712  0  0  2.112271  0  2.07249  0  0  2.236341  0  1.879273  0  2.188584  0  1.484666  2.080672  0  2.100513  0
H  H4  1  0.16275696  0.57714395  0.14156268  1  0  0.43917  0  0.805715  0  0  0.425503  0  0.850882  0  0  0.434034  0  0.842368  0  0.623614  0  0.33476  0.41961  0  0.857493  0
H  H5  1  0.83724082  0.42285338  0.64155926  1  0  0.439057  0  0.805866  0  0  0.425396  0  0.851025  0  0  0.433925  0  0.842515  0  0.623557  0  0.334723  0.419503  0  0.857634  0
H  H6  1  0.66276120  0.92285082  0.14155755  1  0  0.439178  0  0.805742  0  0  0.425491  0  0.850944  0  0  0.434026  0  0.84242  0  0.623464  0  0.33473  0.419595  0  0.857561  0
H  H7  1  0.33723812  0.07714569  0.64156268  1  0  0.439171  0  0.805735  0  0  0.425496  0  0.850912  0  0  0.434027  0  0.842398  0  0.623616  0  0.334777  0.419602  0  0.857523  0
H  H8  1  0.01602316  0.51982887  0.20010532  1  0  0.452606  0  0.831413  0  0  0.422735  0  0.892838  0  0  0.433834  0  0.876457  0  0.652819  0  0.309857  0.415257  0  0.903931  0
H  H9  1  0.98397768  0.48016193  0.70010361  1  0  0.452663  0  0.831311  0  0  0.4228  0  0.892725  0  0  0.433899  0  0.876345  0  0.652776  0  0.309901  0.415321  0  0.903818  0
H  H10  1  0.51602586  0.98015448  0.20010475  1  0  0.452616  0  0.831387  0  0  0.422749  0  0.892807  0  0  0.433848  0  0.876427  0  0.652784  0  0.309859  0.415271  0  0.903899  0
H  H11  1  0.48397192  0.01983225  0.70010361  1  0  0.452557  0  0.831464  0  0  0.422707  0  0.892846  0  0  0.433805  0  0.876468  0  0.65288  0  0.309858  0.41523  0  0.903937  0
H  H12  1  0.21013866  0.35782912  0.33819025  1  0  0.450445  0  0.807655  0  0  0.430218  0  0.860721  0  0  0.440272  0  0.846121  0  0.641485  0  0.325239  0.423172  0  0.871068  0
H  H13  1  0.78986218  0.64217229  0.83818684  1  0  0.450558  0  0.807501  0  0  0.430292  0  0.860636  0  0  0.44035  0  0.846028  0  0.641492  0  0.325245  0.423246  0  0.870997  0
H  H14  1  0.71012764  0.14217159  0.33818456  1  0  0.450444  0  0.807729  0  0  0.430213  0  0.860749  0  0  0.440268  0  0.846147  0  0.641528  0  0.325233  0.423167  0  0.871143  0
H  H15  1  0.28986252  0.85782574  0.83818968  1  0  0.45055  0  0.807507  0  0  0.430292  0  0.860635  0  0  0.44035  0  0.846028  0  0.641445  0  0.325231  0.423247  0  0.870991  0
H  H16  1  0.15020470  0.47630326  0.37201526  1  0  0.436793  0  0.866817  0  0  0.4045  0  0.931609  0  0  0.416966  0  0.91354  0  0.648761  0  0.293775  0.395987  0  0.943993  0
H  H17  1  0.84980071  0.52369406  0.87200387  1  0  0.436843  0  0.866783  0  0  0.404588  0  0.931525  0  0  0.417059  0  0.913444  0  0.648004  0  0.293787  0.396074  0  0.94391  0
H  H18  1  0.65020131  0.02369581  0.37200843  1  0  0.436911  0  0.866681  0  0  0.404641  0  0.931445  0  0  0.417109  0  0.913368  0  0.648128  0  0.293806  0.396127  0  0.943829  0
H  H19  1  0.34980105  0.97630233  0.87200956  1  0  0.436806  0  0.866819  0  0  0.404568  0  0.931532  0  0  0.417035  0  0.913459  0  0.64862  0  0.293784  0.396055  0  0.943917  0
H  H20  1  0.78011439  0.42325612  0.35872993  1  0  0.450645  0  0.805529  0  0  0.429019  0  0.861338  0  0  0.439099  0  0.846592  0  0.635821  0  0.326448  0.421931  0  0.871898  0
H  H21  1  0.21989408  0.57673468  0.85873164  1  0  0.450673  0  0.805363  0  0  0.42905  0  0.861269  0  0  0.43913  0  0.846521  0  0.635911  0  0.326412  0.421963  0  0.871829  0
H  H22  1  0.28010101  0.07673724  0.35873449  1  0  0.450584  0  0.805501  0  0  0.428964  0  0.861398  0  0  0.439048  0  0.846643  0  0.635937  0  0.326344  0.421877  0  0.871959  0
H  H23  1  0.71988306  0.92326498  0.85873676  1  0  0.450611  0  0.805432  0  0  0.429001  0  0.861331  0  0  0.439083  0  0.846582  0  0.635781  0  0.32638  0.421914  0  0.87189  0
H  H24  1  0.58601108  0.44248099  0.41324832  1  0  0.452567  0  0.846956  0  0  0.418543  0  0.914026  0  0  0.430855  0  0.896288  0  0.683582  0  0.294237  0.410161  0  0.926129  0
H  H25  1  0.41400043  0.55751307  0.91325117  1  0  0.452556  0  0.846958  0  0  0.418541  0  0.914013  0  0  0.430851  0  0.89628  0  0.68358  0  0.294247  0.410158  0  0.926116  0
H  H26  1  0.08598550  0.05752052  0.41325344  1  0  0.452668  0  0.84678  0  0  0.418559  0  0.913988  0  0  0.430869  0  0.896254  0  0.683477  0  0.294201  0.410177  0  0.926091  0
H  H27  1  0.91400161  0.94247843  0.91325287  1  0  0.452679  0  0.846791  0  0  0.418599  0  0.913959  0  0  0.430912  0  0.896218  0  0.683536  0  0.294235  0.410217  0  0.926061  0
H  H28  1  0.22464902  0.65018802  0.30498805  1  0  0.428893  0  0.874592  0  0  0.398482  0  0.937209  0  0  0.409414  0  0.921407  0  0.658512  0  0.298681  0.390913  0  0.948272  0
H  H29  1  0.77534724  0.34980686  0.80498178  1  0  0.429038  0  0.874409  0  0  0.398575  0  0.937083  0  0  0.409508  0  0.921279  0  0.658531  0  0.298737  0.391009  0  0.94814  0
H  H30  1  0.72465325  0.84980920  0.30498406  1  0  0.428985  0  0.87448  0  0  0.39852  0  0.93716  0  0  0.409451  0  0.92136  0  0.658539  0  0.298721  0.390953  0  0.948219  0
H  H31  1  0.27535521  0.15018731  0.80498520  1  0  0.428952  0  0.874497  0  0  0.398537  0  0.937125  0  0  0.409466  0  0.921329  0  0.658545  0  0.298697  0.390969  0  0.948187  0
H  H32  1  0.44339782  0.69697633  0.31683024  1  0  0.434395  0  0.872062  0  0  0.400637  0  0.940762  0  0  0.412303  0  0.92381  0  0.633965  0  0.295071  0.392572  0  0.952579  0
H  H33  1  0.55659082  0.30302426  0.81683195  1  0  0.434369  0  0.872074  0  0  0.400617  0  0.940772  0  0  0.412281  0  0.923825  0  0.633872  0  0.295028  0.39255  0  0.952591  0
H  H34  1  0.94341120  0.80302333  0.31683423  1  0  0.434335  0  0.87212  0  0  0.400617  0  0.940768  0  0  0.412283  0  0.923816  0  0.63393  0  0.295035  0.392549  0  0.952587  0
H  H35  1  0.05659879  0.19697563  0.81683024  1  0  0.434422  0  0.872025  0  0  0.400668  0  0.940726  0  0  0.412337  0  0.92377  0  0.633975  0  0.295062  0.392601  0  0.952545  0
H  H36  1  0.76224293  0.66519060  0.21159854  1  0  0.443741  0  0.79807  0  0  0.425225  0  0.850463  0  0  0.434708  0  0.839914  0  0.632263  0  0.333417  0.418597  0  0.858528  0
H  H37  1  0.23776705  0.33481080  0.71159171  1  0  0.443751  0  0.798128  0  0  0.425232  0  0.850519  0  0  0.434715  0  0.839969  0  0.632215  0  0.333382  0.418597  0  0.858595  0
H  H38  1  0.26223108  0.83481150  0.21159513  1  0  0.443767  0  0.798163  0  0  0.425254  0  0.850529  0  0  0.434736  0  0.839982  0  0.632239  0  0.333425  0.418621  0  0.858602  0
H  H39  1  0.73776214  0.16518827  0.71159570  1  0  0.443781  0  0.798165  0  0  0.425264  0  0.850539  0  0  0.434746  0  0.839992  0  0.632243  0  0.333424  0.41863  0  0.858613  0
H  H40  1  0.85447025  0.62814720  0.29092167  1  0  0.436756  0  0.858525  0  0  0.402492  0  0.926591  0  0  0.413917  0  0.909923  0  0.638094  0  0.304178  0.394701  0  0.938013  0
H  H41  1  0.14552753  0.37184767  0.79091654  1  0  0.436661  0  0.858644  0  0  0.402414  0  0.926672  0  0  0.413835  0  0.910011  0  0.638116  0  0.304165  0.394626  0  0.938088  0
H  H42  1  0.35446755  0.87185001  0.29091882  1  0  0.436818  0  0.858455  0  0  0.402519  0  0.926572  0  0  0.413942  0  0.909907  0  0.638105  0  0.304213  0.394729  0  0.937993  0
H  H43  1  0.64552872  0.12815058  0.79091996  1  0  0.436788  0  0.858493  0  0  0.402497  0  0.9266  0  0  0.413919  0  0.909936  0  0.638072  0  0.30419  0.394705  0  0.938023  0
H  H44  1  0.48931399  0.37892992  0.93124673  1  0  0.121553  0  0.955756  0  0  0.127331  0  1.024788  0  0  0.131762  0  1.021374  0  0.146983  0  0.118374  0.124128  0  1.027413  0
H  H45  1  0.51069904  0.62107230  0.43124274  1  0  0.121599  0  0.955724  0  0  0.127375  0  1.024731  0  0  0.131808  0  1.02131  0  0.146937  0  0.118377  0.12417  0  1.027357  0
H  H46  1  0.98932280  0.12107078  0.93124388  1  0  0.121523  0  0.955821  0  0  0.127253  0  1.024914  0  0  0.131683  0  1.021499  0  0.146915  0  0.118315  0.124049  0  1.02754  0
H  H47  1  0.01069024  0.87892573  0.43124843  1  0  0.121527  0  0.955741  0  0  0.127289  0  1.024805  0  0  0.131721  0  1.021386  0  0.147069  0  0.118344  0.124085  0  1.027431  0
H  H48  1  0.41455095  0.09377719  0.07299157  1  0  0.133692  0  0.934414  0  0  0.138412  0  1.000168  0  0  0.143619  0  0.995156  0  0.153651  0  0.120721  0.134742  0  1.003515  0
H  H49  1  0.58543616  0.90622177  0.57298645  1  0  0.133674  0  0.934441  0  0  0.138326  0  1.000244  0  0  0.143546  0  0.995217  0  0.153683  0  0.120721  0.134658  0  1.003589  0
H  H50  1  0.91454909  0.40622188  0.07298531  1  0  0.133714  0  0.934397  0  0  0.138319  0  1.000258  0  0  0.143535  0  0.995242  0  0.153708  0  0.12077  0.134651  0  1.003602  0
H  H51  1  0.08546090  0.59377952  0.57299214  1  0  0.133652  0  0.93441  0  0  0.138336  0  1.000231  0  0  0.143557  0  0.995199  0  0.153816  0  0.120723  0.134666  0  1.003579  0
C  C52  1  0.50560708  0.52669589  0.05490493  1  0  0.646648  0  3.900975  0  0  0.594722  0  4.20782  0  0  0.628888  0  4.199586  0  1.624373  0  0.214663  0.571875  0  4.214012  0
C  C53  1  0.49441206  0.47330715  0.55490322  1  0  0.646477  0  3.901526  0  0  0.594782  0  4.20806  0  0  0.62895  0  4.199829  0  1.623773  0  0.214668  0.571934  0  4.21425  0
C  C54  1  0.00559217  0.97330377  0.05490664  1  0  0.646819  0  3.900931  0  0  0.594868  0  4.207808  0  0  0.629034  0  4.199576  0  1.623929  0  0.214689  0.57202  0  4.214  0
C  C55  1  0.99439494  0.02669437  0.55490891  1  0  0.646836  0  3.900957  0  0  0.594913  0  4.207785  0  0  0.629077  0  4.199554  0  1.624315  0  0.214767  0.572066  0  4.213976  0
C  C56  1  0.47131139  0.40368639  0.05270523  1  0  0.119133  0  3.711716  0  0  0.126899  0  3.956535  0  0  0.12727  0  3.977003  0  0.521832  0  0.124627  0.126292  0  3.944971  0
C  C57  1  0.52868792  0.59632316  0.55270181  1  0  0.119239  0  3.711768  0  0  0.12678  0  3.956725  0  0  0.127151  0  3.977198  0  0.521205  0  0.12452  0.126174  0  3.945157  0
C  C58  1  0.97130800  0.09631512  0.05269896  1  0  0.119057  0  3.711684  0  0  0.126801  0  3.956497  0  0  0.127173  0  3.976966  0  0.521898  0  0.124545  0.126195  0  3.944933  0
C  C59  1  0.02868827  0.90368873  0.55270921  1  0  0.119028  0  3.711563  0  0  0.126752  0  3.956445  0  0  0.127121  0  3.976916  0  0.521427  0  0.12456  0.126146  0  3.94488  0
C  C60  1  0.47306819  0.33991438  0.98651770  1  0  -0.096444  0  3.630449  0  0  -0.134545  0  3.88469  0  0  -0.135407  0  3.901739  0  -0.052143  0  -0.064714  -0.133718  0  3.873109  0
C  C61  1  0.52691435  0.66008946  0.48651543  1  0  -0.096516  0  3.6306  0  0  -0.134533  0  3.884798  0  0  -0.135397  0  3.901849  0  -0.051161  0  -0.064579  -0.133702  0  3.873213  0
C  C62  1  0.97307547  0.16008550  0.98651201  1  0  -0.096443  0  3.630453  0  0  -0.134428  0  3.884671  0  0  -0.13529  0  3.901719  0  -0.051982  0  -0.064563  -0.133602  0  3.873091  0
C  C63  1  0.02692232  0.83991672  0.48651998  1  0  -0.096231  0  3.63001  0  0  -0.134337  0  3.884221  0  0  -0.135196  0  3.901266  0  -0.052074  0  -0.064613  -0.133513  0  3.872642  0
C  C64  1  0.45767333  0.22655035  0.99354947  1  0  -0.029132  0  3.710876  0  0  -0.008516  0  3.953195  0  0  -0.013125  0  3.973999  0  0.040791  0  -0.001649  -0.005646  0  3.939298  0
C  C65  1  0.54232598  0.77345106  0.49354662  1  0  -0.028965  0  3.710802  0  0  -0.008339  0  3.953048  0  0  -0.012945  0  3.973848  0  0.040667  0  -0.001694  -0.005476  0  3.939148  0
C  C66  1  0.95767756  0.27344709  0.99354378  1  0  -0.028717  0  3.710387  0  0  -0.008251  0  3.952863  0  0  -0.012859  0  3.973658  0  0.040632  0  -0.001613  -0.005384  0  3.938967  0
C  C67  1  0.04233700  0.72655023  0.49355118  1  0  -0.029245  0  3.710778  0  0  -0.008503  0  3.952951  0  0  -0.013113  0  3.97375  0  0.040732  0  -0.001592  -0.005631  0  3.939056  0
C  C68  1  0.46183657  0.14910953  0.92665035  1  0  0.652858  0  3.87883  0  0  0.595744  0  4.181662  0  0  0.627964  0  4.175362  0  1.579574  0  0.21961  0.574038  0  4.184925  0
C  C69  1  0.53816884  0.85088698  0.42664465  1  0  0.652708  0  3.878506  0  0  0.595594  0  4.181347  0  0  0.627807  0  4.175056  0  1.579693  0  0.219616  0.573904  0  4.184592  0
C  C70  1  0.96184081  0.35088628  0.92664636  1  0  0.6526  0  3.878569  0  0  0.595487  0  4.181476  0  0  0.627714  0  4.175166  0  1.579506  0  0.219561  0.573786  0  4.184734  0
C  C71  1  0.03818443  0.64911268  0.42665376  1  0  0.653148  0  3.878505  0  0  0.596009  0  4.18135  0  0  0.628234  0  4.175038  0  1.579262  0  0.219675  0.574301  0  4.184619  0
C  C72  1  0.42882341  0.18139583  0.06589036  1  0  -0.078545  0  3.637023  0  0  -0.116509  0  3.891179  0  0  -0.116858  0  3.908118  0  -0.091139  0  -0.060235  -0.115828  0  3.879173  0
C  C73  1  0.57117743  0.81860639  0.56588466  1  0  -0.078717  0  3.637267  0  0  -0.116561  0  3.891439  0  0  -0.116917  0  3.908358  0  -0.09138  0  -0.060315  -0.115878  0  3.879433  0
C  C74  1  0.92881697  0.31860324  0.06588466  1  0  -0.078794  0  3.636967  0  0  -0.116595  0  3.891221  0  0  -0.116952  0  3.908147  0  -0.091184  0  -0.060357  -0.115913  0  3.879215  0
C  C75  1  0.07118692  0.68139572  0.56589036  1  0  -0.078514  0  3.636927  0  0  -0.116527  0  3.891073  0  0  -0.116886  0  3.908004  0  -0.091397  0  -0.060303  -0.115847  0  3.879068  0
C  C76  1  0.41719073  0.25072227  0.12829159  1  0  0.099586  0  3.748224  0  0  0.105586  0  3.994231  0  0  0.104804  0  4.015439  0  0.52238  0  0.116796  0.105763  0  3.981937  0
C  C77  1  0.58281011  0.74928158  0.62828191  1  0  0.099732  0  3.747987  0  0  0.105645  0  3.994173  0  0  0.104866  0  4.015387  0  0.522444  0  0.116825  0.105817  0  3.981883  0
C  C78  1  0.91718581  0.24928332  0.12828646  1  0  0.099746  0  3.747855  0  0  0.105711  0  3.993968  0  0  0.104927  0  4.015177  0  0.522377  0  0.116809  0.105885  0  3.981678  0
C  C79  1  0.08281656  0.75072134  0.62829159  1  0  0.099628  0  3.747969  0  0  0.10573  0  3.993924  0  0  0.104941  0  4.015138  0  0.522414  0  0.116831  0.105911  0  3.981628  0
C  C80  1  0.36987613  0.21276251  0.20817261  1  0  0.682133  0  3.871742  0  0  0.630222  0  4.171189  0  0  0.665334  0  4.164987  0  1.61168  0  0.234145  0.606785  0  4.177758  0
C  C81  1  0.63012166  0.78725357  0.70816805  1  0  0.682075  0  3.871132  0  0  0.630028  0  4.170892  0  0  0.665122  0  4.164722  0  1.611844  0  0.23414  0.606594  0  4.177451  0
C  C82  1  0.86986816  0.28724798  0.20816407  1  0  0.681974  0  3.871551  0  0  0.629948  0  4.171248  0  0  0.665058  0  4.16505  0  1.612033  0  0.23401  0.606516  0  4.177808  0
C  C83  1  0.13011743  0.71275669  0.70817261  1  0  0.682263  0  3.871316  0  0  0.630215  0  4.170958  0  0  0.665327  0  4.164752  0  1.611709  0  0.23415  0.606774  0  4.177537  0
N  N84  1  0.44462239  0.35868270  0.12144939  1  0  -0.434254  0  3.364427  0  0  -0.390064  0  3.613031  0  0  -0.410376  0  3.636445  0  -1.237471  0  -0.387641  -0.382149  0  3.598978  0
N  N85  1  0.55538607  0.64132114  0.62144541  1  0  -0.434334  0  3.36445  0  0  -0.390033  0  3.613089  0  0  -0.410349  0  3.636518  0  -1.237225  0  -0.387651  -0.382117  0  3.599038  0
N  N86  1  0.94462968  0.14131963  0.12144711  1  0  -0.434404  0  3.36417  0  0  -0.390161  0  3.612747  0  0  -0.410475  0  3.636174  0  -1.237144  0  -0.387662  -0.382247  0  3.598698  0
N  N87  1  0.05538031  0.85868340  0.62145622  1  0  -0.434266  0  3.364367  0  0  -0.39007  0  3.612897  0  0  -0.410377  0  3.636311  0  -1.237199  0  -0.387615  -0.382157  0  3.598851  0
O  O88  1  0.53408184  0.56579458  0.12194979  1  0  -0.732003  0  1.984051  0  0  -0.686238  0  2.233949  0  0  -0.720132  0  2.216045  0  -1.186787  0  -0.406749  -0.669454  0  2.243133  0
O  O89  1  0.46591595  0.43420845  0.62194524  1  0  -0.731957  0  1.9844  0  0  -0.686251  0  2.234189  0  0  -0.72014  0  2.216289  0  -1.186882  0  -0.406738  -0.669468  0  2.24337  0
O  O90  1  0.03408676  0.93420508  0.12194694  1  0  -0.732016  0  1.984114  0  0  -0.686239  0  2.234016  0  0  -0.720124  0  2.216117  0  -1.186779  0  -0.40674  -0.669457  0  2.243197  0
O  O91  1  0.96591560  0.06579714  0.62195150  1  0  -0.732059  0  1.984021  0  0  -0.686302  0  2.233916  0  0  -0.72019  0  2.216015  0  -1.186934  0  -0.40679  -0.669519  0  2.243098  0
O  O92  1  0.50425288  0.58090234  0.99446317  1  0  -0.578614  0  1.935157  0  0  -0.533234  0  2.142309  0  0  -0.554292  0  2.128345  0  -1.16756  0  -0.310954  -0.518231  0  2.150925  0
O  O93  1  0.49575711  0.41909662  0.49445918  1  0  -0.57864  0  1.935377  0  0  -0.533322  0  2.142416  0  0  -0.554384  0  2.12845  0  -1.167235  0  -0.310994  -0.518319  0  2.151033  0
O  O94  1  0.00424560  0.91909732  0.99446203  1  0  -0.578771  0  1.935158  0  0  -0.533343  0  2.142321  0  0  -0.554405  0  2.128353  0  -1.167591  0  -0.310964  -0.518338  0  2.150937  0
O  O95  1  0.99574457  0.08089838  0.49446601  1  0  -0.578796  0  1.935197  0  0  -0.533364  0  2.14235  0  0  -0.554422  0  2.128386  0  -1.167344  0  -0.311039  -0.518362  0  2.150966  0
O  O96  1  0.48517210  0.18913844  0.85910395  1  0  -0.680056  0  2.04446  0  0  -0.603219  0  2.259765  0  0  -0.629249  0  2.246973  0  -1.20827  0  -0.316866  -0.584537  0  2.267214  0
O  O97  1  0.51482874  0.81086296  0.35909712  1  0  -0.679935  0  2.04427  0  0  -0.603097  0  2.259598  0  0  -0.629131  0  2.246817  0  -1.208443  0  -0.316805  -0.584425  0  2.267038  0
O  O98  1  0.98515956  0.31085573  0.85909769  1  0  -0.679962  0  2.044232  0  0  -0.603112  0  2.259534  0  0  -0.629154  0  2.246753  0  -1.208381  0  -0.316839  -0.584437  0  2.266978  0
O  O99  1  0.01484586  0.68914159  0.35910680  1  0  -0.680213  0  2.044311  0  0  -0.603523  0  2.259757  0  0  -0.629572  0  2.246978  0  -1.20814  0  -0.317022  -0.584841  0  2.26721  0
O  O100  1  0.43564930  0.04986270  0.94066207  1  0  -0.573252  0  1.950133  0  0  -0.523319  0  2.164263  0  0  -0.546473  0  2.155393  0  -1.157506  0  -0.293743  -0.507033  0  2.169552  0
O  O101  1  0.56435763  0.95013707  0.44066151  1  0  -0.573231  0  1.949947  0  0  -0.52331  0  2.164101  0  0  -0.546462  0  2.155235  0  -1.157459  0  -0.293756  -0.507028  0  2.169383  0
O  O102  1  0.93566116  0.45013556  0.94065980  1  0  -0.573179  0  1.950082  0  0  -0.523209  0  2.164186  0  0  -0.546364  0  2.155312  0  -1.157341  0  -0.293702  -0.506924  0  2.169472  0
O  O103  1  0.06436255  0.54986503  0.44066492  1  0  -0.573369  0  1.950081  0  0  -0.523362  0  2.164203  0  0  -0.546514  0  2.155331  0  -1.157245  0  -0.29371  -0.507076  0  2.169493  0
O  O104  1  0.29621719  0.11819369  0.21655585  1  0  -0.716863  0  2.092943  0  0  -0.664726  0  2.356341  0  0  -0.701047  0  2.342393  0  -1.194758  0  -0.383718  -0.646365  0  2.362428  0
O  O105  1  0.70376840  0.88181260  0.71655015  1  0  -0.716691  0  2.093115  0  0  -0.664505  0  2.35658  0  0  -0.700811  0  2.342645  0  -1.194925  0  -0.383641  -0.646147  0  2.362663  0
O  O106  1  0.79622142  0.38181190  0.21655243  1  0  -0.716783  0  2.093038  0  0  -0.664562  0  2.356435  0  0  -0.70088  0  2.342487  0  -1.195011  0  -0.383639  -0.646203  0  2.362521  0
O  O107  1  0.20377179  0.61819521  0.71655300  1  0  -0.716827  0  2.092958  0  0  -0.664634  0  2.356401  0  0  -0.700951  0  2.342449  0  -1.194816  0  -0.383641  -0.646274  0  2.362494  0
O  O108  1  0.40334527  0.28097040  0.26105317  1  0  -0.692716  0  2.016913  0  0  -0.644899  0  2.262655  0  0  -0.677735  0  2.2476  0  -1.179112  0  -0.360744  -0.628435  0  2.270361  0
O  O109  1  0.59665252  0.71903100  0.76105260  1  0  -0.692834  0  2.016307  0  0  -0.644941  0  2.262134  0  0  -0.677783  0  2.247098  0  -1.178844  0  -0.360783  -0.628473  0  2.269835  0
O  O110  1  0.90333730  0.21903356  0.26104406  1  0  -0.69271  0  2.016774  0  0  -0.644856  0  2.262587  0  0  -0.677702  0  2.247559  0  -1.179092  0  -0.360669  -0.62839  0  2.270287  0
O  O111  1  0.09664067  0.78097192  0.76105374  1  0  -0.692906  0  2.016654  0  0  -0.645045  0  2.262477  0  0  -0.677884  0  2.247425  0  -1.179138  0  -0.360802  -0.628576  0  2.270186  0
O  O112  1  0.15072015  0.51478480  0.17541899  1  0  -0.877342  0  1.881582  0  0  -0.831538  0  2.06985  0  0  -0.858982  0  2.03901  0  -1.249859  0  -0.611755  -0.818279  0  2.087292  0
O  O113  1  0.84927763  0.48521090  0.67541501  1  0  -0.877279  0  1.881587  0  0  -0.831507  0  2.069881  0  0  -0.858944  0  2.039044  0  -1.249769  0  -0.61176  -0.818249  0  2.087319  0
O  O114  1  0.65072134  0.98520589  0.17541785  1  0  -0.877368  0  1.881542  0  0  -0.831592  0  2.069849  0  0  -0.859031  0  2.039012  0  -1.2497  0  -0.611726  -0.818328  0  2.08728  0
O  O115  1  0.34927340  0.01478654  0.67541785  1  0  -0.877283  0  1.881648  0  0  -0.831485  0  2.069925  0  0  -0.858922  0  2.039088  0  -1.249958  0  -0.611761  -0.818226  0  2.087365  0
O  O116  1  0.20170085  0.43530744  0.32601332  1  0  -0.910396  0  1.844873  0  0  -0.853956  0  2.037297  0  0  -0.883371  0  1.999196  0  -1.274791  0  -0.638653  -0.839722  0  2.059376  0
O  O117  1  0.79828322  0.56469560  0.82600820  1  0  -0.91061  0  1.844828  0  0  -0.854177  0  2.037182  0  0  -0.883591  0  1.999082  0  -1.274062  0  -0.638688  -0.839942  0  2.059276  0
O  O118  1  0.70170508  0.06469326  0.32600877  1  0  -0.910567  0  1.844893  0  0  -0.854121  0  2.037222  0  0  -0.883532  0  1.99912  0  -1.274204  0  -0.638698  -0.839888  0  2.05935  0
O  O119  1  0.29829271  0.93530243  0.82601104  1  0  -0.910522  0  1.844758  0  0  -0.854122  0  2.037132  0  0  -0.883534  0  1.999037  0  -1.274616  0  -0.638647  -0.839889  0  2.05922  0
O  O120  1  0.64444139  0.45530029  0.36034385  1  0  -0.940646  0  1.848364  0  0  -0.89056  0  2.050058  0  0  -0.920149  0  2.008354  0  -1.302054  0  -0.650073  -0.877386  0  2.07374  0
O  O121  1  0.35557165  0.54469704  0.86034385  1  0  -0.940645  0  1.84818  0  0  -0.890573  0  2.049966  0  0  -0.920157  0  2.008268  0  -1.30218  0  -0.650037  -0.877399  0  2.073648  0
O  O122  1  0.14441734  0.04470286  0.36034669  1  0  -0.94065  0  1.848098  0  0  -0.89053  0  2.049948  0  0  -0.920114  0  2.008257  0  -1.302053  0  -0.649932  -0.877357  0  2.073624  0
O  O123  1  0.85556978  0.95529284  0.86034783  1  0  -0.940701  0  1.84806  0  0  -0.89059  0  2.049863  0  0  -0.920169  0  2.008156  0  -1.301889  0  -0.65001  -0.877417  0  2.073544  0
O  O124  1  0.36544296  0.64449417  0.28453034  1  0  -0.944968  0  1.884411  0  0  -0.896493  0  2.090205  0  0  -0.926467  0  2.049366  0  -1.294912  0  -0.66383  -0.882864  0  2.113611  0
O  O125  1  0.63454263  0.35550478  0.78452693  1  0  -0.945073  0  1.884186  0  0  -0.896588  0  2.090066  0  0  -0.926584  0  2.049276  0  -1.294868  0  -0.663838  -0.88296  0  2.113477  0
O  O126  1  0.86545634  0.85550304  0.28452920  1  0  -0.944969  0  1.884247  0  0  -0.896469  0  2.09006  0  0  -0.926465  0  2.049279  0  -1.294909  0  -0.663814  -0.882839  0  2.113468  0
O  O127  1  0.13455822  0.14449510  0.78452920  1  0  -0.945035  0  1.884309  0  0  -0.896584  0  2.090043  0  0  -0.926569  0  2.049238  0  -1.294953  0  -0.663835  -0.882953  0  2.113452  0
O  O128  1  0.78296156  0.60200314  0.24430832  1  0  -0.866463  0  1.89492  0  0  -0.810655  0  2.088487  0  0  -0.837664  0  2.054693  0  -1.242422  0  -0.59795  -0.797481  0  2.108852  0
O  O129  1  0.21703318  0.39799989  0.74430035  1  0  -0.866433  0  1.895079  0  0  -0.81064  0  2.088663  0  0  -0.837645  0  2.054869  0  -1.242365  0  -0.597887  -0.797456  0  2.109036  0
O  O130  1  0.28296343  0.89799814  0.24430377  1  0  -0.86657  0  1.894915  0  0  -0.810746  0  2.088527  0  0  -0.837752  0  2.054736  0  -1.242451  0  -0.597985  -0.797559  0  2.108894  0
O  O131  1  0.71703741  0.10200407  0.74430605  1  0  -0.866567  0  1.894977  0  0  -0.810744  0  2.088555  0  0  -0.837749  0  2.05476  0  -1.242392  0  -0.597974  -0.797562  0  2.108936  0
