# generated using pymatgen
data_CuH5C6INO2
_symmetry_space_group_name_H-M   'P 1'
_cell_length_a   4.01962211
_cell_length_b   13.99541796
_cell_length_c   14.41868512
_cell_angle_alpha   105.42542825
_cell_angle_beta   89.99997271
_cell_angle_gamma   90.00000007
_symmetry_Int_Tables_number   1
_chemical_formula_structural   CuH5C6INO2
_chemical_formula_sum   'Cu4 H20 C24 I4 N4 O8'
_cell_volume   781.92236151
_cell_formula_units_Z   4
loop_
 _symmetry_equiv_pos_site_id
 _symmetry_equiv_pos_as_xyz
  1  'x, y, z'
loop_
 _atom_site_type_symbol
 _atom_site_label
 _atom_site_symmetry_multiplicity
 _atom_site_fract_x
 _atom_site_fract_y
 _atom_site_fract_z
 _atom_site_occupancy
 _atom_site_hle17_bader_spin_density
 _atom_site_hle17_ddec_charge
 _atom_site_hle17_ddec_spin_density
 _atom_site_hle17_ddec_sum_bond_order
 _atom_site_hle17_magmom
 _atom_site_hse06_10hf_bader_spin_density
 _atom_site_hse06_10hf_ddec_charge
 _atom_site_hse06_10hf_ddec_spin_density
 _atom_site_hse06_10hf_ddec_sum_bond_order
 _atom_site_hse06_10hf_magmom
 _atom_site_hse06_bader_spin_density
 _atom_site_hse06_ddec_charge
 _atom_site_hse06_ddec_spin_density
 _atom_site_hse06_ddec_sum_bond_order
 _atom_site_hse06_magmom
 _atom_site_pbe_bader_spin_density
 _atom_site_pbe_cm5_charge
 _atom_site_pbe_ddec_charge
 _atom_site_pbe_ddec_spin_density
 _atom_site_pbe_ddec_sum_bond_order
 _atom_site_pbe_magmom
Cu  Cu0  1  0.33810598  0.73194724  0.43469819  1  0  0.224503  0  2.246526  0  0  0.1475  0  2.732521  0  0  0.157766  0  2.677522  0  0  0.248876  0.143332  0  2.768416  0
Cu  Cu1  1  0.83810074  0.76804435  0.56528984  1  0  0.224624  0  2.246428  0  0  0.147611  0  2.732442  0  0  0.157812  0  2.677464  0  0  0.248883  0.143449  0  2.768317  0
Cu  Cu2  1  0.66188053  0.26805779  0.56530104  1  0  0.224444  0  2.246611  0  0  0.147508  0  2.732596  0  0  0.157753  0  2.67761  0  0  0.248897  0.143346  0  2.768502  0
Cu  Cu3  1  0.16186836  0.23194586  0.43470908  1  0  0.224466  0  2.24656  0  0  0.147469  0  2.732578  0  0  0.157687  0  2.677601  0  0  0.248838  0.143312  0  2.768456  0
H  H4  1  0.66038995  0.74222996  0.09413127  1  0  0.116178  0  0.949663  0  0  0.123042  0  1.013849  0  0  0.126242  0  1.01244  0  0  0.109175  0.120872  0  1.014852  0
H  H5  1  0.16039033  0.75777123  0.90585302  1  0  0.116065  0  0.949766  0  0  0.122919  0  1.013985  0  0  0.126131  0  1.012544  0  0  0.109113  0.120755  0  1.014992  0
H  H6  1  0.33960403  0.25778469  0.90586834  1  0  0.116109  0  0.949793  0  0  0.122928  0  1.01405  0  0  0.126133  0  1.012626  0  0  0.10909  0.120765  0  1.015054  0
H  H7  1  0.83964345  0.24221524  0.09413663  1  0  0.116095  0  0.949574  0  0  0.122924  0  1.013841  0  0  0.126146  0  1.01238  0  0  0.109141  0.120765  0  1.01485  0
H  H8  1  0.60635509  0.66801707  0.23342248  1  0  0.08213  0  0.942528  0  0  0.087306  0  1.011931  0  0  0.090917  0  1.008723  0  0  0.106397  0.084623  0  1.014265  0
H  H9  1  0.10635532  0.83197967  0.76655930  1  0  0.081902  0  0.942321  0  0  0.087136  0  1.011749  0  0  0.09077  0  1.00853  0  0  0.106268  0.084464  0  1.014091  0
H  H10  1  0.39362894  0.33199387  0.76657548  1  0  0.082223  0  0.942554  0  0  0.087309  0  1.012022  0  0  0.090906  0  1.008829  0  0  0.106411  0.08463  0  1.014358  0
H  H11  1  0.89363368  0.16801052  0.23343477  1  0  0.082284  0  0.942559  0  0  0.087391  0  1.012006  0  0  0.091008  0  1.008807  0  0  0.106423  0.084719  0  1.014349  0
H  H12  1  0.06291332  0.90866046  0.39108623  1  0  0.082436  0  0.962075  0  0  0.086143  0  1.035022  0  0  0.090419  0  1.031107  0  0  0.095551  0.082521  0  1.038585  0
H  H13  1  0.56294565  0.59132299  0.60890535  1  0  0.082254  0  0.962088  0  0  0.086106  0  1.034967  0  0  0.0904  0  1.031011  0  0  0.09552  0.082474  0  1.03855  0
H  H14  1  0.93709310  0.09134830  0.60892088  1  0  0.082351  0  0.962321  0  0  0.086127  0  1.035189  0  0  0.090391  0  1.031303  0  0  0.095545  0.082501  0  1.038754  0
H  H15  1  0.43704833  0.40866428  0.39109629  1  0  0.082425  0  0.962  0  0  0.086215  0  1.034882  0  0  0.090495  0  1.030964  0  0  0.095592  0.082591  0  1.038446  0
H  H16  1  0.09528195  0.99308911  0.25928965  1  0  0.108682  0  0.972387  0  0  0.114186  0  1.042041  0  0  0.118031  0  1.039803  0  0  0.096186  0.111305  0  1.043868  0
H  H17  1  0.59530698  0.50690326  0.74071044  1  0  0.108759  0  0.97225  0  0  0.114235  0  1.041926  0  0  0.118081  0  1.039687  0  0  0.096241  0.111348  0  1.043748  0
H  H18  1  0.90470705  0.00692336  0.74071910  1  0  0.108807  0  0.972359  0  0  0.114253  0  1.042052  0  0  0.118098  0  1.039811  0  0  0.096226  0.111375  0  1.043869  0
H  H19  1  0.40471685  0.49307733  0.25928881  1  0  0.108797  0  0.972385  0  0  0.114255  0  1.042045  0  0  0.118099  0  1.039798  0  0  0.096208  0.111359  0  1.043869  0
H  H20  1  0.63006621  0.92515612  0.96847168  1  0  0.398101  0  0.896221  0  0  0.367195  0  0.973865  0  0  0.38026  0  0.957983  0  0  0.303817  0.358062  0  0.983364  0
H  H21  1  0.13011881  0.57484658  0.03151924  1  0  0.398127  0  0.896175  0  0  0.36724  0  0.973776  0  0  0.380309  0  0.95791  0  0  0.303776  0.35809  0  0.983293  0
H  H22  1  0.36991532  0.07486373  0.03153202  1  0  0.398189  0  0.896057  0  0  0.367202  0  0.973837  0  0  0.380268  0  0.957976  0  0  0.30378  0.358072  0  0.983333  0
H  H23  1  0.86991995  0.42514363  0.96847830  1  0  0.398232  0  0.896036  0  0  0.367294  0  0.973706  0  0  0.380361  0  0.95784  0  0  0.303843  0.358152  0  0.983214  0
C  C24  1  0.42383027  0.92807483  0.09112462  1  0  0.666789  0  3.781526  0  0  0.61486  0  4.080133  0  0  0.651011  0  4.066339  0  0  0.242004  0.589832  0  4.089653  0
C  C25  1  0.92386023  0.57194122  0.90886892  1  0  0.666489  0  3.781202  0  0  0.614782  0  4.079468  0  0  0.650923  0  4.065691  0  0  0.241844  0.58973  0  4.088969  0
C  C26  1  0.57614132  0.07194354  0.90887939  1  0  0.666923  0  3.781116  0  0  0.615031  0  4.079629  0  0  0.651186  0  4.065835  0  0  0.241963  0.589997  0  4.089154  0
C  C27  1  0.07616360  0.42804454  0.09112749  1  0  0.666552  0  3.781021  0  0  0.614746  0  4.079497  0  0  0.650893  0  4.065721  0  0  0.241857  0.58969  0  4.089  0
C  C28  1  0.38281402  0.87449143  0.16626467  1  0  -0.04558  0  3.758704  0  0  -0.027814  0  3.995456  0  0  -0.032656  0  4.016455  0  0  -0.009091  -0.024493  0  3.981438  0
C  C29  1  0.88281404  0.62549944  0.83372802  1  0  -0.045424  0  3.758412  0  0  -0.027831  0  3.995242  0  0  -0.032652  0  4.016201  0  0  -0.009176  -0.024486  0  3.981197  0
C  C30  1  0.61717498  0.12551878  0.83373657  1  0  -0.045609  0  3.758563  0  0  -0.02788  0  3.995333  0  0  -0.032737  0  4.016355  0  0  -0.009095  -0.024557  0  3.981317  0
C  C31  1  0.11718989  0.37448039  0.16626618  1  0  -0.045464  0  3.758718  0  0  -0.027754  0  3.995457  0  0  -0.032604  0  4.016465  0  0  -0.008988  -0.024408  0  3.98141  0
C  C32  1  0.52386715  0.78098913  0.15830491  1  0  -0.101884  0  3.690613  0  0  -0.126641  0  3.942342  0  0  -0.130566  0  3.963614  0  0  -0.076827  -0.124095  0  3.927997  0
C  C33  1  0.02387253  0.71901724  0.84167866  1  0  -0.101762  0  3.690597  0  0  -0.126475  0  3.942322  0  0  -0.130388  0  3.963585  0  0  -0.076647  -0.123944  0  3.927994  0
C  C34  1  0.47612434  0.21902852  0.84170239  1  0  -0.101673  0  3.690015  0  0  -0.126409  0  3.941645  0  0  -0.130331  0  3.962922  0  0  -0.076654  -0.123867  0  3.927307  0
C  C35  1  0.97616622  0.28097592  0.15831616  1  0  -0.101714  0  3.690906  0  0  -0.126451  0  3.94255  0  0  -0.130362  0  3.963829  0  0  -0.076758  -0.123925  0  3.928228  0
C  C36  1  0.49454105  0.73954743  0.23538925  1  0  0.119379  0  3.660999  0  0  0.090478  0  3.914646  0  0  0.095305  0  3.931141  0  0  0.038907  0.087222  0  3.904003  0
C  C37  1  0.99454832  0.76044341  0.76459577  1  0  0.11951  0  3.661  0  0  0.09053  0  3.914653  0  0  0.095346  0  3.931173  0  0  0.038877  0.087265  0  3.904034  0
C  C38  1  0.50545791  0.26046722  0.76460896  1  0  0.119172  0  3.661034  0  0  0.09048  0  3.914599  0  0  0.095305  0  3.931082  0  0  0.038883  0.087224  0  3.903963  0
C  C39  1  0.00545312  0.23953788  0.23539534  1  0  0.118922  0  3.661246  0  0  0.090142  0  3.914779  0  0  0.094942  0  3.931273  0  0  0.038688  0.086878  0  3.904167  0
C  C40  1  0.19096517  0.87391703  0.32382115  1  0  0.122052  0  3.664042  0  0  0.096399  0  3.909633  0  0  0.102227  0  3.923809  0  0  0.035393  0.092063  0  3.901665  0
C  C41  1  0.69097011  0.62606199  0.67617344  1  0  0.122159  0  3.664333  0  0  0.096257  0  3.910083  0  0  0.102105  0  3.924268  0  0  0.035242  0.091926  0  3.902108  0
C  C42  1  0.80904125  0.12609318  0.67618010  1  0  0.122154  0  3.663553  0  0  0.096501  0  3.909214  0  0  0.102316  0  3.92337  0  0  0.035418  0.092166  0  3.901253  0
C  C43  1  0.30901889  0.37391785  0.32382493  1  0  0.122057  0  3.664283  0  0  0.096365  0  3.909863  0  0  0.102171  0  3.924024  0  0  0.035332  0.092037  0  3.901888  0
C  C44  1  0.20980272  0.92072219  0.25032970  1  0  -0.105603  0  3.720221  0  0  -0.128385  0  3.965104  0  0  -0.131407  0  3.985013  0  0  -0.082215  -0.126952  0  3.952626  0
C  C45  1  0.70983511  0.57927532  0.74965710  1  0  -0.105616  0  3.720657  0  0  -0.128283  0  3.965607  0  0  -0.131311  0  3.985521  0  0  -0.08219  -0.126848  0  3.95311  0
C  C46  1  0.79017882  0.07928954  0.74967956  1  0  -0.105718  0  3.720206  0  0  -0.128472  0  3.965187  0  0  -0.131493  0  3.985109  0  0  -0.082242  -0.127036  0  3.952706  0
C  C47  1  0.29020614  0.42071267  0.25033987  1  0  -0.105738  0  3.720452  0  0  -0.128485  0  3.965373  0  0  -0.131503  0  3.985298  0  0  -0.082299  -0.127042  0  3.952875  0
I  I48  1  0.83868794  0.60748399  0.42005062  1  0  -0.325357  0  1.85009  0  0  -0.275  0  2.327573  0  0  -0.295382  0  2.287126  0  0  -0.154074  -0.259307  0  2.355287  0
I  I49  1  0.33868804  0.89250909  0.57994056  1  0  -0.325419  0  1.850036  0  0  -0.27504  0  2.327466  0  0  -0.295398  0  2.287016  0  0  -0.154107  -0.259353  0  2.35518  0
I  I50  1  0.16130603  0.39251655  0.57993984  1  0  -0.325284  0  1.850138  0  0  -0.274934  0  2.327629  0  0  -0.295323  0  2.287195  0  0  -0.154036  -0.259241  0  2.355356  0
I  I51  1  0.66128604  0.10748709  0.42006890  1  0  -0.325327  0  1.85009  0  0  -0.274991  0  2.327606  0  0  -0.295367  0  2.287176  0  0  -0.154092  -0.259307  0  2.355324  0
N  N52  1  0.33578730  0.78556759  0.31789911  1  0  -0.241205  0  3.336292  0  0  -0.169313  0  3.617411  0  0  -0.178608  0  3.625169  0  0  -0.351113  -0.164423  0  3.613  0
N  N53  1  0.83579461  0.71442176  0.68208558  1  0  -0.241102  0  3.33579  0  0  -0.169143  0  3.616959  0  0  -0.178475  0  3.624761  0  0  -0.350854  -0.164265  0  3.612545  0
N  N54  1  0.66420668  0.21444560  0.68210497  1  0  -0.24111  0  3.33619  0  0  -0.169446  0  3.617479  0  0  -0.178692  0  3.625182  0  0  -0.351181  -0.164558  0  3.613075  0
N  N55  1  0.16420435  0.28556993  0.31791303  1  0  -0.240928  0  3.335842  0  0  -0.169101  0  3.616931  0  0  -0.178334  0  3.624635  0  0  -0.350897  -0.164225  0  3.612521  0
O  O56  1  0.59642363  0.88038383  0.01481959  1  0  -0.53978  0  2.095988  0  0  -0.489245  0  2.314051  0  0  -0.511823  0  2.29778  0  0  -0.319184  -0.473779  0  2.323818  0
O  O57  1  0.09646154  0.61961072  0.98517204  1  0  -0.539658  0  2.096231  0  0  -0.489144  0  2.314111  0  0  -0.511709  0  2.297858  0  0  -0.3191  -0.473686  0  2.323883  0
O  O58  1  0.40356786  0.11963380  0.98518424  1  0  -0.539812  0  2.095884  0  0  -0.489192  0  2.31396  0  0  -0.511771  0  2.297701  0  0  -0.31899  -0.473723  0  2.323728  0
O  O59  1  0.90357473  0.38037949  0.01482758  1  0  -0.539625  0  2.096269  0  0  -0.489054  0  2.314248  0  0  -0.511619  0  2.297986  0  0  -0.319075  -0.473604  0  2.32403  0
O  O60  1  0.30553619  0.01294132  0.10205715  1  0  -0.560825  0  1.978265  0  0  -0.510683  0  2.189983  0  0  -0.531711  0  2.178307  0  0  -0.283731  -0.496734  0  2.197768  0
O  O61  1  0.80554320  0.48704527  0.89794582  1  0  -0.560974  0  1.977107  0  0  -0.510934  0  2.18868  0  0  -0.531965  0  2.177014  0  0  -0.28379  -0.496982  0  2.196453  0
O  O62  1  0.69441300  0.98706445  0.89794366  1  0  -0.561078  0  1.977993  0  0  -0.510932  0  2.189586  0  0  -0.53196  0  2.177903  0  0  -0.283877  -0.496986  0  2.197386  0
O  O63  1  0.19449805  0.51294644  0.10205557  1  0  -0.56107  0  1.976823  0  0  -0.511034  0  2.188436  0  0  -0.532067  0  2.176766  0  0  -0.283921  -0.497085  0  2.196227  0
