# generated using pymatgen
data_ZnSiH16C24N4(O2F3)2
_symmetry_space_group_name_H-M   'P 1'
_cell_length_a   7.65384972
_cell_length_b   14.00920517
_cell_length_c   14.00931149
_cell_angle_alpha   90.01662986
_cell_angle_beta   89.85661867
_cell_angle_gamma   89.85616160
_symmetry_Int_Tables_number   1
_chemical_formula_structural   ZnSiH16C24N4(O2F3)2
_chemical_formula_sum   'Zn1 Si1 H16 C24 N4 O4 F6'
_cell_volume   1502.12982965
_cell_formula_units_Z   1
loop_
 _symmetry_equiv_pos_site_id
 _symmetry_equiv_pos_as_xyz
  1  'x, y, z'
loop_
 _atom_site_type_symbol
 _atom_site_label
 _atom_site_symmetry_multiplicity
 _atom_site_fract_x
 _atom_site_fract_y
 _atom_site_fract_z
 _atom_site_occupancy
 _atom_site_pbe_bader_charge
 _atom_site_pbe_bader_spin_density
 _atom_site_pbe_cm5_charge
 _atom_site_pbe_ddec_charge
 _atom_site_pbe_ddec_spin_density
 _atom_site_pbe_ddec_sum_bond_order
 _atom_site_pbe_magmom
Zn  Zn0  1  0.50001531  0.49999655  0.50000027  1  1.378682  0  0.703296  0.751308  0  2.333457  0
Si  Si1  1  0.00001384  0.50000035  0.50000299  1  3.164081  0  0.259905  1.717493  0  3.958109  0
H  H2  1  0.22712232  0.65983160  0.49975608  1  0.185856  0  0.116044  0.10656  0  1.052911  0
H  H3  1  0.20673688  0.83628751  0.49977358  1  0.128236  0  0.113524  0.126059  0  0.98747  0
H  H4  1  0.77254241  0.66698426  0.50013893  1  0.213783  0  0.12343  0.12749  0  1.026665  0
H  H5  1  0.22748964  0.33301312  0.49980308  1  0.213388  0  0.123423  0.127337  0  1.026771  0
H  H6  1  0.77290943  0.34015581  0.50032512  1  0.185742  0  0.116032  0.106703  0  1.052656  0
H  H7  1  0.79328175  0.16369563  0.50033761  1  0.128135  0  0.113527  0.125973  0  0.987746  0
H  H8  1  0.22712733  0.49978436  0.65983494  1  0.186322  0  0.116058  0.106442  0  1.052711  0
H  H9  1  0.20673804  0.49976763  0.83628875  1  0.128287  0  0.113504  0.126005  0  0.987547  0
H  H10  1  0.77254480  0.50019029  0.66699016  1  0.213278  0  0.123482  0.127379  0  1.026725  0
H  H11  1  0.22747784  0.49986063  0.33301253  1  0.214006  0  0.123389  0.127285  0  1.026737  0
H  H12  1  0.77289692  0.50013880  0.34016417  1  0.185945  0  0.116093  0.106674  0  1.052722  0
H  H13  1  0.79327582  0.50013411  0.16370751  1  0.127648  0  0.113513  0.125941  0  0.987232  0
H  H14  1  0.78220871  0.92105293  0.50004736  1  0.577717  0  0.322916  0.347422  0  0.911935  0
H  H15  1  0.21780495  0.07894303  0.49993677  1  0.57768  0  0.322933  0.347436  0  0.911718  0
H  H16  1  0.78220002  0.50004018  0.92106193  1  0.577643  0  0.322839  0.347228  0  0.912111  0
H  H17  1  0.21780311  0.49997150  0.07894149  1  0.577672  0  0.322892  0.347332  0  0.911961  0
C  C18  1  0.34497133  0.70295704  0.49981921  1  0.456253  0  0.037489  0.065963  0  3.94195  0
C  C19  1  0.33437482  0.80168516  0.49983226  1  -0.009768  0  -0.075552  -0.141134  0  3.939662  0
C  C20  1  0.48880721  0.85589334  0.49995133  1  0.108008  0  -0.008  0.02577  0  4.156403  0
C  C21  1  0.65000990  0.80601596  0.50004775  1  0.472448  0  0.096788  0.237599  0  4.027471  0
C  C22  1  0.64934778  0.70621124  0.50007718  1  0.560199  0  0.046559  -0.013606  0  3.866749  0
C  C23  1  0.49093829  0.95657506  0.49999955  1  -0.145815  0  -0.03651  -0.102052  0  4.148404  0
C  C24  1  0.50906733  0.04341736  0.50007739  1  -0.375755  0  -0.036287  -0.101823  0  4.148426  0
C  C25  1  0.51120759  0.14409764  0.50011132  1  0.108831  0  -0.008088  0.02553  0  4.156747  0
C  C26  1  0.35000893  0.19398072  0.49996065  1  0.474237  0  0.096677  0.2375  0  4.027961  0
C  C27  1  0.35068156  0.29378329  0.49990908  1  0.560842  0  0.046454  -0.013515  0  3.866887  0
C  C28  1  0.65505392  0.29703250  0.50024701  1  0.456069  0  0.037479  0.065776  0  3.941203  0
C  C29  1  0.66563994  0.19830011  0.50025323  1  -0.010863  0  -0.075372  -0.140757  0  3.939471  0
C  C30  1  0.34497927  0.49984651  0.70296174  1  0.45588  0  0.037485  0.066038  0  3.941415  0
C  C31  1  0.33438092  0.49983746  0.80168980  1  -0.009901  0  -0.075405  -0.140903  0  3.939542  0
C  C32  1  0.48881506  0.49994477  0.85588933  1  0.108208  0  -0.00795  0.025795  0  4.156923  0
C  C33  1  0.65000426  0.50006084  0.80601840  1  0.472632  0  0.096645  0.237514  0  4.027744  0
C  C34  1  0.64935048  0.50011454  0.70621943  1  0.560882  0  0.0465  -0.01347  0  3.866569  0
C  C35  1  0.49094307  0.49994944  0.95656457  1  -0.145248  0  -0.036397  -0.102037  0  4.147303  0
C  C36  1  0.50907462  0.49998799  0.04343311  1  -0.376395  0  -0.036506  -0.102042  0  4.147256  0
C  C37  1  0.51120258  0.50000979  0.14411264  1  0.108672  0  -0.007835  0.025721  0  4.156913  0
C  C38  1  0.35000937  0.49993441  0.19398287  1  0.473234  0  0.096633  0.237406  0  4.027997  0
C  C39  1  0.35066832  0.49989927  0.29378397  1  0.560443  0  0.046502  -0.013428  0  3.866485  0
C  C40  1  0.65504101  0.50009949  0.29703595  1  0.456273  0  0.037368  0.065336  0  3.941615  0
C  C41  1  0.66563155  0.50009427  0.19830932  1  -0.010089  0  -0.075391  -0.140508  0  3.939513  0
N  N42  1  0.49974370  0.65623556  0.49996544  1  -1.248032  0  -0.308101  -0.202857  0  3.528816  0
N  N43  1  0.50028950  0.34375540  0.50005081  1  -1.247595  0  -0.307947  -0.202743  0  3.528541  0
N  N44  1  0.49974213  0.50000169  0.65624238  1  -1.248278  0  -0.308117  -0.202891  0  3.528414  0
N  N45  1  0.50027022  0.49998357  0.34375889  1  -1.248733  0  -0.307987  -0.202454  0  3.527893  0
O  O46  1  0.80606256  0.85227895  0.50011460  1  -1.088926  0  -0.339137  -0.414919  0  2.261593  0
O  O47  1  0.19395504  0.14771844  0.49986240  1  -1.09065  0  -0.33917  -0.41497  0  2.261453  0
O  O48  1  0.80605856  0.50012235  0.85228709  1  -1.089347  0  -0.339125  -0.414814  0  2.261598  0
O  O49  1  0.19395108  0.49989718  0.14771775  1  -1.089608  0  -0.339144  -0.414862  0  2.261591  0
F  F50  1  0.22905976  0.49829114  0.49829143  1  -0.813523  0  -0.189361  -0.491442  0  1.384094  0
F  F51  1  0.77096691  0.50170839  0.50171197  1  -0.813455  0  -0.189345  -0.491446  0  1.384137  0
F  F52  1  0.00000801  0.58576080  0.41423535  1  -0.822784  0  -0.235577  -0.533698  0  1.096188  0
F  F53  1  0.00001837  0.41423919  0.58576991  1  -0.822739  0  -0.23557  -0.533725  0  1.096222  0
F  F54  1  0.00238192  0.58577779  0.58577406  1  -0.824894  0  -0.235761  -0.533961  0  1.096643  0
F  F55  1  0.99764344  0.41422103  0.41423148  1  -0.824806  0  -0.235745  -0.533961  0  1.096522  0
