# generated using pymatgen
data_AgP3H34C30(SO)2
_symmetry_space_group_name_H-M   'P 1'
_cell_length_a   11.75543742
_cell_length_b   12.74776785
_cell_length_c   13.05838118
_cell_angle_alpha   60.96257382
_cell_angle_beta   77.30443676
_cell_angle_gamma   69.32782355
_symmetry_Int_Tables_number   1
_chemical_formula_structural   AgP3H34C30(SO)2
_chemical_formula_sum   'Ag2 P6 H68 C60 S4 O4'
_cell_volume   1597.93610441
_cell_formula_units_Z   2
loop_
 _symmetry_equiv_pos_site_id
 _symmetry_equiv_pos_as_xyz
  1  'x, y, z'
loop_
 _atom_site_type_symbol
 _atom_site_label
 _atom_site_symmetry_multiplicity
 _atom_site_fract_x
 _atom_site_fract_y
 _atom_site_fract_z
 _atom_site_occupancy
 _atom_site_hle17_bader_spin_density
 _atom_site_hle17_ddec_charge
 _atom_site_hle17_ddec_spin_density
 _atom_site_hle17_ddec_sum_bond_order
 _atom_site_hle17_magmom
 _atom_site_hse06_10hf_bader_spin_density
 _atom_site_hse06_10hf_ddec_charge
 _atom_site_hse06_10hf_ddec_spin_density
 _atom_site_hse06_10hf_ddec_sum_bond_order
 _atom_site_hse06_10hf_magmom
 _atom_site_hse06_bader_spin_density
 _atom_site_hse06_ddec_charge
 _atom_site_hse06_ddec_spin_density
 _atom_site_hse06_ddec_sum_bond_order
 _atom_site_hse06_magmom
 _atom_site_pbe_bader_spin_density
 _atom_site_pbe_cm5_charge
 _atom_site_pbe_ddec_charge
 _atom_site_pbe_ddec_spin_density
 _atom_site_pbe_ddec_sum_bond_order
 _atom_site_pbe_magmom
Ag  Ag0  1  0.81386245  0.80265910  0.59433557  1  0  0.0612  0  2.243647  0  0  -0.035956  0  2.772867  0  0  -0.032028  0  2.742166  0  0  0.354037  -0.037883  0  2.793207  0
Ag  Ag1  1  0.18613675  0.19734180  0.40566232  1  0  0.061186  0  2.243628  0  0  -0.035965  0  2.772867  0  0  -0.032035  0  2.742161  0  0  0.354041  -0.037903  0  2.793224  0
P  P2  1  0.74211458  0.72344401  0.85796478  1  0  0.991393  0  4.879333  0  0  0.87137  0  5.397092  0  0  0.917006  0  5.371931  0  0  0.233487  0.839889  0  5.41357  0
P  P3  1  0.25788723  0.27655691  0.14203488  1  0  0.991247  0  4.87929  0  0  0.871229  0  5.397102  0  0  0.916867  0  5.37194  0  0  0.233432  0.839724  0  5.413594  0
P  P4  1  0.67549175  0.89506980  0.43994650  1  0  0.365553  0  3.632662  0  0  0.321093  0  4.09897  0  0  0.333792  0  4.093605  0  0  -0.016233  0.312173  0  4.102964  0
P  P5  1  0.32450945  0.10493021  0.56004835  1  0  0.36557  0  3.632767  0  0  0.321085  0  4.099093  0  0  0.333787  0  4.093722  0  0  -0.016319  0.312166  0  4.103095  0
P  P6  1  0.01982572  0.81120644  0.52068179  1  0  0.360191  0  3.649492  0  0  0.315724  0  4.114336  0  0  0.328506  0  4.109927  0  0  -0.022417  0.307247  0  4.116824  0
P  P7  1  0.98017371  0.18879068  0.47932089  1  0  0.360199  0  3.649366  0  0  0.315713  0  4.114271  0  0  0.328493  0  4.109859  0  0  -0.022431  0.307248  0  4.11675  0
H  H8  1  0.50875434  0.74032926  0.83914922  1  0  0.039227  0  0.936728  0  0  0.053059  0  1.003184  0  0  0.05318  0  1.003263  0  0  0.092825  0.052925  0  1.00311  0
H  H9  1  0.49124806  0.25967261  0.16084910  1  0  0.039172  0  0.936823  0  0  0.053027  0  1.003244  0  0  0.053149  0  1.003323  0  0  0.092812  0.052887  0  1.003184  0
H  H10  1  0.47675493  0.86182898  0.88207474  1  0  0.044435  0  0.922655  0  0  0.058712  0  0.984898  0  0  0.058784  0  0.985178  0  0  0.093982  0.058599  0  0.984739  0
H  H11  1  0.52324750  0.13817574  0.11791841  1  0  0.044423  0  0.922666  0  0  0.058712  0  0.984883  0  0  0.058788  0  0.985161  0  0  0.094006  0.058597  0  0.984726  0
H  H12  1  0.32955941  0.73941937  0.98953915  1  0  0.101355  0  0.981392  0  0  0.12255  0  1.044975  0  0  0.122496  0  1.047691  0  0  0.087876  0.122577  0  1.043043  0
H  H13  1  0.67043906  0.26058998  0.01045568  1  0  0.101304  0  0.981324  0  0  0.122524  0  1.044891  0  0  0.12247  0  1.047608  0  0  0.087854  0.122549  0  1.042961  0
H  H14  1  0.43096749  0.70700254  0.09171815  1  0  0.104372  0  0.943461  0  0  0.126387  0  1.002232  0  0  0.127633  0  1.00215  0  0  0.090392  0.125477  0  1.002264  0
H  H15  1  0.56903244  0.29300777  0.90827670  1  0  0.104347  0  0.943526  0  0  0.126363  0  1.002306  0  0  0.127607  0  1.002224  0  0  0.090375  0.125451  0  1.002336  0
H  H16  1  0.44863154  0.59588343  0.03953265  1  0  0.101382  0  0.950248  0  0  0.121731  0  1.011895  0  0  0.123242  0  1.011293  0  0  0.087796  0.120511  0  1.01252  0
H  H17  1  0.55136749  0.40412403  0.96046602  1  0  0.101417  0  0.950249  0  0  0.121769  0  1.011889  0  0  0.123279  0  1.01129  0  0  0.087825  0.120553  0  1.01251  0
H  H18  1  0.88051265  0.81976927  0.93750987  1  0  0.036272  0  0.941538  0  0  0.048995  0  1.011917  0  0  0.049144  0  1.01156  0  0  0.090098  0.048816  0  1.012252  0
H  H19  1  0.11948624  0.18022970  0.06249512  1  0  0.036264  0  0.94151  0  0  0.048993  0  1.011894  0  0  0.049142  0  1.011538  0  0  0.090089  0.048817  0  1.012224  0
H  H20  1  0.76309415  0.76525556  0.04244690  1  0  0.050098  0  0.915437  0  0  0.066355  0  0.973402  0  0  0.06745  0  0.971938  0  0  0.100634  0.065524  0  0.974476  0
H  H21  1  0.23690359  0.23474436  0.95755403  1  0  0.05014  0  0.915459  0  0  0.066366  0  0.973468  0  0  0.067459  0  0.972008  0  0  0.100634  0.065536  0  0.974543  0
H  H22  1  0.95398306  0.70348344  0.14112883  1  0  0.096438  0  0.978552  0  0  0.116787  0  1.044916  0  0  0.116765  0  1.047118  0  0  0.086534  0.116796  0  1.043388  0
H  H23  1  0.04601181  0.29651736  0.85887532  1  0  0.096437  0  0.978591  0  0  0.116817  0  1.044931  0  0  0.116794  0  1.047135  0  0  0.086537  0.116827  0  1.043405  0
H  H24  1  0.03612910  0.61702224  0.06080859  1  0  0.111486  0  0.949966  0  0  0.129905  0  1.013901  0  0  0.131425  0  1.013792  0  0  0.085665  0.128747  0  1.014057  0
H  H25  1  0.96386833  0.38297577  0.93919790  1  0  0.111543  0  0.950074  0  0  0.129965  0  1.013997  0  0  0.131486  0  1.013887  0  0  0.085689  0.128808  0  1.014149  0
H  H26  1  0.91655908  0.56987014  0.16482457  1  0  0.107334  0  0.962179  0  0  0.129383  0  1.021302  0  0  0.130203  0  1.022578  0  0  0.088188  0.128745  0  1.020454  0
H  H27  1  0.08343492  0.43013065  0.83517976  1  0  0.107296  0  0.962159  0  0  0.129382  0  1.021251  0  0  0.130201  0  1.022528  0  0  0.088196  0.128742  0  1.020409  0
H  H28  1  0.75265232  0.62523356  0.54091250  1  0  0.078528  0  0.990662  0  0  0.085122  0  1.066995  0  0  0.087955  0  1.065175  0  0  0.086643  0.082973  0  1.068512  0
H  H29  1  0.24735144  0.37476365  0.45908546  1  0  0.078534  0  0.990617  0  0  0.085146  0  1.066921  0  0  0.087975  0  1.065116  0  0  0.086656  0.083026  0  1.068417  0
H  H30  1  0.70066809  0.47260562  0.50573812  1  0  0.092009  0  0.962315  0  0  0.101982  0  1.023038  0  0  0.103718  0  1.024624  0  0  0.09819  0.100752  0  1.022038  0
H  H31  1  0.29933366  0.52739250  0.49425980  1  0  0.092022  0  0.962289  0  0  0.101988  0  1.023027  0  0  0.103726  0  1.024609  0  0  0.098196  0.100759  0  1.022023  0
H  H32  1  0.53849823  0.54777750  0.37119457  1  0  0.084429  0  0.974156  0  0  0.095196  0  1.035562  0  0  0.097312  0  1.035653  0  0  0.098178  0.093697  0  1.035471  0
H  H33  1  0.46150235  0.45221870  0.62880832  1  0  0.084331  0  0.974236  0  0  0.095138  0  1.035613  0  0  0.097229  0  1.03573  0  0  0.09813  0.093637  0  1.035517  0
H  H34  1  0.42796797  0.77550979  0.27218354  1  0  0.084012  0  0.960458  0  0  0.095021  0  1.020349  0  0  0.097691  0  1.019573  0  0  0.096936  0.092913  0  1.021306  0
H  H35  1  0.57203548  0.22448552  0.72781690  1  0  0.084059  0  0.960381  0  0  0.09509  0  1.02025  0  0  0.097744  0  1.019492  0  0  0.096977  0.092983  0  1.021211  0
H  H36  1  0.48199824  0.92761195  0.30334882  1  0  0.087285  0  1.003409  0  0  0.097445  0  1.069861  0  0  0.100178  0  1.068756  0  0  0.085842  0.095534  0  1.070626  0
H  H37  1  0.51800785  0.07238624  0.69664591  1  0  0.087309  0  1.003431  0  0  0.097493  0  1.069857  0  0  0.100226  0  1.068752  0  0  0.085826  0.095581  0  1.070621  0
H  H38  1  0.75485631  0.83544749  0.23613892  1  0  0.089967  0  0.967799  0  0  0.103083  0  1.023351  0  0  0.105308  0  1.023655  0  0  0.099145  0.101439  0  1.023293  0
H  H39  1  0.24514813  0.16455633  0.76385350  1  0  0.08998  0  0.967831  0  0  0.103096  0  1.023385  0  0  0.105315  0  1.023687  0  0  0.099165  0.10145  0  1.023328  0
H  H40  1  0.86735027  0.93273497  0.04747444  1  0  0.077982  0  0.97598  0  0  0.090343  0  1.037848  0  0  0.092673  0  1.036957  0  0  0.098168  0.088581  0  1.038732  0
H  H41  1  0.13265313  0.06727539  0.95251893  1  0  0.077987  0  0.975917  0  0  0.090379  0  1.037764  0  0  0.092709  0  1.036873  0  0  0.098172  0.088618  0  1.038647  0
H  H42  1  0.93116583  0.11859349  0.99940172  1  0  0.081253  0  0.978239  0  0  0.091888  0  1.043225  0  0  0.093902  0  1.04324  0  0  0.097725  0.09037  0  1.043477  0
H  H43  1  0.06883411  0.88141678  0.00059927  1  0  0.081244  0  0.97818  0  0  0.091853  0  1.043201  0  0  0.093872  0  1.043213  0  0  0.097702  0.090333  0  1.043452  0
H  H44  1  0.87733188  0.20995445  0.14117435  1  0  0.085661  0  0.974109  0  0  0.098445  0  1.031958  0  0  0.100316  0  1.032559  0  0  0.098821  0.097075  0  1.031644  0
H  H45  1  0.12266249  0.79005103  0.85883230  1  0  0.085638  0  0.974053  0  0  0.098437  0  1.031886  0  0  0.100307  0  1.032486  0  0  0.098819  0.097069  0  1.031578  0
H  H46  1  0.76212065  0.11645772  0.32765819  1  0  0.081132  0  0.984904  0  0  0.091893  0  1.050774  0  0  0.093633  0  1.051613  0  0  0.095021  0.090602  0  1.050313  0
H  H47  1  0.23787444  0.88353933  0.67234615  1  0  0.081158  0  0.984796  0  0  0.091942  0  1.050647  0  0  0.093682  0  1.051485  0  0  0.095032  0.09065  0  1.050189  0
H  H48  1  0.99497257  0.61474293  0.48839215  1  0  0.078463  0  0.969472  0  0  0.088597  0  1.038641  0  0  0.091627  0  1.036259  0  0  0.094056  0.086331  0  1.040552  0
H  H49  1  0.00502232  0.38526073  0.51160606  1  0  0.078469  0  0.969453  0  0  0.088613  0  1.038604  0  0  0.091642  0  1.036225  0  0  0.094043  0.086346  0  1.040508  0
H  H50  1  0.07565205  0.53807353  0.33552925  1  0  0.085181  0  0.961818  0  0  0.098874  0  1.020574  0  0  0.101402  0  1.019369  0  0  0.095656  0.096991  0  1.021587  0
H  H51  1  0.92434514  0.46192827  0.66447014  1  0  0.085155  0  0.961819  0  0  0.09887  0  1.020556  0  0  0.101411  0  1.019335  0  0  0.095642  0.096987  0  1.021572  0
H  H52  1  0.20181463  0.64646403  0.16379171  1  0  0.090867  0  0.966384  0  0  0.102488  0  1.027141  0  0  0.104948  0  1.02653  0  0  0.096683  0.10074  0  1.027586  0
H  H53  1  0.79818572  0.35353593  0.83620869  1  0  0.090876  0  0.96636  0  0  0.102504  0  1.027112  0  0  0.104965  0  1.026501  0  0  0.096676  0.100754  0  1.027559  0
H  H54  1  0.24255760  0.83693743  0.13969056  1  0  0.082721  0  0.961547  0  0  0.095263  0  1.020524  0  0  0.097854  0  1.019773  0  0  0.099899  0.093445  0  1.021102  0
H  H55  1  0.75744444  0.16305972  0.86031236  1  0  0.082722  0  0.961519  0  0  0.095245  0  1.02051  0  0  0.097836  0  1.019759  0  0  0.0999  0.093428  0  1.021088  0
H  H56  1  0.16373756  0.91371384  0.28966289  1  0  0.088103  0  0.984267  0  0  0.097731  0  1.051206  0  0  0.100325  0  1.050054  0  0  0.091387  0.095843  0  1.052143  0
H  H57  1  0.83626649  0.08628240  0.71034005  1  0  0.088088  0  0.984272  0  0  0.097712  0  1.051201  0  0  0.100305  0  1.050051  0  0  0.091381  0.095827  0  1.052144  0
H  H58  1  0.28641313  0.78194797  0.47892924  1  0  0.08553  0  0.971338  0  0  0.096474  0  1.036819  0  0  0.098167  0  1.03754  0  0  0.096168  0.095233  0  1.036422  0
H  H59  1  0.71358685  0.21804728  0.52107268  1  0  0.085481  0  0.971374  0  0  0.096462  0  1.036814  0  0  0.098154  0  1.037536  0  0  0.096159  0.095221  0  1.036419  0
H  H60  1  0.45428147  0.66807881  0.61325700  1  0  0.085836  0  0.972051  0  0  0.096149  0  1.034452  0  0  0.098032  0  1.035314  0  0  0.097132  0.095011  0  1.033608  0
H  H61  1  0.54571910  0.33191739  0.38674512  1  0  0.085875  0  0.972017  0  0  0.096158  0  1.034441  0  0  0.098039  0  1.035308  0  0  0.097143  0.09503  0  1.033598  0
H  H62  1  0.41235090  0.54387744  0.82785434  1  0  0.08759  0  0.958193  0  0  0.100006  0  1.01551  0  0  0.102829  0  1.014139  0  0  0.101641  0.097913  0  1.016664  0
H  H63  1  0.58764967  0.45611875  0.17214932  1  0  0.087596  0  0.958248  0  0  0.100017  0  1.015548  0  0  0.102839  0  1.01418  0  0  0.101647  0.097924  0  1.016701  0
H  H64  1  0.20151296  0.53495088  0.90653677  1  0  0.102539  0  0.955888  0  0  0.109048  0  1.020234  0  0  0.112656  0  1.01805  0  0  0.102346  0.106394  0  1.021953  0
H  H65  1  0.79848757  0.46504250  0.09346592  1  0  0.102561  0  0.955905  0  0  0.109067  0  1.020246  0  0  0.112675  0  1.018063  0  0  0.102358  0.106411  0  1.021963  0
H  H66  1  0.03122939  0.65300420  0.77215683  1  0  0.091348  0  0.976839  0  0  0.094003  0  1.054919  0  0  0.097461  0  1.052598  0  0  0.094652  0.091552  0  1.056523  0
H  H67  1  0.96877228  0.34698825  0.22784607  1  0  0.091264  0  0.97699  0  0  0.093957  0  1.055009  0  0  0.097414  0  1.05269  0  0  0.094662  0.091507  0  1.056612  0
H  H68  1  0.57058402  0.09831038  0.43073011  1  0  0.10395  0  0.939614  0  0  0.123724  0  0.995839  0  0  0.124508  0  0.997377  0  0  0.1  0.123066  0  0.994968  0
H  H69  1  0.42941306  0.90168579  0.56926812  1  0  0.104012  0  0.939548  0  0  0.123785  0  0.995762  0  0  0.124567  0  0.997301  0  0  0.100024  0.123129  0  0.994895  0
H  H70  1  0.48309867  0.05908054  0.36690573  1  0  0.098659  0  0.974113  0  0  0.110015  0  1.046933  0  0  0.111425  0  1.047554  0  0  0.090318  0.108834  0  1.046814  0
H  H71  1  0.51690130  0.94091474  0.63309312  1  0  0.098721  0  0.974077  0  0  0.110076  0  1.046901  0  0  0.111488  0  1.047515  0  0  0.090332  0.108901  0  1.046775  0
H  H72  1  0.12022472  0.97776241  0.42667546  1  0  0.096796  0  0.977642  0  0  0.11239  0  1.044172  0  0  0.114197  0  1.043388  0  0  0.085356  0.110993  0  1.044981  0
H  H73  1  0.87977700  0.02223285  0.57332918  1  0  0.096778  0  0.977597  0  0  0.112389  0  1.044119  0  0  0.114194  0  1.043331  0  0  0.085342  0.110992  0  1.044931  0
H  H74  1  0.97326718  0.02716063  0.37724972  1  0  0.105004  0  0.953493  0  0  0.124024  0  1.010982  0  0  0.124619  0  1.01325  0  0  0.097975  0.123488  0  1.009662  0
H  H75  1  0.02673372  0.97283745  0.62275222  1  0  0.104992  0  0.95351  0  0  0.123999  0  1.011022  0  0  0.124591  0  1.01329  0  0  0.097969  0.123464  0  1.009706  0
C  C76  1  0.50620111  0.75954445  0.91346880  1  0  0.178536  0  3.623364  0  0  0.126696  0  3.888118  0  0  0.135209  0  3.894845  0  0  -0.066301  0.121005  0  3.883371  0
C  C77  1  0.49380074  0.24045930  0.08652799  1  0  0.178623  0  3.623306  0  0  0.126814  0  3.888005  0  0  0.135325  0  3.894737  0  0  -0.066268  0.121117  0  3.883252  0
C  C78  1  0.42425586  0.69635548  0.01483878  1  0  -0.318371  0  3.71214  0  0  -0.396162  0  3.957633  0  0  -0.39877  0  3.967008  0  0  -0.247506  -0.394116  0  3.951075  0
C  C79  1  0.57574261  0.30365386  0.98515758  1  0  -0.318337  0  3.712085  0  0  -0.396186  0  3.957635  0  0  -0.398791  0  3.967008  0  0  -0.247503  -0.394144  0  3.951084  0
C  C80  1  0.85470863  0.73539371  0.00433815  1  0  0.177343  0  3.608258  0  0  0.120708  0  3.880155  0  0  0.129813  0  3.885583  0  0  -0.066725  0.11452  0  3.876327  0
C  C81  1  0.14529085  0.26460623  0.99566320  1  0  0.177326  0  3.608301  0  0  0.120669  0  3.880248  0  0  0.129776  0  3.885675  0  0  -0.06671  0.114482  0  3.876419  0
C  C82  1  0.94572486  0.65143731  0.09769133  1  0  -0.323836  0  3.708256  0  0  -0.398974  0  3.950093  0  0  -0.401959  0  3.959977  0  0  -0.252403  -0.396686  0  3.943235  0
C  C83  1  0.05427114  0.34856257  0.90231303  1  0  -0.323867  0  3.708473  0  0  -0.399039  0  3.950266  0  0  -0.402024  0  3.960151  0  0  -0.252431  -0.396752  0  3.943414  0
C  C84  1  0.62186477  0.78625319  0.42430195  1  0  -0.110481  0  3.77256  0  0  -0.069393  0  4.00653  0  0  -0.075613  0  4.032836  0  0  -0.030661  -0.065279  0  3.988792  0
C  C85  1  0.37813868  0.21374213  0.57569695  1  0  -0.110662  0  3.772866  0  0  -0.069502  0  4.006741  0  0  -0.075722  0  4.033047  0  0  -0.030647  -0.065388  0  3.989008  0
C  C86  1  0.68226687  0.65772675  0.48124403  1  0  -0.08389  0  3.766832  0  0  -0.101594  0  4.004398  0  0  -0.102663  0  4.026454  0  0  -0.089589  -0.100683  0  3.989571  0
C  C87  1  0.31773690  0.34227045  0.51875316  1  0  -0.083849  0  3.766743  0  0  -0.101587  0  4.004316  0  0  -0.102656  0  4.026368  0  0  -0.0896  -0.100708  0  3.989479  0
C  C88  1  0.65256322  0.57219626  0.46184808  1  0  -0.073607  0  3.760516  0  0  -0.082398  0  4.001096  0  0  -0.08564  0  4.023547  0  0  -0.091198  -0.080282  0  3.985764  0
C  C89  1  0.34744050  0.42779811  0.53815275  1  0  -0.073585  0  3.760372  0  0  -0.082364  0  4.000958  0  0  -0.085604  0  4.0234  0  0  -0.091244  -0.080248  0  3.985632  0
C  C90  1  0.56149115  0.61460603  0.38623902  1  0  -0.054496  0  3.755161  0  0  -0.068884  0  3.998253  0  0  -0.069041  0  4.018929  0  0  -0.085103  -0.068533  0  3.984017  0
C  C91  1  0.43851198  0.38538738  0.61376314  1  0  -0.054414  0  3.755328  0  0  -0.068842  0  3.998421  0  0  -0.068977  0  4.019103  0  0  -0.085004  -0.068488  0  3.984182  0
C  C92  1  0.49979878  0.74227714  0.33056583  1  0  -0.072492  0  3.767657  0  0  -0.080946  0  4.010717  0  0  -0.08397  0  4.031853  0  0  -0.090499  -0.078826  0  3.996476  0
C  C93  1  0.50020379  0.25771816  0.66943325  1  0  -0.072571  0  3.767689  0  0  -0.081046  0  4.010787  0  0  -0.084054  0  4.031919  0  0  -0.090567  -0.078925  0  3.996548  0
C  C94  1  0.53008063  0.82805627  0.34884886  1  0  -0.074226  0  3.741291  0  0  -0.093963  0  3.979608  0  0  -0.095067  0  4.00155  0  0  -0.08808  -0.093075  0  3.964544  0
C  C95  1  0.46992395  0.17193814  0.65114719  1  0  -0.074151  0  3.741414  0  0  -0.093931  0  3.979717  0  0  -0.095036  0  4.001656  0  0  -0.088028  -0.093039  0  3.964646  0
C  C96  1  0.74987427  0.96904943  0.29543186  1  0  -0.098606  0  3.745286  0  0  -0.059122  0  3.984253  0  0  -0.064474  0  4.010064  0  0  -0.026533  -0.055586  0  3.966791  0
C  C97  1  0.25012345  0.03095051  0.70456524  1  0  -0.098602  0  3.74529  0  0  -0.059122  0  3.984267  0  0  -0.064475  0  4.010078  0  0  -0.026538  -0.05557  0  3.96678  0
C  C98  1  0.78109972  0.91778752  0.21563490  1  0  -0.078625  0  3.756914  0  0  -0.097109  0  3.994305  0  0  -0.098778  0  4.017444  0  0  -0.087548  -0.095832  0  3.978546  0
C  C99  1  0.21889842  0.08221996  0.78435858  1  0  -0.078555  0  3.756615  0  0  -0.097033  0  3.994024  0  0  -0.098693  0  4.017154  0  0  -0.087465  -0.095761  0  3.978266  0
C  C100  1  0.84566038  0.97192157  0.10971132  1  0  -0.075055  0  3.787523  0  0  -0.086152  0  4.03285  0  0  -0.088598  0  4.054792  0  0  -0.093043  -0.08439  0  4.018012  0
C  C101  1  0.15433868  0.02808873  0.89028371  1  0  -0.075153  0  3.787124  0  0  -0.086288  0  4.032481  0  0  -0.088736  0  4.05442  0  0  -0.093138  -0.084528  0  4.017644  0
C  C102  1  0.88149573  0.07632733  0.08261911  1  0  -0.075697  0  3.781355  0  0  -0.090302  0  4.028791  0  0  -0.091545  0  4.050011  0  0  -0.093768  -0.08954  0  4.014621  0
C  C103  1  0.11850160  0.92368292  0.91738012  1  0  -0.075713  0  3.781373  0  0  -0.090293  0  4.028811  0  0  -0.09154  0  4.050034  0  0  -0.093773  -0.08952  0  4.014633  0
C  C104  1  0.85109115  0.12769164  0.16163542  1  0  -0.072692  0  3.776614  0  0  -0.083653  0  4.019066  0  0  -0.085793  0  4.040295  0  0  -0.09234  -0.082205  0  4.004743  0
C  C105  1  0.14890006  0.87231569  0.83836792  1  0  -0.072498  0  3.776556  0  0  -0.083455  0  4.019011  0  0  -0.085594  0  4.040238  0  0  -0.092232  -0.082018  0  4.004701  0
C  C106  1  0.78541207  0.07483710  0.26711365  1  0  -0.082481  0  3.749545  0  0  -0.099398  0  3.989002  0  0  -0.100975  0  4.011496  0  0  -0.088888  -0.098227  0  3.973809  0
C  C107  1  0.21458105  0.92516368  0.73289009  1  0  -0.082612  0  3.749514  0  0  -0.099565  0  3.989006  0  0  -0.101145  0  4.011503  0  0  -0.088946  -0.098395  0  3.973814  0
C  C108  1  0.07647991  0.76680382  0.40142425  1  0  -0.097704  0  3.757538  0  0  -0.057782  0  3.992508  0  0  -0.06345  0  4.018972  0  0  -0.026295  -0.054193  0  3.974749  0
C  C109  1  0.92351929  0.23319706  0.59857595  1  0  -0.097746  0  3.757561  0  0  -0.057826  0  3.992538  0  0  -0.063493  0  4.019001  0  0  -0.026325  -0.054238  0  3.97478  0
C  C110  1  0.05106702  0.66191611  0.41245979  1  0  -0.080942  0  3.76319  0  0  -0.098647  0  4.002589  0  0  -0.100205  0  4.025058  0  0  -0.086527  -0.097632  0  3.987666  0
C  C111  1  0.94893016  0.33808569  0.58754037  1  0  -0.08095  0  3.763135  0  0  -0.09866  0  4.002532  0  0  -0.100221  0  4.025008  0  0  -0.08649  -0.097638  0  3.987598  0
C  C112  1  0.09599274  0.61909331  0.32729840  1  0  -0.068774  0  3.767636  0  0  -0.076528  0  4.004499  0  0  -0.079399  0  4.027014  0  0  -0.091772  -0.074411  0  3.989185  0
C  C113  1  0.90400473  0.38090755  0.67270215  1  0  -0.068668  0  3.767547  0  0  -0.076437  0  4.004405  0  0  -0.079317  0  4.02692  0  0  -0.091732  -0.074321  0  3.989091  0
C  C114  1  0.16644605  0.68098718  0.22969030  1  0  -0.06342  0  3.753011  0  0  -0.077109  0  3.996259  0  0  -0.07798  0  4.017532  0  0  -0.088334  -0.07645  0  3.981579  0
C  C115  1  0.83355141  0.31901369  0.77030872  1  0  -0.063511  0  3.753052  0  0  -0.077212  0  3.996307  0  0  -0.078084  0  4.017583  0  0  -0.088352  -0.076549  0  3.981623  0
C  C116  1  0.18966456  0.78697522  0.21688730  1  0  -0.081194  0  3.783837  0  0  -0.094091  0  4.034084  0  0  -0.09709  0  4.056081  0  0  -0.093097  -0.091938  0  4.019108  0
C  C117  1  0.81033721  0.21302287  0.78311447  1  0  -0.081126  0  3.783848  0  0  -0.094005  0  4.034102  0  0  -0.097003  0  4.056097  0  0  -0.093078  -0.091848  0  4.019125  0
C  C118  1  0.14489309  0.83026651  0.30200777  1  0  -0.072591  0  3.74157  0  0  -0.092057  0  3.982561  0  0  -0.093127  0  4.004911  0  0  -0.086341  -0.091192  0  3.96759  0
C  C119  1  0.85510840  0.16973252  0.69799361  1  0  -0.072627  0  3.741621  0  0  -0.092089  0  3.982604  0  0  -0.093156  0  4.004948  0  0  -0.086346  -0.091229  0  3.967646  0
C  C120  1  0.14712939  0.72557995  0.61704049  1  0  -0.102061  0  3.755619  0  0  -0.060824  0  3.988616  0  0  -0.067601  0  4.01671  0  0  -0.027832  -0.056324  0  3.969377  0
C  C121  1  0.85287032  0.27441623  0.38296258  1  0  -0.101978  0  3.755625  0  0  -0.060748  0  3.988624  0  0  -0.067526  0  4.016719  0  0  -0.027834  -0.056248  0  3.96939  0
C  C122  1  0.26669109  0.72934446  0.57273896  1  0  -0.081365  0  3.753506  0  0  -0.100016  0  3.994103  0  0  -0.101245  0  4.016836  0  0  -0.088273  -0.098974  0  3.978596  0
C  C123  1  0.73330715  0.27065076  0.42726409  1  0  -0.081326  0  3.753397  0  0  -0.099993  0  3.993962  0  0  -0.101221  0  4.016694  0  0  -0.088261  -0.098954  0  3.978466  0
C  C124  1  0.36165547  0.66492068  0.64839287  1  0  -0.083847  0  3.780331  0  0  -0.092844  0  4.025938  0  0  -0.095318  0  4.047039  0  0  -0.09236  -0.091203  0  4.011299  0
C  C125  1  0.63834396  0.33507644  0.35160828  1  0  -0.083905  0  3.78027  0  0  -0.092879  0  4.025893  0  0  -0.095355  0  4.046998  0  0  -0.09236  -0.091252  0  4.011273  0
C  C126  1  0.33811190  0.59537569  0.76870108  1  0  -0.057729  0  3.74371  0  0  -0.071044  0  3.987206  0  0  -0.071933  0  4.007351  0  0  -0.083603  -0.070229  0  3.973335  0
C  C127  1  0.66188812  0.40462239  0.23129950  1  0  -0.057742  0  3.743693  0  0  -0.07106  0  3.987186  0  0  -0.071947  0  4.007327  0  0  -0.083615  -0.07024  0  3.973306  0
C  C128  1  0.21974012  0.59053993  0.81313757  1  0  -0.060431  0  3.733518  0  0  -0.071438  0  3.97864  0  0  -0.073783  0  3.999132  0  0  -0.08618  -0.069737  0  3.964611  0
C  C129  1  0.78026274  0.40945442  0.18686496  1  0  -0.060434  0  3.733529  0  0  -0.071425  0  3.978636  0  0  -0.073771  0  3.999126  0  0  -0.086164  -0.069721  0  3.964598  0
C  C130  1  0.12417435  0.65597631  0.73757507  1  0  -0.082025  0  3.746348  0  0  -0.098474  0  3.98575  0  0  -0.09971  0  4.007466  0  0  -0.084023  -0.097421  0  3.970793  0
C  C131  1  0.87582705  0.34401708  0.26242744  1  0  -0.082002  0  3.74657  0  0  -0.098465  0  3.985972  0  0  -0.0997  0  4.007689  0  0  -0.084057  -0.097419  0  3.971015  0
C  C132  1  0.53779237  0.02226704  0.44198842  1  0  -0.246808  0  3.64798  0  0  -0.266758  0  3.893379  0  0  -0.271236  0  3.906478  0  0  -0.166292  -0.263485  0  3.88458  0
C  C133  1  0.46220472  0.97772913  0.55801211  1  0  -0.246982  0  3.648003  0  0  -0.266952  0  3.893449  0  0  -0.271426  0  3.906544  0  0  -0.166331  -0.263696  0  3.884664  0
C  C134  1  0.02623746  0.97322771  0.45591173  1  0  -0.256571  0  3.676326  0  0  -0.277293  0  3.919915  0  0  -0.281661  0  3.932439  0  0  -0.172576  -0.274316  0  3.911616  0
C  C135  1  0.97376371  0.02676943  0.54409137  1  0  -0.256499  0  3.676189  0  0  -0.277224  0  3.919735  0  0  -0.281577  0  3.932245  0  0  -0.172521  -0.274259  0  3.911445  0
S  S136  1  0.76696808  0.61086603  0.78555186  1  0  -0.546276  0  2.00072  0  0  -0.497647  0  2.35619  0  0  -0.515816  0  2.341325  0  0  -0.226084  -0.484885  0  2.366004  0
S  S137  1  0.23303313  0.38913394  0.21444913  1  0  -0.546253  0  2.000704  0  0  -0.497629  0  2.356197  0  0  -0.515795  0  2.341325  0  0  -0.22609  -0.484863  0  2.366022  0
S  S138  1  0.72528822  0.90357758  0.74682620  1  0  -0.580922  0  2.000616  0  0  -0.529935  0  2.353897  0  0  -0.546816  0  2.337451  0  0  -0.228547  -0.518163  0  2.364869  0
S  S139  1  0.27471559  0.09642243  0.25317272  1  0  -0.580872  0  2.000575  0  0  -0.52987  0  2.353839  0  0  -0.54675  0  2.337394  0  0  -0.228517  -0.518094  0  2.364817  0
O  O140  1  0.62805959  0.71038136  0.95432144  1  0  -0.454045  0  2.264764  0  0  -0.369455  0  2.509973  0  0  -0.391368  0  2.505553  0  0  -0.220841  -0.354309  0  2.512603  0
O  O141  1  0.37193998  0.28962424  0.04567494  1  0  -0.453996  0  2.264663  0  0  -0.369462  0  2.509901  0  0  -0.39138  0  2.505492  0  0  -0.220826  -0.354275  0  2.512504  0
O  O142  1  0.84998991  0.66530278  0.94477698  1  0  -0.440187  0  2.253235  0  0  -0.352718  0  2.49819  0  0  -0.374745  0  2.493714  0  0  -0.211656  -0.337325  0  2.5008  0
O  O143  1  0.15001016  0.33469811  0.05522380  1  0  -0.440171  0  2.25316  0  0  -0.352685  0  2.49811  0  0  -0.374712  0  2.493633  0  0  -0.211688  -0.337291  0  2.500727  0
