# generated using pymatgen
data_CdH10(C2O)8
_symmetry_space_group_name_H-M   'P 1'
_cell_length_a   5.87906547
_cell_length_b   7.33169924
_cell_length_c   18.61323136
_cell_angle_alpha   94.92291705
_cell_angle_beta   94.56598739
_cell_angle_gamma   96.29148105
_symmetry_Int_Tables_number   1
_chemical_formula_structural   CdH10(C2O)8
_chemical_formula_sum   'Cd2 H20 C32 O16'
_cell_volume   791.30642010
_cell_formula_units_Z   2
loop_
 _symmetry_equiv_pos_site_id
 _symmetry_equiv_pos_as_xyz
  1  'x, y, z'
loop_
 _atom_site_type_symbol
 _atom_site_label
 _atom_site_symmetry_multiplicity
 _atom_site_fract_x
 _atom_site_fract_y
 _atom_site_fract_z
 _atom_site_occupancy
 _atom_site_hle17_bader_spin_density
 _atom_site_hle17_ddec_charge
 _atom_site_hle17_ddec_spin_density
 _atom_site_hle17_ddec_sum_bond_order
 _atom_site_hle17_magmom
 _atom_site_hse06_10hf_bader_spin_density
 _atom_site_hse06_10hf_ddec_charge
 _atom_site_hse06_10hf_ddec_spin_density
 _atom_site_hse06_10hf_ddec_sum_bond_order
 _atom_site_hse06_10hf_magmom
 _atom_site_hse06_bader_spin_density
 _atom_site_hse06_ddec_charge
 _atom_site_hse06_ddec_spin_density
 _atom_site_hse06_ddec_sum_bond_order
 _atom_site_hse06_magmom
 _atom_site_pbe_bader_spin_density
 _atom_site_pbe_cm5_charge
 _atom_site_pbe_ddec_charge
 _atom_site_pbe_ddec_spin_density
 _atom_site_pbe_ddec_sum_bond_order
 _atom_site_pbe_magmom
Cd  Cd0  1  0.98672250  0.73807248  0.95685832  1  0  1.300083  0  1.569839  0  0  1.127415  0  2.017896  0  0  1.187419  0  1.9533  0  0  0.790696  1.084064  0  2.062701  0
Cd  Cd1  1  0.01330496  0.26192948  0.04314355  1  0  1.300071  0  1.569844  0  0  1.127363  0  2.017908  0  0  1.18737  0  1.953313  0  0  0.790699  1.084009  0  2.062714  0
H  H2  1  0.91432077  0.94008309  0.25386980  1  0  0.115331  0  0.93239  0  0  0.121472  0  0.996409  0  0  0.126142  0  0.99271  0  0  0.111523  0.118067  0  0.999199  0
H  H3  1  0.08569093  0.05991629  0.74613428  1  0  0.11526  0  0.932442  0  0  0.121429  0  0.996444  0  0  0.126097  0  0.992745  0  0  0.111501  0.118017  0  0.99923  0
H  H4  1  0.12975627  0.59878894  0.20064161  1  0  0.123528  0  0.941842  0  0  0.128493  0  1.010463  0  0  0.133028  0  1.007014  0  0  0.1107  0.12519  0  1.013066  0
H  H5  1  0.87025695  0.40120871  0.79935817  1  0  0.123453  0  0.941892  0  0  0.128446  0  1.010479  0  0  0.132981  0  1.007031  0  0  0.110681  0.125145  0  1.013079  0
H  H6  1  0.06652094  0.58319846  0.46234159  1  0  0.094617  0  0.971091  0  0  0.101986  0  1.03974  0  0  0.104829  0  1.038237  0  0  0.105587  0.099948  0  1.040849  0
H  H7  1  0.93343974  0.41678838  0.53764420  1  0  0.094659  0  0.971203  0  0  0.102019  0  1.039856  0  0  0.10486  0  1.038349  0  0  0.105604  0.099951  0  1.041005  0
H  H8  1  0.23387741  0.65131252  0.59127347  1  0  0.10363  0  0.934509  0  0  0.1139  0  0.992096  0  0  0.117262  0  0.989993  0  0  0.107445  0.111373  0  0.993799  0
H  H9  1  0.76606224  0.34868298  0.40871732  1  0  0.103645  0  0.934457  0  0  0.113907  0  0.992055  0  0  0.117281  0  0.989939  0  0  0.10749  0.111386  0  0.99376  0
H  H10  1  0.86183316  0.89750075  0.51669062  1  0  0.108889  0  0.975428  0  0  0.112362  0  1.047601  0  0  0.116658  0  1.043875  0  0  0.10592  0.109246  0  1.050351  0
H  H11  1  0.13813029  0.10248344  0.48331293  1  0  0.108852  0  0.975666  0  0  0.112391  0  1.047739  0  0  0.116679  0  1.044029  0  0  0.105893  0.109279  0  1.05048  0
H  H12  1  0.63903909  0.80423034  0.61693792  1  0  0.096116  0  0.926161  0  0  0.108975  0  0.978452  0  0  0.111929  0  0.977474  0  0  0.106595  0.106791  0  0.979325  0
H  H13  1  0.36089298  0.19577278  0.38306197  1  0  0.096165  0  0.925907  0  0  0.109018  0  0.978203  0  0  0.111985  0  0.977224  0  0  0.106595  0.10683  0  0.979081  0
H  H14  1  0.24977970  0.47183709  0.91215680  1  0  0.419574  0  0.878765  0  0  0.386282  0  0.951954  0  0  0.39669  0  0.937104  0  0  0.288784  0.378873  0  0.962508  0
H  H15  1  0.75023753  0.52816457  0.08784156  1  0  0.419576  0  0.878753  0  0  0.386287  0  0.951946  0  0  0.396697  0  0.937092  0  0  0.288766  0.378879  0  0.96249  0
H  H16  1  0.37232404  0.65941283  0.88763219  1  0  0.433112  0  0.860367  0  0  0.403946  0  0.919439  0  0  0.414708  0  0.903979  0  0  0.288598  0.39628  0  0.930436  0
H  H17  1  0.62769982  0.34058766  0.11236847  1  0  0.43296  0  0.860559  0  0  0.403829  0  0.919562  0  0  0.414592  0  0.904104  0  0  0.288483  0.396164  0  0.930557  0
H  H18  1  0.64105886  0.93370418  0.91183733  1  0  0.42825  0  0.879418  0  0  0.390828  0  0.953526  0  0  0.402563  0  0.936854  0  0  0.288498  0.382521  0  0.965302  0
H  H19  1  0.35896557  0.06630052  0.08816451  1  0  0.428318  0  0.879329  0  0  0.390912  0  0.95341  0  0  0.402646  0  0.936739  0  0  0.288478  0.382606  0  0.965185  0
H  H20  1  0.68635715  0.81497785  0.84093902  1  0  0.426223  0  0.806494  0  0  0.413378  0  0.849546  0  0  0.420109  0  0.843477  0  0  0.330051  0.408605  0  0.853949  0
H  H21  1  0.31366972  0.18502010  0.15906435  1  0  0.426207  0  0.806493  0  0  0.413367  0  0.849558  0  0  0.420097  0  0.843489  0  0  0.33006  0.408595  0  0.853962  0
C  C22  1  0.74293015  0.86550265  0.24145255  1  0  -0.055225  0  3.67162  0  0  -0.089824  0  3.924646  0  0  -0.089578  0  3.941621  0  0  -0.065151  -0.089911  0  3.913249  0
C  C23  1  0.25708097  0.13449238  0.75854873  1  0  -0.055009  0  3.671691  0  0  -0.089677  0  3.924716  0  0  -0.089432  0  3.941699  0  0  -0.065078  -0.08975  0  3.913306  0
C  C24  1  0.64755121  0.82865812  0.17017620  1  0  -0.054667  0  3.708998  0  0  -0.042065  0  3.948226  0  0  -0.045868  0  3.966  0  0  -0.00261  -0.039728  0  3.936535  0
C  C25  1  0.35246015  0.17135091  0.82982807  1  0  -0.054827  0  3.709116  0  0  -0.042103  0  3.948256  0  0  -0.045908  0  3.966029  0  0  -0.002646  -0.039766  0  3.936562  0
C  C26  1  0.42393170  0.73479990  0.15531936  1  0  -0.054723  0  3.713158  0  0  -0.040825  0  3.951984  0  0  -0.044539  0  3.969975  0  0  -0.003301  -0.03861  0  3.94021  0
C  C27  1  0.57607626  0.26520871  0.84467997  1  0  -0.054916  0  3.713445  0  0  -0.04105  0  3.952256  0  0  -0.044763  0  3.970236  0  0  -0.003337  -0.03883  0  3.940486  0
C  C28  1  0.30239267  0.67274470  0.21164905  1  0  -0.074198  0  3.658485  0  0  -0.107483  0  3.908918  0  0  -0.108014  0  3.927092  0  0  -0.070963  -0.107047  0  3.896792  0
C  C29  1  0.69761753  0.32725570  0.78835071  1  0  -0.073968  0  3.658396  0  0  -0.107262  0  3.908834  0  0  -0.107796  0  3.927008  0  0  -0.070899  -0.106831  0  3.896698  0
C  C30  1  0.39932836  0.70851330  0.28342158  1  0  -0.035817  0  3.728148  0  0  -0.024985  0  3.962486  0  0  -0.029239  0  3.984942  0  0  -0.006495  -0.022118  0  3.947251  0
C  C31  1  0.60067384  0.29147863  0.71657564  1  0  -0.035894  0  3.72824  0  0  -0.025126  0  3.962631  0  0  -0.029379  0  3.985094  0  0  -0.006535  -0.022244  0  3.947369  0
C  C32  1  0.26529823  0.64412109  0.34298743  1  0  0.38065  0  3.753048  0  0  0.360687  0  4.015604  0  0  0.382258  0  4.01819  0  0  0.157284  0.345981  0  4.013752  0
C  C33  1  0.73469150  0.35587890  0.65700747  1  0  0.380561  0  3.75335  0  0  0.360712  0  4.015758  0  0  0.382278  0  4.018345  0  0  0.157344  0.346025  0  4.013853  0
C  C34  1  0.36881108  0.69682853  0.41818625  1  0  -0.050757  0  3.752424  0  0  -0.038569  0  3.982592  0  0  -0.04439  0  4.00798  0  0  -0.010461  -0.034541  0  3.96538  0
C  C35  1  0.63118449  0.30316472  0.58181029  1  0  -0.050871  0  3.752768  0  0  -0.038667  0  3.982847  0  0  -0.044483  0  4.008229  0  0  -0.010547  -0.034644  0  3.965624  0
C  C36  1  0.24102534  0.65018456  0.47557462  1  0  -0.051265  0  3.697617  0  0  -0.077344  0  3.951588  0  0  -0.078535  0  3.972906  0  0  -0.07127  -0.076459  0  3.937021  0
C  C37  1  0.75894766  0.34980561  0.52441802  1  0  -0.051332  0  3.697981  0  0  -0.077425  0  3.951946  0  0  -0.078613  0  3.973258  0  0  -0.071302  -0.076524  0  3.937406  0
C  C38  1  0.33539047  0.68889004  0.54699958  1  0  -0.046346  0  3.704845  0  0  -0.063132  0  3.962058  0  0  -0.064911  0  3.983189  0  0  -0.07303  -0.06169  0  3.947496  0
C  C39  1  0.66456624  0.31110572  0.45299435  1  0  -0.046291  0  3.704981  0  0  -0.063071  0  3.962222  0  0  -0.064865  0  3.983355  0  0  -0.073015  -0.061637  0  3.947659  0
C  C40  1  0.56102051  0.77523542  0.56138725  1  0  -0.040346  0  3.709744  0  0  -0.056951  0  3.966978  0  0  -0.059311  0  3.988756  0  0  -0.073579  -0.055212  0  3.95189  0
C  C41  1  0.43893789  0.22476075  0.43861158  1  0  -0.040294  0  3.709437  0  0  -0.056894  0  3.966717  0  0  -0.059268  0  3.988511  0  0  -0.07356  -0.055151  0  3.951625  0
C  C42  1  0.68865563  0.82644830  0.50490083  1  0  -0.054513  0  3.684628  0  0  -0.080956  0  3.940679  0  0  -0.0821  0  3.961657  0  0  -0.072522  -0.079978  0  3.926267  0
C  C43  1  0.31132129  0.17353424  0.49509928  1  0  -0.054591  0  3.684834  0  0  -0.08111  0  3.940954  0  0  -0.082255  0  3.961939  0  0  -0.072455  -0.08013  0  3.926534  0
C  C44  1  0.59359268  0.78943478  0.43300903  1  0  -0.060064  0  3.761357  0  0  -0.048785  0  3.994024  0  0  -0.055354  0  4.020241  0  0  -0.012053  -0.044334  0  3.976295  0
C  C45  1  0.40640215  0.21056563  0.56699085  1  0  -0.060082  0  3.761087  0  0  -0.048747  0  3.993821  0  0  -0.055355  0  4.020008  0  0  -0.012086  -0.044296  0  3.976095  0
C  C46  1  0.72801331  0.85166037  0.37384134  1  0  0.381835  0  3.751587  0  0  0.361112  0  4.015873  0  0  0.382648  0  4.019234  0  0  0.159655  0.346296  0  4.013664  0
C  C47  1  0.27198245  0.14833462  0.62615953  1  0  0.382039  0  3.751011  0  0  0.361113  0  4.01559  0  0  0.382779  0  4.01876  0  0  0.159704  0.346294  0  4.013385  0
C  C48  1  0.62035631  0.80702518  0.29835819  1  0  -0.032741  0  3.727753  0  0  -0.025066  0  3.965092  0  0  -0.029094  0  3.987444  0  0  -0.005404  -0.022252  0  3.9499  0
C  C49  1  0.37964042  0.19297692  0.70164554  1  0  -0.032785  0  3.727752  0  0  -0.025082  0  3.965232  0  0  -0.02915  0  3.987559  0  0  -0.005439  -0.022275  0  3.950036  0
C  C50  1  0.78593555  0.88143995  0.10895753  1  0  0.68537  0  3.885824  0  0  0.627443  0  4.187919  0  0  0.663375  0  4.179072  0  0  0.217194  0.602918  0  4.193187  0
C  C51  1  0.21408132  0.11857202  0.89104910  1  0  0.685639  0  3.885654  0  0  0.627605  0  4.187856  0  0  0.663539  0  4.179005  0  0  0.217276  0.60308  0  4.193126  0
C  C52  1  0.30656968  0.71658883  0.08022233  1  0  0.677694  0  3.890781  0  0  0.620783  0  4.187535  0  0  0.656425  0  4.178861  0  0  0.211451  0.596479  0  4.192679  0
C  C53  1  0.69344228  0.28342410  0.91977935  1  0  0.677713  0  3.890426  0  0  0.620771  0  4.18722  0  0  0.656428  0  4.178508  0  0  0.211435  0.596455  0  4.192385  0
O  O54  1  0.20424793  0.56376979  0.05232580  1  0  -0.659495  0  2.088449  0  0  -0.589669  0  2.350151  0  0  -0.620699  0  2.338378  0  0  -0.32053  -0.567652  0  2.357468  0
O  O55  1  0.79577237  0.43624166  0.94767446  1  0  -0.659373  0  2.088264  0  0  -0.589523  0  2.349916  0  0  -0.62055  0  2.338129  0  0  -0.320445  -0.567501  0  2.357237  0
O  O56  1  0.30260139  0.86390557  0.04786027  1  0  -0.652228  0  2.029705  0  0  -0.586249  0  2.269535  0  0  -0.615893  0  2.25782  0  0  -0.310464  -0.565255  0  2.276766  0
O  O57  1  0.69742516  0.13610162  0.95213846  1  0  -0.652296  0  2.029547  0  0  -0.586211  0  2.269241  0  0  -0.615914  0  2.257625  0  0  -0.310528  -0.565214  0  2.276479  0
O  O58  1  0.77822488  0.75727980  0.05587621  1  0  -0.654419  0  2.06745  0  0  -0.576189  0  2.309067  0  0  -0.607658  0  2.298368  0  0  -0.309308  -0.554037  0  2.315671  0
O  O59  1  0.22180532  0.24274167  0.94412882  1  0  -0.654566  0  2.067455  0  0  -0.576283  0  2.309122  0  0  -0.607731  0  2.29839  0  0  -0.309353  -0.554122  0  2.315708  0
O  O60  1  0.89879241  0.03924336  0.11622927  1  0  -0.657933  0  2.04806  0  0  -0.596462  0  2.307803  0  0  -0.625827  0  2.294645  0  0  -0.325709  -0.575596  0  2.316027  0
O  O61  1  0.10123220  0.96076339  0.88378068  1  0  -0.658037  0  2.048042  0  0  -0.596547  0  2.307847  0  0  -0.62591  0  2.294684  0  0  -0.325711  -0.575682  0  2.316072  0
O  O62  1  0.07729895  0.54818141  0.32969439  1  0  -0.446584  0  1.883135  0  0  -0.40823  0  2.079204  0  0  -0.423701  0  2.075255  0  0  -0.260381  -0.397759  0  2.081893  0
O  O63  1  0.92269925  0.45180634  0.67030210  1  0  -0.446517  0  1.882955  0  0  -0.408215  0  2.07899  0  0  -0.423683  0  2.075037  0  0  -0.260427  -0.397753  0  2.081662  0
O  O64  1  0.92025430  0.94160247  0.38588935  1  0  -0.446221  0  1.935965  0  0  -0.403022  0  2.145515  0  0  -0.420284  0  2.143309  0  0  -0.246865  -0.391205  0  2.14699  0
O  O65  1  0.07974047  0.05838608  0.61411674  1  0  -0.446323  0  1.935736  0  0  -0.403015  0  2.145376  0  0  -0.420322  0  2.143094  0  0  -0.246894  -0.391198  0  2.146852  0
O  O66  1  0.22209097  0.58241485  0.88709726  1  0  -0.836804  0  1.871499  0  0  -0.775546  0  2.064561  0  0  -0.799974  0  2.031649  0  0  -0.58884  -0.758165  0  2.087456  0
O  O67  1  0.77792855  0.41759109  0.11290286  1  0  -0.836672  0  1.871741  0  0  -0.775426  0  2.064797  0  0  -0.799852  0  2.03188  0  0  -0.588706  -0.758033  0  2.087696  0
O  O68  1  0.63680511  0.80153580  0.88912127  1  0  -0.810492  0  1.879051  0  0  -0.747692  0  2.063581  0  0  -0.771043  0  2.036586  0  0  -0.551049  -0.731078  0  2.082208  0
O  O69  1  0.36321270  0.19847030  0.11088096  1  0  -0.810543  0  1.879017  0  0  -0.747753  0  2.06353  0  0  -0.771108  0  2.036533  0  0  -0.551041  -0.731139  0  2.082151  0
