# generated using pymatgen
data_MnH18C21N4O5
_symmetry_space_group_name_H-M   'P 1'
_cell_length_a   6.73888668
_cell_length_b   9.78680135
_cell_length_c   15.45711678
_cell_angle_alpha   73.73000611
_cell_angle_beta   84.91398005
_cell_angle_gamma   69.46030463
_symmetry_Int_Tables_number   1
_chemical_formula_structural   MnH18C21N4O5
_chemical_formula_sum   'Mn2 H36 C42 N8 O10'
_cell_volume   916.34075860
_cell_formula_units_Z   2
loop_
 _symmetry_equiv_pos_site_id
 _symmetry_equiv_pos_as_xyz
  1  'x, y, z'
loop_
 _atom_site_type_symbol
 _atom_site_label
 _atom_site_symmetry_multiplicity
 _atom_site_fract_x
 _atom_site_fract_y
 _atom_site_fract_z
 _atom_site_occupancy
 _atom_site_hle17_ddec_charge
 _atom_site_hle17_ddec_spin_density
 _atom_site_hle17_ddec_sum_bond_order
 _atom_site_hle17_magmom
 _atom_site_hse06_10hf_ddec_charge
 _atom_site_hse06_10hf_ddec_spin_density
 _atom_site_hse06_10hf_ddec_sum_bond_order
 _atom_site_hse06_10hf_magmom
 _atom_site_hse06_ddec_charge
 _atom_site_hse06_ddec_spin_density
 _atom_site_hse06_ddec_sum_bond_order
 _atom_site_hse06_magmom
 _atom_site_pbe_cm5_charge
 _atom_site_pbe_ddec_charge
 _atom_site_pbe_ddec_spin_density
 _atom_site_pbe_ddec_sum_bond_order
 _atom_site_pbe_magmom
Mn  Mn0  1  0.20090197  0.30109288  0.53450782  1  1.17666  4.818737  1.634853  4.686  1.014614  4.752863  2.102041  4.554  1.078897  4.792185  2.033945  4.614  0.595121  0.962732  4.713794  2.153665  4.496
Mn  Mn1  1  0.79911204  0.69889678  0.46549545  1  1.176677  4.818777  1.634906  4.686  1.01463  4.752899  2.102114  4.554  1.078914  4.792225  2.034015  4.614  0.595107  0.962743  4.71383  2.153745  4.496
H  H2  1  0.62829374  0.08649773  0.53337487  1  0.429754  -0.000393  0.873998  0.0  0.394979  7.8e-05  0.945123  0.001  0.406647  -0.000132  0.928246  0.001  0.292674  0.386577  0.00031  0.957234  0.001
H  H3  1  0.37170762  0.91349994  0.46662489  1  0.429788  -0.000392  0.87395  0.0  0.395011  7.8e-05  0.945079  0.001  0.406678  -0.000132  0.928205  0.001  0.292688  0.386606  0.000309  0.957193  0.001
H  H4  1  0.64023351  0.18892804  0.59491429  1  0.427379  -0.000168  0.81604  0.001  0.408524  0.000579  0.873509  0.001  0.417031  0.000246  0.863971  0.001  0.321172  0.402208  0.000902  0.880652  0.002
H  H5  1  0.35976934  0.81106961  0.40508605  1  0.427407  -0.00017  0.816015  0.001  0.40856  0.000579  0.873472  0.001  0.417066  0.000245  0.863935  0.001  0.321185  0.402244  0.000902  0.880609  0.002
H  H6  1  0.45435612  0.27536531  0.21027433  1  0.289003  0.000194  0.935706  0.0  0.2614  0.000258  1.013205  0.0  0.270671  0.000201  1.006048  0.0  0.301783  0.254758  0.000313  1.018465  0.0
H  H7  1  0.54564166  0.72463690  0.78972540  1  0.289018  0.000192  0.935749  0.0  0.26143  0.000258  1.013216  0.0  0.270701  0.000201  1.006058  0.0  0.301796  0.254789  0.000313  1.018472  0.0
H  H8  1  0.28521598  0.24168689  0.77200494  1  0.313391  -0.000251  0.912846  0.0  0.29489  -0.000171  0.972224  0.0  0.303969  -0.00026  0.96466  0.0  0.314504  0.28845  -8.2e-05  0.977552  0.0
H  H9  1  0.71478935  0.75831188  0.22799382  1  0.313395  -0.000251  0.912834  0.0  0.294942  -0.000171  0.972165  0.0  0.304021  -0.00026  0.964597  0.0  0.314515  0.288494  -8.2e-05  0.97749  0.0
H  H10  1  0.59742116  0.43918770  0.11243544  1  0.090104  -5e-06  0.98294  0.0  0.102772  1.8e-05  1.044457  0.0  0.104948  9e-06  1.04421  0.0  0.100457  0.101023  2.6e-05  1.045074  0.0
H  H11  1  0.40257818  0.56081112  0.88756419  1  0.090109  1e-06  0.982925  0.0  0.102774  1.8e-05  1.044442  0.0  0.104951  9e-06  1.044194  0.0  0.100447  0.101025  2.6e-05  1.04506  0.0
H  H12  1  0.60619205  0.62995879  0.97099401  1  0.088938  6e-06  0.978297  0.0  0.098419  3e-06  1.044426  0.0  0.101271  2e-06  1.043263  0.0  0.098269  0.096339  5e-06  1.045452  0.0
H  H13  1  0.39380677  0.37004116  0.02900544  1  0.08894  -5e-06  0.978286  0.0  0.098446  3e-06  1.044379  0.0  0.101303  1e-06  1.043212  0.0  0.098274  0.096353  5e-06  1.045419  0.0
H  H14  1  0.13707348  0.97398481  0.07451468  1  0.08739  1e-06  0.961673  0.0  0.100026  -1e-06  1.024196  0.0  0.102219  1e-06  1.024225  0.0  0.098306  0.098418  -2e-06  1.024199  0.0
H  H15  1  0.86293028  0.02601734  0.92548613  1  0.087424  -5e-06  0.961619  0.0  0.100008  -1e-06  1.02421  0.0  0.102181  1e-06  1.024262  0.0  0.098315  0.098408  -2e-06  1.024207  0.0
H  H16  1  0.13269540  0.78358778  0.21745817  1  0.100743  -0.000168  0.958839  0.0  0.109772  -0.000204  1.024285  0.0  0.11347  -0.00022  1.021603  0.0  0.100933  0.107037  -0.000187  1.026373  0.0
H  H17  1  0.86731284  0.21641433  0.78254312  1  0.100735  -0.000173  0.958894  0.0  0.109775  -0.000204  1.024314  0.0  0.113479  -0.00022  1.021636  0.0  0.100932  0.107041  -0.000187  1.026404  0.0
H  H18  1  0.23811711  0.59260081  0.36891177  1  0.119896  -0.000343  0.9554  0.0  0.12849  -1.5e-05  1.018243  0.0  0.131763  -0.000154  1.015801  0.0  0.122107  0.126011  0.000129  1.0204  0.0
H  H19  1  0.76188418  0.40740024  0.63108803  1  0.119886  -0.000331  0.955395  0.0  0.128472  -1.5e-05  1.018255  0.0  0.131745  -0.000154  1.015812  0.0  0.122095  0.125993  0.000129  1.020415  0.0
H  H20  1  0.40352936  0.13538922  0.37035764  1  0.092451  -0.000561  0.957108  0.0  0.101829  -0.000236  1.021385  0.0  0.104207  -0.000312  1.018543  0.0  0.136343  0.100055  -0.000157  1.023335  0.0
H  H21  1  0.59645944  0.86461307  0.62964113  1  0.092408  -0.000559  0.957125  0.0  0.101723  -0.000236  1.021495  0.0  0.104105  -0.000312  1.01864  0.0  0.136284  0.099977  -0.000157  1.023385  0.0
H  H22  1  0.20339219  0.16054247  0.94266598  1  0.107719  1e-06  0.956006  0.0  0.12089  5e-06  1.013164  0.0  0.123208  4e-06  1.012561  0.0  0.120294  0.119266  6e-06  1.013603  0.0
H  H23  1  0.79661358  0.83945855  0.05733237  1  0.10771  1e-06  0.95596  0.0  0.120885  6e-06  1.013114  0.0  0.123201  4e-06  1.012514  0.0  0.120297  0.11926  6e-06  1.01356  0.0
H  H24  1  0.48606804  0.02017804  0.71379350  1  0.082141  -0.000405  0.984971  0.0  0.091439  -0.000392  1.050698  0.0  0.093911  -0.00042  1.047908  0.0  0.126366  0.089509  -0.000366  1.052775  0.0
H  H25  1  0.51393586  0.97981735  0.28620591  1  0.082118  -0.000385  0.985009  0.0  0.091423  -0.000392  1.050716  0.0  0.093894  -0.00042  1.047929  0.0  0.126385  0.089494  -0.000366  1.052788  0.0
H  H26  1  0.18247605  0.78791942  0.54114635  1  0.092153  -0.000755  0.982352  0.0  0.09917  -0.0005  1.054157  0.0  0.102816  -0.00061  1.050628  0.0  0.10718  0.096319  -0.00029  1.056758  0.0
H  H27  1  0.81751881  0.21207943  0.45885409  1  0.092127  -0.000724  0.982365  0.0  0.099137  -0.0005  1.054189  0.0  0.102783  -0.00061  1.05066  0.0  0.107142  0.096286  -0.00029  1.056791  0.0
H  H28  1  0.00874200  0.96712106  0.77166748  1  0.104794  -0.000217  0.950706  0.0  0.115894  -5.1e-05  1.012996  0.0  0.118948  -9.4e-05  1.011166  0.0  0.104006  0.11361  -1.8e-05  1.014611  0.0
H  H29  1  0.99125382  0.03287891  0.22833207  1  0.104807  -0.000225  0.950718  0.0  0.115903  -5.1e-05  1.01301  0.0  0.118959  -9.5e-05  1.011177  0.0  0.104004  0.113626  -1.8e-05  1.014597  0.0
H  H30  1  0.09019455  0.50101966  0.79555359  1  0.096416  -0.000182  0.942312  0.0  0.10715  -1.3e-05  1.00567  0.0  0.110483  -6e-05  1.003402  0.0  0.102668  0.104708  2.5e-05  1.007509  0.0
H  H31  1  0.90980576  0.49898027  0.20444774  1  0.096431  -0.000184  0.942293  0.0  0.107117  -1.3e-05  1.005702  0.0  0.11045  -6e-05  1.003434  0.0  0.102641  0.104675  2.5e-05  1.007542  0.0
H  H32  1  0.00059287  0.59066909  0.92591533  1  0.104477  -6e-06  0.94991  0.0  0.127674  -6e-06  1.007564  0.0  0.129116  -3e-06  1.006966  0.0  0.088594  0.126617  -4e-06  1.007983  0.0
H  H33  1  0.99940842  0.40933195  0.07408642  1  0.10445  -2e-06  0.94993  0.0  0.127649  -6e-06  1.007577  0.0  0.12909  -3e-06  1.00698  0.0  0.088591  0.126586  -4e-06  1.008001  0.0
H  H34  1  0.82190165  0.78035653  0.90115802  1  0.113158  -0.000114  0.983545  0.0  0.129758  -6.5e-05  1.052835  0.0  0.131259  -7.8e-05  1.052895  0.0  0.089238  0.128672  -5.2e-05  1.052725  0.0
H  H35  1  0.17810061  0.21964564  0.09884220  1  0.113145  -9.7e-05  0.983556  0.0  0.129711  -6.5e-05  1.052891  0.0  0.131208  -7.8e-05  1.052956  0.0  0.089208  0.128621  -5.2e-05  1.052779  0.0
H  H36  1  0.09054094  0.73919649  0.93020959  1  0.108745  -8.1e-05  0.964683  0.0  0.128287  -4.3e-05  1.029709  0.0  0.128985  -5.9e-05  1.030797  0.0  0.087965  0.127678  -3.3e-05  1.029088  0.0
H  H37  1  0.90946079  0.26080682  0.06978851  1  0.10873  -8.4e-05  0.96467  0.0  0.128252  -4.3e-05  1.029726  0.0  0.128949  -5.9e-05  1.030818  0.0  0.087945  0.127644  -3.3e-05  1.029103  0.0
C  C38  1  0.49543265  0.55625014  0.10437917  1  -0.11333  0.000131  3.768229  0.0  -0.131092  0.000303  4.010698  0.0  -0.133125  0.000191  4.031874  0.0  -0.09725  -0.129402  0.000411  3.996068  0.0
C  C39  1  0.50456864  0.44375091  0.89562063  1  -0.113387  5.1e-05  3.76823  0.0  -0.131133  0.000304  4.010722  0.0  -0.133166  0.000192  4.031902  0.0  -0.097272  -0.129443  0.000411  3.996088  0.0
C  C40  1  0.50048738  0.66392658  0.02442256  1  -0.114709  -5.8e-05  3.763589  0.0  -0.134644  -4.5e-05  4.01257  0.0  -0.137425  -5.5e-05  4.032538  0.0  -0.098204  -0.13353  -3.7e-05  3.999533  0.0
C  C41  1  0.49951391  0.33607448  0.97557595  1  -0.114698  4.6e-05  3.763575  0.0  -0.134641  -4.4e-05  4.012511  0.0  -0.13743  -5.5e-05  4.032487  0.0  -0.098194  -0.133516  -3.7e-05  3.999483  0.0
C  C42  1  0.36989577  0.81612272  0.01091781  1  0.029445  2.3e-05  3.845985  0.0  0.043554  0.000176  4.081253  0.0  0.045067  8.3e-05  4.103726  0.0  -0.013672  0.04216  0.000289  4.066666  0.0
C  C43  1  0.63010552  0.18387833  0.98908264  1  0.029431  -3.4e-05  3.846014  0.0  0.043552  0.000174  4.081267  0.0  0.045068  8.3e-05  4.103734  0.0  -0.013682  0.042161  0.000289  4.06668  0.0
C  C44  1  0.24061192  0.85689464  0.08285728  1  -0.110511  -1.6e-05  3.757702  0.0  -0.132631  -2.5e-05  4.010905  0.0  -0.1353  -2.9e-05  4.03203  0.0  -0.094738  -0.130137  -2.8e-05  3.996333  0.0
C  C45  1  0.75939333  0.14310750  0.91714218  1  -0.11058  5.1e-05  3.757731  0.0  -0.132672  -2.5e-05  4.010941  0.0  -0.135325  -2.9e-05  4.032072  0.0  -0.09477  -0.130183  -2.8e-05  3.996373  0.0
C  C46  1  0.23732602  0.74970510  0.16342091  1  -0.107752  -4.1e-05  3.738698  0.0  -0.128575  0.000154  3.988168  0.0  -0.129997  6.3e-05  4.007128  0.0  -0.093913  -0.127768  0.000268  3.975101  0.0
C  C47  1  0.76268125  0.25029589  0.83658061  1  -0.107713  -9.1e-05  3.738787  0.0  -0.128514  0.000155  3.988234  0.0  -0.129949  6.4e-05  4.007198  0.0  -0.093896  -0.127708  0.000268  3.97517  0.0
C  C48  1  0.36217629  0.59605435  0.17509046  1  0.026225  0.000218  3.842402  0.0  0.043276  0.000173  4.072776  0.0  0.043387  0.000132  4.095834  0.0  -0.014919  0.043857  0.000237  4.056462  0.0
C  C49  1  0.63782649  0.40394669  0.82491123  1  0.026285  0.00026  3.842468  0.0  0.043273  0.000171  4.072916  0.0  0.043384  0.00013  4.095976  0.0  -0.014905  0.043858  0.000237  4.056601  0.0
C  C50  1  0.35227350  0.48174345  0.25724318  1  0.115309  -0.000201  3.779958  0.0  0.104836  0.000707  4.032766  0.001  0.107366  6.4e-05  4.056252  0.0  0.081403  0.103034  0.0013  4.016782  0.001
C  C51  1  0.64772981  0.51825645  0.74275869  1  0.115347  -0.000186  3.779934  0.0  0.104902  0.000707  4.032742  0.001  0.107435  6.5e-05  4.056224  0.0  0.08145  0.103098  0.0013  4.016761  0.001
C  C52  1  0.29162625  0.49310976  0.34362998  1  -0.033436  0.002194  3.67152  0.003  -0.074229  0.003935  3.942089  0.005  -0.072805  0.003142  3.961665  0.004  0.005005  -0.075446  0.00473  3.928893  0.005
C  C53  1  0.70837556  0.50689016  0.65637065  1  -0.033361  0.002145  3.671363  0.003  -0.074149  0.003935  3.941937  0.005  -0.072725  0.003138  3.961512  0.004  0.005015  -0.075364  0.00473  3.928743  0.005
C  C54  1  0.37821424  0.25544070  0.34746037  1  0.229738  0.007001  3.67134  0.007  0.168862  0.008863  3.944565  0.008  0.18266  0.007895  3.959883  0.007  0.148107  0.159969  0.010004  3.93334  0.009
C  C55  1  0.62178106  0.74456041  0.65253900  1  0.229854  0.00698  3.671408  0.007  0.169024  0.008864  3.944636  0.008  0.182826  0.007892  3.959958  0.007  0.148141  0.160125  0.010004  3.933411  0.009
C  C56  1  0.36904542  0.92579716  0.92465217  1  0.0915  3.2e-05  3.835429  0.0  0.088718  5e-06  4.094282  0.0  0.08927  1e-06  4.117899  0.0  0.066027  0.088079  1.5e-05  4.078702  0.0
C  C57  1  0.63095691  0.07420162  0.07534799  1  0.091484  2.6e-05  3.83553  0.0  0.088686  5e-06  4.094395  0.0  0.089239  -2e-06  4.11801  0.0  0.066036  0.088043  1.5e-05  4.07882  0.0
C  C58  1  0.28501130  0.08288880  0.90275530  1  -0.042445  -2.9e-05  3.668631  0.0  -0.086114  5.5e-05  3.932003  0.0  -0.084147  3.1e-05  3.951597  0.0  0.006368  -0.087276  0.000164  3.918935  0.0
C  C59  1  0.71499350  0.91711109  0.09724392  1  -0.042414  -2.3e-05  3.668546  0.0  -0.08607  5.6e-05  3.931934  0.0  -0.084104  3.4e-05  3.95153  0.0  0.006353  -0.087233  0.000164  3.918872  0.0
C  C60  1  0.43436555  0.00927903  0.78315498  1  0.211663  -6.7e-05  3.692755  0.0  0.154835  -7.3e-05  3.968487  0.0  0.166804  -0.000126  3.981921  0.0  0.133263  0.147172  -2.1e-05  3.958794  0.0
C  C61  1  0.56563633  0.99071751  0.21684496  1  0.211704  -0.000157  3.692856  0.0  0.154886  -7.3e-05  3.968599  0.0  0.166853  -0.000127  3.982033  0.0  0.133241  0.147223  -2.1e-05  3.958896  0.0
C  C62  1  0.13939277  0.63297902  0.66356766  1  -0.069528  -0.004901  3.797833  -0.003  -0.044072  -0.003198  4.03578  -0.002  -0.053194  -0.003889  4.058449  -0.003  -0.01807  -0.038212  -0.002604  4.02024  -0.002
C  C63  1  0.86060358  0.36701982  0.33643273  1  -0.069576  -0.004794  3.797706  -0.003  -0.044119  -0.003201  4.035687  -0.002  -0.053238  -0.003887  4.058351  -0.003  -0.018083  -0.038253  -0.002603  4.020144  -0.002
C  C64  1  0.14390474  0.77346030  0.61197928  1  -0.055912  0.004454  3.718624  0.004  -0.099134  0.004866  3.97498  0.004  -0.095836  0.004074  3.993077  0.004  -0.076868  -0.099816  0.005867  3.961784  0.005
C  C65  1  0.85609214  0.22653741  0.38802064  1  -0.055847  0.00431  3.718522  0.004  -0.099058  0.004866  3.974894  0.004  -0.095761  0.004073  3.992993  0.004  -0.07683  -0.099734  0.005866  3.961691  0.005
C  C66  1  0.09966061  0.89339428  0.65083443  1  -0.079506  -0.004724  3.801485  -0.003  -0.055518  -0.003269  4.044884  -0.002  -0.064553  -0.003877  4.067122  -0.003  -0.025338  -0.050213  -0.002773  4.030152  -0.002
C  C67  1  0.90033724  0.10660455  0.34916590  1  -0.079429  -0.004613  3.801511  -0.003  -0.055465  -0.003269  4.044926  -0.002  -0.0645  -0.003879  4.067164  -0.003  -0.025301  -0.050165  -0.002773  4.030191  -0.002
C  C68  1  0.04433950  0.87257976  0.74192261  1  -0.103514  0.003807  3.655335  0.003  -0.140158  0.004236  3.904809  0.003  -0.137917  0.003604  3.922774  0.003  -0.079973  -0.142307  0.005194  3.893662  0.004
C  C69  1  0.95565782  0.12742020  0.25807689  1  -0.10354  0.003738  3.655337  0.003  -0.140156  0.004235  3.90481  0.003  -0.137915  0.003609  3.922773  0.003  -0.07994  -0.142304  0.005194  3.893674  0.004
C  C70  1  0.04165698  0.73129746  0.79543686  1  0.133805  -0.003064  3.741276  -0.002  0.163113  -0.00144  3.984003  -0.001  0.161346  -0.00198  4.007615  -0.001  -0.010099  0.164252  -0.001106  3.968535  -0.001
C  C71  1  0.95834184  0.26870248  0.20456388  1  0.133774  -0.00295  3.741327  -0.002  0.163048  -0.00144  3.984072  -0.001  0.161284  -0.001982  4.007678  -0.001  -0.010126  0.164183  -0.001106  3.968605  -0.001
C  C72  1  0.09209140  0.61164991  0.75544538  1  -0.105021  0.003571  3.677403  0.003  -0.14326  0.003918  3.931026  0.003  -0.14118  0.003358  3.949015  0.003  -0.080156  -0.145213  0.004717  3.919417  0.004
C  C73  1  0.90790645  0.38834891  0.24455495  1  -0.105044  0.003499  3.677476  0.003  -0.143232  0.003919  3.93111  0.003  -0.141155  0.003359  3.949098  0.003  -0.08016  -0.145187  0.004716  3.919505  0.004
C  C74  1  0.12500943  0.03777653  0.59550841  1  0.633638  0.004806  3.905041  0.003  0.581854  0.008749  4.197239  0.006  0.616279  0.007074  4.191981  0.005  0.207558  0.558591  0.010567  4.199196  0.007
C  C75  1  0.87498692  0.96222232  0.40449068  1  0.633606  0.004799  3.904811  0.003  0.581842  0.008748  4.197002  0.006  0.616267  0.007074  4.191744  0.005  0.207572  0.558586  0.010566  4.198953  0.007
C  C76  1  0.17776977  0.51160948  0.61786036  1  0.647914  0.007728  3.89032  0.006  0.596454  0.014842  4.177154  0.011  0.632065  0.011372  4.171237  0.008  0.215865  0.571932  0.01869  4.17969  0.014
C  C77  1  0.82222808  0.48838935  0.38213933  1  0.647997  0.00771  3.890278  0.006  0.596472  0.014841  4.177213  0.011  0.632085  0.011368  4.171295  0.008  0.215855  0.571937  0.018686  4.179761  0.014
C  C78  1  0.98626414  0.70900137  0.89362834  1  -0.343746  0.000107  3.7171  0.0  -0.424227  1.1e-05  3.951993  0.0  -0.425727  8e-06  3.960378  0.0  -0.245289  -0.422858  8e-06  3.946158  0.0
C  C79  1  0.01373611  0.29100194  0.10637176  1  -0.34367  8.5e-05  3.71704  0.0  -0.424096  1.1e-05  3.951956  0.0  -0.425596  8e-06  3.960346  0.0  -0.245235  -0.422721  8e-06  3.946119  0.0
N  N80  1  0.30839375  0.35171165  0.39891778  1  -0.421872  0.02751  3.289758  0.011  -0.35007  0.028288  3.58703  0.006  -0.374558  0.024448  3.603342  0.003  -0.36146  -0.331893  0.031914  3.574946  0.009
N  N81  1  0.69160306  0.64828944  0.60108219  1  -0.421973  0.027532  3.289751  0.011  -0.350185  0.028292  3.587039  0.006  -0.374676  0.024453  3.603349  0.003  -0.361467  -0.33201  0.031918  3.574959  0.009
N  N82  1  0.40771943  0.32901108  0.26210561  1  -0.321834  0.001463  3.436153  0.002  -0.252375  0.002785  3.666865  0.003  -0.270343  0.002143  3.68359  0.002  -0.370891  -0.239976  0.003379  3.65532  0.003
N  N83  1  0.59227984  0.67099112  0.73789407  1  -0.321932  0.001485  3.436261  0.002  -0.252486  0.002784  3.666982  0.003  -0.270457  0.002145  3.683704  0.002  -0.37091  -0.240094  0.003379  3.655442  0.003
N  N84  1  0.32790324  0.13262109  0.81349295  1  -0.279022  -0.000104  3.475452  0.0  -0.212538  -5.1e-05  3.714272  0.0  -0.228839  -0.000136  3.729744  0.0  -0.380348  -0.201449  4.7e-05  3.703429  0.0
N  N85  1  0.67210261  0.86737654  0.18650663  1  -0.27902  -8.5e-05  3.475457  0.0  -0.212602  -5.2e-05  3.714266  0.0  -0.228903  -0.000135  3.72974  0.0  -0.380362  -0.201506  4.7e-05  3.703418  0.0
N  N86  1  0.46216742  0.88174301  0.84805904  1  -0.434187  0.000102  3.084855  0.0  -0.384995  0.000171  3.349804  0.0  -0.400241  0.000127  3.366292  0.0  -0.340943  -0.374088  0.000235  3.338303  0.0
N  N87  1  0.53783043  0.11825582  0.15194129  1  -0.434201  0.000119  3.084892  0.0  -0.384999  0.000171  3.349836  0.0  -0.400245  0.000128  3.366323  0.0  -0.340923  -0.374087  0.000234  3.338328  0.0
O  O88  1  0.23844334  0.37227397  0.66159952  1  -0.630949  0.024705  1.994225  0.018  -0.568425  0.031801  2.233791  0.024  -0.597924  0.027048  2.2248  0.019  -0.300198  -0.546547  0.036225  2.2389  0.028
O  O89  1  0.76155451  0.62772486  0.33840081  1  -0.63099  0.024722  1.99421  0.019  -0.568434  0.031798  2.233774  0.024  -0.597935  0.027049  2.224784  0.019  -0.300185  -0.546547  0.036223  2.238881  0.028
O  O90  1  0.14411547  0.54931680  0.53229336  1  -0.667775  0.042716  2.035665  0.025  -0.59383  0.05526  2.294532  0.033  -0.627521  0.049201  2.282378  0.029  -0.297271  -0.568338  0.061013  2.301878  0.038
O  O91  1  0.85587886  0.45068319  0.46770625  1  -0.667849  0.042722  2.035704  0.025  -0.593845  0.055258  2.294541  0.033  -0.627541  0.049196  2.282392  0.029  -0.297261  -0.56835  0.061011  2.301889  0.038
O  O92  1  0.23490934  0.03932017  0.52381415  1  -0.64255  0.014978  1.996831  0.01  -0.571998  0.022921  2.229367  0.017  -0.601595  0.019773  2.221798  0.015  -0.299203  -0.550672  0.025993  2.233856  0.02
O  O93  1  0.76508851  0.96067866  0.47618618  1  -0.642579  0.014988  1.996745  0.01  -0.572017  0.022919  2.229241  0.017  -0.601618  0.01977  2.221674  0.015  -0.299216  -0.550695  0.025992  2.233728  0.02
O  O94  1  0.04152707  0.15855304  0.62223887  1  -0.648067  0.027966  1.972176  0.018  -0.587762  0.02986  2.233487  0.016  -0.618179  0.025969  2.221298  0.013  -0.318732  -0.564732  0.033489  2.240545  0.019
O  O95  1  0.95846278  0.84144699  0.37775962  1  -0.64801  0.027967  1.972039  0.018  -0.58774  0.029862  2.233397  0.016  -0.618156  0.02597  2.221204  0.013  -0.318744  -0.564714  0.033489  2.240455  0.019
O  O96  1  0.54558146  0.14656632  0.57601982  1  -0.818894  0.024359  1.881143  0.015  -0.765836  0.033902  2.089386  0.022  -0.78765  0.030029  2.058186  0.019  -0.554034  -0.749178  0.037484  2.11167  0.024
O  O97  1  0.45442140  0.85343134  0.42398053  1  -0.818966  0.024355  1.881091  0.015  -0.765913  0.033898  2.089334  0.022  -0.787725  0.030025  2.058134  0.019  -0.554059  -0.749252  0.03748  2.111615  0.024
