# generated using pymatgen
data_HoH9C8SO10
_symmetry_space_group_name_H-M   'P 1'
_cell_length_a   6.78375485
_cell_length_b   11.62078876
_cell_length_c   14.79184512
_cell_angle_alpha   89.99984746
_cell_angle_beta   90.00132935
_cell_angle_gamma   96.36144339
_symmetry_Int_Tables_number   1
_chemical_formula_structural   HoH9C8SO10
_chemical_formula_sum   'Ho4 H36 C32 S4 O40'
_cell_volume   1158.89945156
_cell_formula_units_Z   4
loop_
 _symmetry_equiv_pos_site_id
 _symmetry_equiv_pos_as_xyz
  1  'x, y, z'
loop_
 _atom_site_type_symbol
 _atom_site_label
 _atom_site_symmetry_multiplicity
 _atom_site_fract_x
 _atom_site_fract_y
 _atom_site_fract_z
 _atom_site_occupancy
 _atom_site_hle17_bader_spin_density
 _atom_site_hle17_ddec_charge
 _atom_site_hle17_ddec_spin_density
 _atom_site_hle17_ddec_sum_bond_order
 _atom_site_hle17_magmom
 _atom_site_hse06_10hf_bader_spin_density
 _atom_site_hse06_10hf_ddec_charge
 _atom_site_hse06_10hf_ddec_spin_density
 _atom_site_hse06_10hf_ddec_sum_bond_order
 _atom_site_hse06_10hf_magmom
 _atom_site_hse06_bader_spin_density
 _atom_site_hse06_ddec_charge
 _atom_site_hse06_ddec_spin_density
 _atom_site_hse06_ddec_sum_bond_order
 _atom_site_hse06_magmom
 _atom_site_pbe_bader_spin_density
 _atom_site_pbe_cm5_charge
 _atom_site_pbe_ddec_charge
 _atom_site_pbe_ddec_spin_density
 _atom_site_pbe_ddec_sum_bond_order
 _atom_site_pbe_magmom
Ho  Ho0  1  0.67488386  0.09851731  0.59719608  1  0  2.335228  0  1.495771  0  0  2.271495  0  1.801157  0  0  2.317376  0  1.761982  0  0  1.500971  2.15565  0  1.982059  0
Ho  Ho1  1  0.82513901  0.40147668  0.09720010  1  0  2.3353  0  1.495838  0  0  2.271548  0  1.801253  0  0  2.317432  0  1.762074  0  0  1.500993  2.155716  0  1.982109  0
Ho  Ho2  1  0.32512663  0.90147343  0.40279699  1  0  2.335258  0  1.49575  0  0  2.271519  0  1.801152  0  0  2.317399  0  1.761973  0  0  1.501024  2.155673  0  1.982053  0
Ho  Ho3  1  0.17486649  0.59853315  0.90280446  1  0  2.335334  0  1.495855  0  0  2.271592  0  1.801264  0  0  2.317474  0  1.762085  0  0  1.501009  2.155738  0  1.98216  0
H  H4  1  0.93557914  0.08575244  0.42415215  1  0  0.448362  0  0.845469  0  0  0.420915  0  0.90235  0  0  0.431017  0  0.887697  0  0  0.306247  0.413183  0  0.913419  0
H  H5  1  0.56441699  0.41424699  0.92415704  1  0  0.448385  0  0.84544  0  0  0.420938  0  0.902322  0  0  0.431038  0  0.887671  0  0  0.306242  0.413206  0  0.913389  0
H  H6  1  0.06442616  0.91424179  0.57584295  1  0  0.448217  0  0.845686  0  0  0.420806  0  0.902491  0  0  0.43091  0  0.887837  0  0  0.306192  0.413073  0  0.913558  0
H  H7  1  0.43559076  0.58575937  0.07585157  1  0  0.448331  0  0.84551  0  0  0.420886  0  0.902389  0  0  0.430987  0  0.887735  0  0  0.306219  0.413156  0  0.913454  0
H  H8  1  0.80818253  0.19364748  0.42980175  1  0  0.41209  0  0.909135  0  0  0.377649  0  0.978807  0  0  0.389977  0  0.961124  0  0  0.290896  0.369328  0  0.990366  0
H  H9  1  0.69182654  0.30635622  0.92980218  1  0  0.412091  0  0.909097  0  0  0.377658  0  0.978766  0  0  0.389987  0  0.961083  0  0  0.290869  0.369334  0  0.99033  0
H  H10  1  0.19182294  0.80634761  0.57019334  1  0  0.412036  0  0.909211  0  0  0.377585  0  0.978906  0  0  0.389941  0  0.96119  0  0  0.290804  0.369261  0  0.990467  0
H  H11  1  0.30817756  0.69364668  0.07020238  1  0  0.412131  0  0.90908  0  0  0.377692  0  0.978744  0  0  0.390029  0  0.961051  0  0  0.290922  0.369368  0  0.990306  0
H  H12  1  0.35189694  0.93631468  0.64610142  1  0  0.443738  0  0.850252  0  0  0.416806  0  0.905885  0  0  0.428279  0  0.889069  0  0  0.301309  0.408467  0  0.91783  0
H  H13  1  0.14810600  0.56368744  0.14610904  1  0  0.443743  0  0.850232  0  0  0.416747  0  0.905944  0  0  0.428218  0  0.88913  0  0  0.301315  0.408406  0  0.917892  0
H  H14  1  0.64810289  0.06367438  0.35389705  1  0  0.443721  0  0.850208  0  0  0.416804  0  0.90582  0  0  0.428272  0  0.889012  0  0  0.301334  0.408468  0  0.91776  0
H  H15  1  0.85189273  0.43631809  0.85389349  1  0  0.443753  0  0.850218  0  0  0.416774  0  0.905912  0  0  0.428245  0  0.889099  0  0  0.301303  0.408435  0  0.917858  0
H  H16  1  0.51574128  0.90597672  0.71941976  1  0  0.452477  0  0.833414  0  0  0.425125  0  0.889374  0  0  0.434681  0  0.875371  0  0  0.310086  0.418049  0  0.899547  0
H  H17  1  0.98426212  0.59402884  0.21942551  1  0  0.452381  0  0.833537  0  0  0.425014  0  0.889524  0  0  0.434573  0  0.875516  0  0  0.310014  0.417936  0  0.899698  0
H  H18  1  0.48426125  0.09401839  0.28057939  1  0  0.452497  0  0.833391  0  0  0.425138  0  0.889361  0  0  0.434698  0  0.87535  0  0  0.310105  0.418052  0  0.899546  0
H  H19  1  0.01573956  0.40597667  0.78057702  1  0  0.452489  0  0.833376  0  0  0.425124  0  0.889362  0  0  0.434681  0  0.875356  0  0  0.310081  0.418048  0  0.899534  0
H  H20  1  0.70969596  0.14667309  0.80564553  1  0  0.467396  0  0.812592  0  0  0.439887  0  0.867596  0  0  0.450751  0  0.851737  0  0  0.312286  0.431575  0  0.87966  0
H  H21  1  0.79031867  0.35333054  0.30565334  1  0  0.467268  0  0.812795  0  0  0.439778  0  0.867756  0  0  0.45064  0  0.851897  0  0  0.312245  0.431468  0  0.879816  0
H  H22  1  0.29030335  0.85331336  0.19434348  1  0  0.467217  0  0.812889  0  0  0.43975  0  0.867798  0  0  0.45061  0  0.85194  0  0  0.312226  0.431446  0  0.879845  0
H  H23  1  0.20967575  0.64668280  0.69434514  1  0  0.467199  0  0.812891  0  0  0.439748  0  0.867773  0  0  0.450612  0  0.851911  0  0  0.312234  0.431442  0  0.879824  0
H  H24  1  0.88869041  0.20139050  0.74472570  1  0  0.426825  0  0.877744  0  0  0.395499  0  0.942594  0  0  0.405842  0  0.927298  0  0  0.302945  0.388298  0  0.952901  0
H  H25  1  0.61131745  0.29861661  0.24473712  1  0  0.426749  0  0.877769  0  0  0.395427  0  0.942609  0  0  0.405768  0  0.927317  0  0  0.302919  0.388219  0  0.952925  0
H  H26  1  0.11131107  0.79859942  0.25526466  1  0  0.426889  0  0.877661  0  0  0.395528  0  0.942567  0  0  0.405877  0  0.927254  0  0  0.302969  0.388324  0  0.952877  0
H  H27  1  0.38866831  0.70139764  0.75526609  1  0  0.426732  0  0.877816  0  0  0.395414  0  0.942651  0  0  0.405756  0  0.927352  0  0  0.302875  0.388213  0  0.952957  0
H  H28  1  0.71333098  0.47417245  0.65866149  1  0  0.121127  0  0.918677  0  0  0.132049  0  0.972864  0  0  0.136422  0  0.969125  0  0  0.116013  0.128605  0  0.976243  0
H  H29  1  0.78668216  0.02583114  0.15866121  1  0  0.121198  0  0.918557  0  0  0.132107  0  0.972739  0  0  0.136479  0  0.969001  0  0  0.116021  0.128665  0  0.976118  0
H  H30  1  0.28669581  0.52582602  0.34133496  1  0  0.12113  0  0.918658  0  0  0.132059  0  0.972842  0  0  0.136427  0  0.969115  0  0  0.116041  0.128624  0  0.976208  0
H  H31  1  0.21331917  0.97417264  0.84134741  1  0  0.121199  0  0.918618  0  0  0.13211  0  0.972799  0  0  0.13648  0  0.969065  0  0  0.116059  0.128667  0  0.976178  0
H  H32  1  0.70500722  0.68649349  0.67878648  1  0  0.111086  0  0.992686  0  0  0.117133  0  1.055662  0  0  0.121026  0  1.05333  0  0  0.107071  0.114074  0  1.05809  0
H  H33  1  0.79498218  0.81351125  0.17878361  1  0  0.111151  0  0.992813  0  0  0.1172  0  1.055727  0  0  0.1211  0  1.053376  0  0  0.107081  0.114137  0  1.058169  0
H  H34  1  0.29501221  0.31350502  0.32120997  1  0  0.111088  0  0.99263  0  0  0.117137  0  1.055573  0  0  0.12103  0  1.053241  0  0  0.107064  0.114074  0  1.058012  0
H  H35  1  0.20500313  0.18649347  0.82122501  1  0  0.111155  0  0.992851  0  0  0.117189  0  1.055772  0  0  0.121079  0  1.053444  0  0  0.107083  0.114133  0  1.058199  0
H  H36  1  0.80267843  0.52741739  0.37303358  1  0  0.116223  0  0.949468  0  0  0.123987  0  1.014021  0  0  0.127954  0  1.01107  0  0  0.116135  0.120964  0  1.016537  0
H  H37  1  0.69732727  0.97257608  0.87302692  1  0  0.116301  0  0.949502  0  0  0.124015  0  1.014079  0  0  0.127982  0  1.011129  0  0  0.116112  0.12099  0  1.016598  0
H  H38  1  0.19732999  0.47257769  0.62696490  1  0  0.116267  0  0.949531  0  0  0.123945  0  1.01417  0  0  0.127912  0  1.011219  0  0  0.116104  0.120918  0  1.016688  0
H  H39  1  0.30267041  0.02742425  0.12698102  1  0  0.116323  0  0.949493  0  0  0.124028  0  1.01408  0  0  0.127997  0  1.011128  0  0  0.116105  0.121004  0  1.016594  0
C  C40  1  0.75996851  0.35924782  0.50049769  1  0  0.689209  0  3.860727  0  0  0.637843  0  4.161463  0  0  0.671546  0  4.154349  0  0  0.227442  0.614697  0  4.163062  0
C  C41  1  0.74002535  0.14075059  0.00048922  1  0  0.689229  0  3.860642  0  0  0.637814  0  4.161453  0  0  0.671519  0  4.154341  0  0  0.227433  0.614652  0  4.163076  0
C  C42  1  0.24004008  0.64074813  0.49949470  1  0  0.689214  0  3.860627  0  0  0.637767  0  4.161518  0  0  0.67148  0  4.154403  0  0  0.227422  0.614617  0  4.163125  0
C  C43  1  0.25997398  0.85925060  0.99951332  1  0  0.689261  0  3.860574  0  0  0.637943  0  4.161262  0  0  0.671649  0  4.154146  0  0  0.227475  0.614799  0  4.162869  0
C  C44  1  0.75155315  0.48620319  0.51425846  1  0  -0.068069  0  3.747228  0  0  -0.045505  0  3.984474  0  0  -0.054347  0  4.008578  0  0  -0.012336  -0.040264  0  3.969471  0
C  C45  1  0.74845371  0.01379777  0.01426186  1  0  -0.067843  0  3.747082  0  0  -0.045323  0  3.984338  0  0  -0.054159  0  4.008434  0  0  -0.012387  -0.040072  0  3.969341  0
C  C46  1  0.24846056  0.51379620  0.48573866  1  0  -0.068202  0  3.747384  0  0  -0.045591  0  3.984616  0  0  -0.054428  0  4.008707  0  0  -0.012389  -0.040345  0  3.969615  0
C  C47  1  0.25154373  0.98620863  0.98574540  1  0  -0.0681  0  3.747116  0  0  -0.045587  0  3.984377  0  0  -0.054424  0  4.008479  0  0  -0.012523  -0.040339  0  3.969369  0
C  C48  1  0.72618579  0.53191516  0.60038005  1  0  -0.023351  0  3.645568  0  0  -0.051348  0  3.899861  0  0  -0.048536  0  3.915272  0  0  -0.064605  -0.05321  0  3.890347  0
C  C49  1  0.77379508  0.96808872  0.10037593  1  0  -0.0235  0  3.645759  0  0  -0.051478  0  3.899971  0  0  -0.048672  0  3.915386  0  0  -0.064566  -0.05334  0  3.890455  0
C  C50  1  0.27381944  0.46808600  0.39961978  1  0  -0.023389  0  3.645574  0  0  -0.051432  0  3.89989  0  0  -0.048618  0  3.915291  0  0  -0.064694  -0.053304  0  3.890379  0
C  C51  1  0.22619923  0.03191683  0.89962661  1  0  -0.023341  0  3.645599  0  0  -0.051306  0  3.899838  0  0  -0.048495  0  3.915242  0  0  -0.064558  -0.05317  0  3.890326  0
C  C52  1  0.72049422  0.65067926  0.61178414  1  0  -0.051795  0  3.658901  0  0  -0.077623  0  3.916279  0  0  -0.078999  0  3.933027  0  0  -0.076585  -0.077093  0  3.906181  0
C  C53  1  0.77949943  0.84931937  0.11178778  1  0  -0.051881  0  3.658934  0  0  -0.077608  0  3.916096  0  0  -0.078986  0  3.932848  0  0  -0.076617  -0.077077  0  3.906001  0
C  C54  1  0.27952191  0.34931753  0.38821163  1  0  -0.051785  0  3.658279  0  0  -0.077543  0  3.915536  0  0  -0.078924  0  3.9323  0  0  -0.07645  -0.077017  0  3.905444  0
C  C55  1  0.22050060  0.15068528  0.88822016  1  0  -0.052009  0  3.65915  0  0  -0.07778  0  3.916422  0  0  -0.079153  0  3.933172  0  0  -0.076695  -0.077249  0  3.906326  0
C  C56  1  0.73591565  0.72567853  0.53761692  1  0  -0.036738  0  3.682735  0  0  -0.026163  0  3.917055  0  0  -0.028014  0  3.934411  0  0  0.002046  -0.025638  0  3.907335  0
C  C57  1  0.76406467  0.77432360  0.03761787  1  0  -0.036706  0  3.682743  0  0  -0.026124  0  3.917056  0  0  -0.027979  0  3.934417  0  0  0.00212  -0.025596  0  3.907337  0
C  C58  1  0.26408376  0.27431573  0.46237953  1  0  -0.036632  0  3.682396  0  0  -0.026022  0  3.916735  0  0  -0.027879  0  3.934089  0  0  0.001996  -0.025492  0  3.90701  0
C  C59  1  0.23591439  0.22567941  0.96239075  1  0  -0.036545  0  3.682719  0  0  -0.025992  0  3.917007  0  0  -0.027852  0  3.934369  0  0  0.002157  -0.025445  0  3.907312  0
C  C60  1  0.76658560  0.67867615  0.45180499  1  0  -0.133494  0  3.724448  0  0  -0.116121  0  3.97474  0  0  -0.122486  0  3.994749  0  0  -0.008449  -0.112319  0  3.962626  0
C  C61  1  0.73340707  0.82132088  0.95180515  1  0  -0.133217  0  3.724838  0  0  -0.115906  0  3.975165  0  0  -0.122276  0  3.995183  0  0  -0.0084  -0.112107  0  3.963062  0
C  C62  1  0.23342092  0.32132414  0.54818808  1  0  -0.1333  0  3.72464  0  0  -0.115996  0  3.975015  0  0  -0.122361  0  3.995034  0  0  -0.008399  -0.11219  0  3.962887  0
C  C63  1  0.26657546  0.17868472  0.04820549  1  0  -0.13351  0  3.72499  0  0  -0.116058  0  3.975158  0  0  -0.122414  0  3.995155  0  0  -0.008509  -0.112351  0  3.963191  0
C  C64  1  0.77503178  0.56088648  0.43993579  1  0  -0.05708  0  3.71762  0  0  -0.096729  0  3.974598  0  0  -0.094724  0  3.993486  0  0  -0.072532  -0.098049  0  3.962625  0
C  C65  1  0.72495995  0.93910881  0.93993154  1  0  -0.057456  0  3.717551  0  0  -0.096991  0  3.974486  0  0  -0.094988  0  3.993376  0  0  -0.072517  -0.098312  0  3.962527  0
C  C66  1  0.22495289  0.43910784  0.56006268  1  0  -0.057176  0  3.717934  0  0  -0.096743  0  3.974914  0  0  -0.094737  0  3.9938  0  0  -0.072439  -0.098061  0  3.962943  0
C  C67  1  0.27503307  0.06089760  0.06007978  1  0  -0.057204  0  3.717679  0  0  -0.096789  0  3.9746  0  0  -0.094789  0  3.993481  0  0  -0.072368  -0.098087  0  3.962668  0
C  C68  1  0.71312187  0.85189965  0.54986530  1  0  0.710552  0  3.848055  0  0  0.660775  0  4.148552  0  0  0.696343  0  4.135229  0  0  0.232584  0.636214  0  4.149419  0
C  C69  1  0.78687622  0.64809980  0.04986880  1  0  0.710935  0  3.847388  0  0  0.661058  0  4.148085  0  0  0.696628  0  4.134756  0  0  0.232818  0.636493  0  4.148954  0
C  C70  1  0.28686481  0.14809726  0.45013656  1  0  0.710636  0  3.847995  0  0  0.660751  0  4.148648  0  0  0.69632  0  4.13532  0  0  0.232607  0.636186  0  4.149509  0
C  C71  1  0.21312504  0.35191091  0.95013373  1  0  0.710703  0  3.847739  0  0  0.660841  0  4.148417  0  0  0.696415  0  4.135091  0  0  0.232658  0.636285  0  4.14928  0
S  S72  1  0.81122455  0.77314083  0.35865988  1  0  1.368644  0  5.553551  0  0  1.271418  0  6.067478  0  0  1.320078  0  6.041867  0  0  0.54709  1.236273  0  6.080574  0
S  S73  1  0.68875626  0.72685708  0.85866519  1  0  1.368716  0  5.553552  0  0  1.271531  0  6.067451  0  0  1.320186  0  6.041849  0  0  0.547158  1.236382  0  6.080553  0
S  S74  1  0.18875988  0.22685956  0.64133454  1  0  1.368656  0  5.55376  0  0  1.271475  0  6.067644  0  0  1.32013  0  6.042047  0  0  0.547165  1.236333  0  6.080728  0
S  S75  1  0.31124237  0.27314065  0.14134478  1  0  1.368619  0  5.55406  0  0  1.271331  0  6.068016  0  0  1.320001  0  6.042386  0  0  0.546909  1.236186  0  6.081138  0
O  O76  1  0.80188313  0.10590871  0.44153937  1  0  -0.920525  0  1.945363  0  0  -0.874891  0  2.133429  0  0  -0.895856  0  2.102241  0  0  -0.617661  -0.850262  0  2.158288  0
O  O77  1  0.69812176  0.39409328  0.94154304  1  0  -0.92052  0  1.945334  0  0  -0.874863  0  2.133379  0  0  -0.895811  0  2.10215  0  0  -0.617615  -0.850236  0  2.158228  0
O  O78  1  0.19812140  0.89408899  0.55845505  1  0  -0.920416  0  1.945602  0  0  -0.874815  0  2.133741  0  0  -0.895754  0  2.102405  0  0  -0.617536  -0.850178  0  2.158592  0
O  O79  1  0.30189205  0.60591391  0.05845746  1  0  -0.92053  0  1.945333  0  0  -0.874839  0  2.13337  0  0  -0.895813  0  2.10216  0  0  -0.61766  -0.850211  0  2.158221  0
O  O80  1  0.46324849  0.96923643  0.68623626  1  0  -0.902884  0  1.842476  0  0  -0.863739  0  2.02176  0  0  -0.883093  0  1.991058  0  0  -0.648678  -0.840069  0  2.049335  0
O  O81  1  0.03675387  0.53076744  0.18623802  1  0  -0.902829  0  1.842589  0  0  -0.863598  0  2.02195  0  0  -0.88294  0  1.991246  0  0  -0.648656  -0.839927  0  2.049523  0
O  O82  1  0.53675646  0.03075607  0.31376019  1  0  -0.902889  0  1.842448  0  0  -0.863744  0  2.021721  0  0  -0.883087  0  1.991016  0  0  -0.648742  -0.840072  0  2.049308  0
O  O83  1  0.96324487  0.46923809  0.81376519  1  0  -0.902904  0  1.842462  0  0  -0.863698  0  2.0218  0  0  -0.883047  0  1.991105  0  0  -0.648678  -0.840028  0  2.049369  0
O  O84  1  0.76620700  0.14665668  0.74385233  1  0  -0.924304  0  1.852359  0  0  -0.886671  0  2.039312  0  0  -0.904561  0  2.005635  0  0  -0.661526  -0.861963  0  2.069782  0
O  O85  1  0.73381821  0.35334168  0.24385953  1  0  -0.924088  0  1.852479  0  0  -0.886466  0  2.039434  0  0  -0.904349  0  2.005762  0  0  -0.661437  -0.861775  0  2.069933  0
O  O86  1  0.23381082  0.85331930  0.25614007  1  0  -0.924227  0  1.85242  0  0  -0.886565  0  2.039382  0  0  -0.904465  0  2.005755  0  0  -0.6615  -0.861862  0  2.069851  0
O  O87  1  0.26616159  0.64667952  0.75614165  1  0  -0.924048  0  1.852655  0  0  -0.886415  0  2.039562  0  0  -0.904306  0  2.005905  0  0  -0.661374  -0.861709  0  2.07003  0
O  O88  1  0.72922090  0.29251433  0.56865610  1  0  -0.755125  0  2.072191  0  0  -0.724356  0  2.338302  0  0  -0.749273  0  2.328401  0  0  -0.413491  -0.694546  0  2.348153  0
O  O89  1  0.77078132  0.20748667  0.06865660  1  0  -0.755125  0  2.071887  0  0  -0.724341  0  2.33801  0  0  -0.749264  0  2.328121  0  0  -0.413505  -0.694539  0  2.347882  0
O  O90  1  0.27077461  0.70748254  0.43133832  1  0  -0.755166  0  2.072241  0  0  -0.724359  0  2.338369  0  0  -0.749271  0  2.32846  0  0  -0.413538  -0.694538  0  2.348193  0
O  O91  1  0.22922366  0.79252056  0.93134256  1  0  -0.755227  0  2.072183  0  0  -0.724461  0  2.338239  0  0  -0.74938  0  2.32833  0  0  -0.41355  -0.694647  0  2.348088  0
O  O92  1  0.79857935  0.32372847  0.42147534  1  0  -0.630133  0  2.024446  0  0  -0.563984  0  2.237061  0  0  -0.591149  0  2.229876  0  0  -0.299107  -0.545716  0  2.242248  0
O  O93  1  0.70143008  0.17627177  0.92146603  1  0  -0.630195  0  2.024485  0  0  -0.564026  0  2.237164  0  0  -0.591196  0  2.229982  0  0  -0.299071  -0.54575  0  2.242354  0
O  O94  1  0.20141616  0.67626840  0.57851637  1  0  -0.62999  0  2.024425  0  0  -0.563791  0  2.236965  0  0  -0.591004  0  2.229796  0  0  -0.299046  -0.545545  0  2.242179  0
O  O95  1  0.29856736  0.82373463  0.07853853  1  0  -0.630065  0  2.024436  0  0  -0.563995  0  2.237132  0  0  -0.591167  0  2.229951  0  0  -0.299009  -0.545733  0  2.242312  0
O  O96  1  0.62130993  0.81165517  0.33299738  1  0  -0.690338  0  2.017474  0  0  -0.64723  0  2.275179  0  0  -0.669276  0  2.261373  0  0  -0.346005  -0.623034  0  2.285894  0
O  O97  1  0.87868805  0.68833919  0.83300684  1  0  -0.690365  0  2.017178  0  0  -0.647312  0  2.274931  0  0  -0.669369  0  2.261135  0  0  -0.346131  -0.623111  0  2.285648  0
O  O98  1  0.37867962  0.18834866  0.66700110  1  0  -0.690363  0  2.017424  0  0  -0.647289  0  2.275155  0  0  -0.669341  0  2.261353  0  0  -0.34606  -0.623088  0  2.285869  0
O  O99  1  0.12131024  0.31165681  0.16700313  1  0  -0.690458  0  2.017304  0  0  -0.64735  0  2.275023  0  0  -0.6694  0  2.261214  0  0  -0.346076  -0.623151  0  2.28574  0
O  O100  1  0.95766346  0.86790913  0.39178151  1  0  -0.75284  0  2.026025  0  0  -0.707327  0  2.292591  0  0  -0.729417  0  2.27871  0  0  -0.374641  -0.681632  0  2.302976  0
O  O101  1  0.54232396  0.63209136  0.89179222  1  0  -0.752949  0  2.026284  0  0  -0.707414  0  2.292855  0  0  -0.729459  0  2.278877  0  0  -0.37459  -0.68171  0  2.30324  0
O  O102  1  0.04233422  0.13209120  0.60820074  1  0  -0.752884  0  2.026208  0  0  -0.707382  0  2.2928  0  0  -0.729452  0  2.278878  0  0  -0.374597  -0.681682  0  2.303184  0
O  O103  1  0.45766661  0.36790293  0.10820896  1  0  -0.752798  0  2.026299  0  0  -0.707218  0  2.292805  0  0  -0.729298  0  2.278899  0  0  -0.374448  -0.68152  0  2.303189  0
O  O104  1  0.89687981  0.70730554  0.28596090  1  0  -0.682447  0  2.018161  0  0  -0.61662  0  2.248975  0  0  -0.638917  0  2.234076  0  0  -0.318351  -0.60152  0  2.260042  0
O  O105  1  0.60310297  0.79268366  0.78596581  1  0  -0.682445  0  2.018248  0  0  -0.616666  0  2.249064  0  0  -0.638935  0  2.234145  0  0  -0.318384  -0.601562  0  2.260127  0
O  O106  1  0.10310441  0.29267924  0.71403825  1  0  -0.682478  0  2.018276  0  0  -0.616655  0  2.24906  0  0  -0.638937  0  2.234155  0  0  -0.318412  -0.601564  0  2.260138  0
O  O107  1  0.39690267  0.20731230  0.21404010  1  0  -0.682356  0  2.018507  0  0  -0.616557  0  2.249358  0  0  -0.638852  0  2.234455  0  0  -0.318256  -0.601395  0  2.260379  0
O  O108  1  0.57528641  0.89540626  0.50773656  1  0  -0.799019  0  2.208483  0  0  -0.760863  0  2.471566  0  0  -0.787752  0  2.46209  0  0  -0.41212  -0.723805  0  2.476946  0
O  O109  1  0.92474347  0.60460778  0.00773624  1  0  -0.799366  0  2.208071  0  0  -0.761218  0  2.471291  0  0  -0.788103  0  2.461806  0  0  -0.412341  -0.724187  0  2.476736  0
O  O110  1  0.42471829  0.10459231  0.49225448  1  0  -0.799089  0  2.208313  0  0  -0.760868  0  2.471396  0  0  -0.787736  0  2.461889  0  0  -0.41216  -0.723867  0  2.476907  0
O  O111  1  0.07526188  0.39541592  0.99227035  1  0  -0.799307  0  2.208204  0  0  -0.761108  0  2.471287  0  0  -0.788012  0  2.461826  0  0  -0.412236  -0.724027  0  2.47662  0
O  O112  1  0.82350564  0.91504322  0.60407812  1  0  -0.674776  0  2.006154  0  0  -0.631411  0  2.235245  0  0  -0.654931  0  2.222851  0  0  -0.347064  -0.606243  0  2.244824  0
O  O113  1  0.67648398  0.58495196  0.10406706  1  0  -0.674916  0  2.006087  0  0  -0.631528  0  2.23528  0  0  -0.655043  0  2.222885  0  0  -0.347157  -0.606357  0  2.244858  0
O  O114  1  0.17650278  0.08495186  0.39591900  1  0  -0.674916  0  2.006167  0  0  -0.631523  0  2.235342  0  0  -0.655039  0  2.222949  0  0  -0.347105  -0.606347  0  2.244924  0
O  O115  1  0.32351455  0.41503797  0.89592938  1  0  -0.674835  0  2.00624  0  0  -0.631439  0  2.235408  0  0  -0.65495  0  2.223012  0  0  -0.347072  -0.606273  0  2.24498  0
