# generated using pymatgen
data_SnH16C13O4
_symmetry_space_group_name_H-M   'P 1'
_cell_length_a   10.63068252
_cell_length_b   11.53998674
_cell_length_c   11.91124317
_cell_angle_alpha   107.57492521
_cell_angle_beta   90.00016827
_cell_angle_gamma   89.99993594
_symmetry_Int_Tables_number   1
_chemical_formula_structural   SnH16C13O4
_chemical_formula_sum   'Sn4 H64 C52 O16'
_cell_volume   1393.03996663
_cell_formula_units_Z   4
loop_
 _symmetry_equiv_pos_site_id
 _symmetry_equiv_pos_as_xyz
  1  'x, y, z'
loop_
 _atom_site_type_symbol
 _atom_site_label
 _atom_site_symmetry_multiplicity
 _atom_site_fract_x
 _atom_site_fract_y
 _atom_site_fract_z
 _atom_site_occupancy
 _atom_site_hle17_bader_spin_density
 _atom_site_hle17_ddec_charge
 _atom_site_hle17_ddec_spin_density
 _atom_site_hle17_ddec_sum_bond_order
 _atom_site_hle17_magmom
 _atom_site_hse06_10hf_bader_spin_density
 _atom_site_hse06_10hf_ddec_charge
 _atom_site_hse06_10hf_ddec_spin_density
 _atom_site_hse06_10hf_ddec_sum_bond_order
 _atom_site_hse06_10hf_magmom
 _atom_site_hse06_bader_spin_density
 _atom_site_hse06_ddec_charge
 _atom_site_hse06_ddec_spin_density
 _atom_site_hse06_ddec_sum_bond_order
 _atom_site_hse06_magmom
 _atom_site_pbe_bader_spin_density
 _atom_site_pbe_cm5_charge
 _atom_site_pbe_ddec_charge
 _atom_site_pbe_ddec_spin_density
 _atom_site_pbe_ddec_sum_bond_order
 _atom_site_pbe_magmom
Sn  Sn0  1  0.85930486  0.97235730  0.19771350  1  0  1.365696  0  2.87207  0  0  1.237533  0  3.354902  0  0  1.275744  0  3.339559  0  0  0.519873  1.211258  0  3.365105  0
Sn  Sn1  1  0.35931325  0.02764007  0.30228293  1  0  1.365642  0  2.872231  0  0  1.237532  0  3.355006  0  0  1.275741  0  3.339665  0  0  0.519868  1.211246  0  3.365212  0
Sn  Sn2  1  0.14068372  0.02763609  0.80227959  1  0  1.365679  0  2.872182  0  0  1.237511  0  3.355034  0  0  1.27572  0  3.339694  0  0  0.519858  1.211231  0  3.365231  0
Sn  Sn3  1  0.64069131  0.97236058  0.69771568  1  0  1.365719  0  2.872095  0  0  1.23755  0  3.354985  0  0  1.275764  0  3.339637  0  0  0.519871  1.211257  0  3.365197  0
H  H4  1  0.90581912  0.22977781  0.39432270  1  0  0.109905  0  1.004846  0  0  0.115577  0  1.073053  0  0  0.119659  0  1.071271  0  0  0.103578  0.112669  0  1.074565  0
H  H5  1  0.40581843  0.77021951  0.10567971  1  0  0.109895  0  1.004874  0  0  0.115575  0  1.073068  0  0  0.119664  0  1.071267  0  0  0.103586  0.112664  0  1.074586  0
H  H6  1  0.09418639  0.77021828  0.60567624  1  0  0.109914  0  1.004981  0  0  0.115611  0  1.073138  0  0  0.119704  0  1.071324  0  0  0.103588  0.112702  0  1.074656  0
H  H7  1  0.59418426  0.22978202  0.89432252  1  0  0.109861  0  1.004909  0  0  0.115551  0  1.073094  0  0  0.119635  0  1.071307  0  0  0.103572  0.112643  0  1.07461  0
H  H8  1  0.13028775  0.32778008  0.55826390  1  0  0.091019  0  0.946283  0  0  0.100367  0  1.01314  0  0  0.103438  0  1.010364  0  0  0.104238  0.098092  0  1.015251  0
H  H9  1  0.63028899  0.67222474  0.94173881  1  0  0.091026  0  0.946223  0  0  0.10036  0  1.013093  0  0  0.103442  0  1.010308  0  0  0.104232  0.098083  0  1.015204  0
H  H10  1  0.86970553  0.67222416  0.44174166  1  0  0.091014  0  0.946247  0  0  0.100339  0  1.013125  0  0  0.103417  0  1.010347  0  0  0.10421  0.098056  0  1.015243  0
H  H11  1  0.36970993  0.32777683  0.05825839  1  0  0.090996  0  0.946307  0  0  0.100338  0  1.013171  0  0  0.10341  0  1.010392  0  0  0.104224  0.098055  0  1.015289  0
H  H12  1  0.09443885  0.50483104  0.72308450  1  0  0.090876  0  0.974961  0  0  0.098391  0  1.044245  0  0  0.101383  0  1.042717  0  0  0.09547  0.096217  0  1.045497  0
H  H13  1  0.59443977  0.49517199  0.77691423  1  0  0.090889  0  0.974949  0  0  0.098384  0  1.044249  0  0  0.101374  0  1.042724  0  0  0.09547  0.096218  0  1.045491  0
H  H14  1  0.90555537  0.49516595  0.27691554  1  0  0.090829  0  0.974933  0  0  0.098336  0  1.044243  0  0  0.101325  0  1.04272  0  0  0.095473  0.096156  0  1.045496  0
H  H15  1  0.40556010  0.50483412  0.22308350  1  0  0.090799  0  0.975021  0  0  0.098367  0  1.044264  0  0  0.10136  0  1.042733  0  0  0.095464  0.096188  0  1.04552  0
H  H16  1  0.96452323  0.67890788  0.83519197  1  0  0.093993  0  0.95986  0  0  0.107456  0  1.015189  0  0  0.11003  0  1.014451  0  0  0.101197  0.105611  0  1.015853  0
H  H17  1  0.46452235  0.32109505  0.66480938  1  0  0.093979  0  0.959837  0  0  0.107442  0  1.015165  0  0  0.110018  0  1.014425  0  0  0.101203  0.105604  0  1.015826  0
H  H18  1  0.03547099  0.32109275  0.16480748  1  0  0.093997  0  0.959891  0  0  0.107461  0  1.015214  0  0  0.110011  0  1.014506  0  0  0.101165  0.105614  0  1.015891  0
H  H19  1  0.53547846  0.67890831  0.33519172  1  0  0.094021  0  0.959839  0  0  0.107477  0  1.015172  0  0  0.110039  0  1.014451  0  0  0.101207  0.105633  0  1.015843  0
H  H20  1  0.74377529  0.70494953  0.77122888  1  0  0.121352  0  0.949606  0  0  0.135292  0  1.005086  0  0  0.138138  0  1.003744  0  0  0.112741  0.133246  0  1.006276  0
H  H21  1  0.24378029  0.29505436  0.72877301  1  0  0.121389  0  0.949632  0  0  0.135311  0  1.005123  0  0  0.138153  0  1.003789  0  0  0.112777  0.133273  0  1.006306  0
H  H22  1  0.25621799  0.29504931  0.22876583  1  0  0.121329  0  0.949632  0  0  0.135232  0  1.005161  0  0  0.138074  0  1.003827  0  0  0.112737  0.133189  0  1.006354  0
H  H23  1  0.75622427  0.70494535  0.27122952  1  0  0.121312  0  0.949618  0  0  0.135232  0  1.005122  0  0  0.138076  0  1.003784  0  0  0.112722  0.133189  0  1.006311  0
H  H24  1  0.65759688  0.47567147  0.38621331  1  0  0.047874  0  0.932246  0  0  0.055064  0  1.002534  0  0  0.054637  0  1.002447  0  0  0.107771  0.055417  0  1.002551  0
H  H25  1  0.15759652  0.52432866  0.11378593  1  0  0.047887  0  0.932263  0  0  0.055065  0  1.002532  0  0  0.054639  0  1.00244  0  0  0.107782  0.055417  0  1.00255  0
H  H26  1  0.34239451  0.52432464  0.61378227  1  0  0.047757  0  0.932297  0  0  0.054971  0  1.00261  0  0  0.054546  0  1.002522  0  0  0.107727  0.055308  0  1.002632  0
H  H27  1  0.84239205  0.47566923  0.88621606  1  0  0.047846  0  0.932301  0  0  0.055061  0  1.002559  0  0  0.054612  0  1.002495  0  0  0.107773  0.0554  0  1.002581  0
H  H28  1  0.56760095  0.37937503  0.45293104  1  0  0.064409  0  0.93466  0  0  0.071912  0  1.00185  0  0  0.072331  0  1.000395  0  0  0.119454  0.071597  0  1.002886  0
H  H29  1  0.06759931  0.62062695  0.04706516  1  0  0.064471  0  0.934584  0  0  0.071861  0  1.001866  0  0  0.07227  0  1.000418  0  0  0.119473  0.071549  0  1.002899  0
H  H30  1  0.43239891  0.62061833  0.54706624  1  0  0.064404  0  0.934638  0  0  0.071896  0  1.001874  0  0  0.072317  0  1.000422  0  0  0.119436  0.071569  0  1.002911  0
H  H31  1  0.93240056  0.37937281  0.95292815  1  0  0.064409  0  0.934704  0  0  0.071909  0  1.001882  0  0  0.072327  0  1.000427  0  0  0.11946  0.071583  0  1.00292  0
H  H32  1  0.86433091  0.02510856  0.43451153  1  0  0.152263  0  0.99968  0  0  0.172214  0  1.05508  0  0  0.174287  0  1.056746  0  0  0.085048  0.170681  0  1.054112  0
H  H33  1  0.36433172  0.97489241  0.06549102  1  0  0.152266  0  0.999643  0  0  0.172221  0  1.055042  0  0  0.174295  0  1.056708  0  0  0.085053  0.170688  0  1.054072  0
H  H34  1  0.13566801  0.97488843  0.56548767  1  0  0.152287  0  0.99972  0  0  0.172231  0  1.055129  0  0  0.174303  0  1.056799  0  0  0.085054  0.170704  0  1.054157  0
H  H35  1  0.63566815  0.02510913  0.93450954  1  0  0.152276  0  0.999646  0  0  0.172231  0  1.05504  0  0  0.174303  0  1.056707  0  0  0.085046  0.170697  0  1.054073  0
H  H36  1  0.90882978  0.87035287  0.37239610  1  0  0.148379  0  0.99997  0  0  0.165372  0  1.060367  0  0  0.167348  0  1.062085  0  0  0.08089  0.163816  0  1.059521  0
H  H37  1  0.40883183  0.12964993  0.12760459  1  0  0.148355  0  0.999981  0  0  0.165351  0  1.060373  0  0  0.167328  0  1.062089  0  0  0.08087  0.163791  0  1.059526  0
H  H38  1  0.09116632  0.12964685  0.62760475  1  0  0.148361  0  0.999986  0  0  0.165349  0  1.060379  0  0  0.167326  0  1.062096  0  0  0.080888  0.163799  0  1.059523  0
H  H39  1  0.59116615  0.87035161  0.87239597  1  0  0.148374  0  0.999955  0  0  0.165368  0  1.060349  0  0  0.167344  0  1.062066  0  0  0.08089  0.163812  0  1.059502  0
H  H40  1  0.74577250  0.91322562  0.37816929  1  0  0.163931  0  0.983896  0  0  0.182887  0  1.038479  0  0  0.18599  0  1.038474  0  0  0.088399  0.180644  0  1.038617  0
H  H41  1  0.24576988  0.08677721  0.12183099  1  0  0.163979  0  0.983911  0  0  0.182944  0  1.038477  0  0  0.186046  0  1.038472  0  0  0.088426  0.180686  0  1.038634  0
H  H42  1  0.25422642  0.08677592  0.62183043  1  0  0.163936  0  0.983906  0  0  0.182895  0  1.038477  0  0  0.185997  0  1.038472  0  0  0.088392  0.180654  0  1.038625  0
H  H43  1  0.75422810  0.91322252  0.87816819  1  0  0.163926  0  0.983884  0  0  0.182885  0  1.038467  0  0  0.185987  0  1.038461  0  0  0.088384  0.18064  0  1.038605  0
H  H44  1  0.82702037  0.17152231  0.11957264  1  0  0.154133  0  0.999632  0  0  0.171627  0  1.05816  0  0  0.17453  0  1.058538  0  0  0.081961  0.169504  0  1.058012  0
H  H45  1  0.32701487  0.82847958  0.38043009  1  0  0.154149  0  0.999629  0  0  0.171656  0  1.058141  0  0  0.174559  0  1.058519  0  0  0.081978  0.169537  0  1.057984  0
H  H46  1  0.17298420  0.82848193  0.88043292  1  0  0.154148  0  0.999632  0  0  0.171665  0  1.058127  0  0  0.174569  0  1.058503  0  0  0.081966  0.169541  0  1.057973  0
H  H47  1  0.67298311  0.17151654  0.61956465  1  0  0.154177  0  0.999575  0  0  0.171687  0  1.058087  0  0  0.174592  0  1.058463  0  0  0.08198  0.169554  0  1.057945  0
H  H48  1  0.75936454  0.20066141  0.26284209  1  0  0.152148  0  1.008639  0  0  0.168186  0  1.069298  0  0  0.171562  0  1.068831  0  0  0.081455  0.165694  0  1.06979  0
H  H49  1  0.25936142  0.79933867  0.23716076  1  0  0.15214  0  1.008621  0  0  0.16817  0  1.069296  0  0  0.171544  0  1.068833  0  0  0.081461  0.165695  0  1.069786  0
H  H50  1  0.24063815  0.79934011  0.73716182  1  0  0.152128  0  1.008654  0  0  0.168176  0  1.0693  0  0  0.171552  0  1.068834  0  0  0.08146  0.165692  0  1.069788  0
H  H51  1  0.74063844  0.20065834  0.76283677  1  0  0.152096  0  1.008719  0  0  0.168173  0  1.069325  0  0  0.171552  0  1.068855  0  0  0.081455  0.165682  0  1.069823  0
H  H52  1  0.67815605  0.10636318  0.13700342  1  0  0.157622  0  0.995775  0  0  0.176651  0  1.050202  0  0  0.179555  0  1.050786  0  0  0.086274  0.174429  0  1.050152  0
H  H53  1  0.17815606  0.89363784  0.36299782  1  0  0.157668  0  0.995922  0  0  0.176706  0  1.050322  0  0  0.179609  0  1.050905  0  0  0.086292  0.174484  0  1.050269  0
H  H54  1  0.32184569  0.89363835  0.86299881  1  0  0.157645  0  0.995926  0  0  0.176684  0  1.050325  0  0  0.179587  0  1.050909  0  0  0.086278  0.174462  0  1.050278  0
H  H55  1  0.82184662  0.10636009  0.63699830  1  0  0.157626  0  0.995893  0  0  0.17665  0  1.050312  0  0  0.179553  0  1.050897  0  0  0.08627  0.174422  0  1.050263  0
H  H56  1  0.92873767  0.77561179  0.02120729  1  0  0.15202  0  1.000556  0  0  0.166927  0  1.064225  0  0  0.170573  0  1.062627  0  0  0.082436  0.164283  0  1.065437  0
H  H57  1  0.42873794  0.22438736  0.47879237  1  0  0.152014  0  1.000516  0  0  0.166917  0  1.064198  0  0  0.170563  0  1.0626  0  0  0.082447  0.164273  0  1.065412  0
H  H58  1  0.07126407  0.22438976  0.97879159  1  0  0.152008  0  1.000581  0  0  0.16691  0  1.064263  0  0  0.170557  0  1.062661  0  0  0.082413  0.164269  0  1.065472  0
H  H59  1  0.57126098  0.77561056  0.52120459  1  0  0.152003  0  1.000547  0  0  0.166917  0  1.064214  0  0  0.170564  0  1.062615  0  0  0.082441  0.164273  0  1.065421  0
H  H60  1  0.06521655  0.83865067  0.10935474  1  0  0.155582  0  0.989353  0  0  0.174383  0  1.045161  0  0  0.177243  0  1.045382  0  0  0.086162  0.172267  0  1.045272  0
H  H61  1  0.56521920  0.16134856  0.39064483  1  0  0.155569  0  0.989316  0  0  0.174372  0  1.045125  0  0  0.177231  0  1.045348  0  0  0.08616  0.172252  0  1.045229  0
H  H62  1  0.93478519  0.16134997  0.89064387  1  0  0.15554  0  0.989327  0  0  0.174336  0  1.045156  0  0  0.177193  0  1.04538  0  0  0.086129  0.172228  0  1.045264  0
H  H63  1  0.43478537  0.83865027  0.60935324  1  0  0.155553  0  0.989353  0  0  0.174349  0  1.045171  0  0  0.177208  0  1.045394  0  0  0.086114  0.172231  0  1.045274  0
H  H64  1  0.00848714  0.90535341  0.00231692  1  0  0.143841  0  1.017316  0  0  0.163397  0  1.075623  0  0  0.165289  0  1.077482  0  0  0.084917  0.162017  0  1.074355  0
H  H65  1  0.50848834  0.09464582  0.49768418  1  0  0.143853  0  1.017364  0  0  0.163433  0  1.07564  0  0  0.165325  0  1.077498  0  0  0.08495  0.162067  0  1.074369  0
H  H66  1  0.99151460  0.09464722  0.99768337  1  0  0.143781  0  1.017347  0  0  0.163364  0  1.075626  0  0  0.165255  0  1.077485  0  0  0.084898  0.161991  0  1.074348  0
H  H67  1  0.49151246  0.90535389  0.50231667  1  0  0.143861  0  1.017371  0  0  0.163438  0  1.075644  0  0  0.165331  0  1.077501  0  0  0.084938  0.162065  0  1.074385  0
C  C68  1  0.09190994  0.14692902  0.35929966  1  0  0.686243  0  3.907313  0  0  0.638219  0  4.196434  0  0  0.673767  0  4.187621  0  0  0.218397  0.6143  0  4.20143  0
C  C69  1  0.59190244  0.85307291  0.14070331  1  0  0.686313  0  3.907295  0  0  0.638312  0  4.196354  0  0  0.673858  0  4.187541  0  0  0.218466  0.614388  0  4.201344  0
C  C70  1  0.90809557  0.85307613  0.64070534  1  0  0.686434  0  3.907309  0  0  0.638419  0  4.196376  0  0  0.673966  0  4.187561  0  0  0.218513  0.61449  0  4.201373  0
C  C71  1  0.40809742  0.14692589  0.85929727  1  0  0.686247  0  3.907367  0  0  0.638231  0  4.196456  0  0  0.673777  0  4.187643  0  0  0.218407  0.614305  0  4.20146  0
C  C72  1  0.00083400  0.23615704  0.42918951  1  0  -0.259207  0  3.693657  0  0  -0.276432  0  3.956757  0  0  -0.287469  0  3.972257  0  0  -0.105072  -0.269371  0  3.946521  0
C  C73  1  0.50083297  0.76384215  0.07081744  1  0  -0.259333  0  3.693972  0  0  -0.276576  0  3.957075  0  0  -0.287616  0  3.972582  0  0  -0.105144  -0.269512  0  3.946837  0
C  C74  1  0.99916962  0.76384446  0.57081607  1  0  -0.259405  0  3.693877  0  0  -0.27665  0  3.956962  0  0  -0.287689  0  3.972474  0  0  -0.105148  -0.269598  0  3.94674  0
C  C75  1  0.49916596  0.23615939  0.92918228  1  0  -0.259322  0  3.693925  0  0  -0.276575  0  3.957031  0  0  -0.287615  0  3.972533  0  0  -0.105136  -0.269524  0  3.946806  0
C  C76  1  0.03328452  0.32586740  0.52739135  1  0  -0.011724  0  3.738199  0  0  -0.040379  0  3.9964  0  0  -0.034518  0  4.012024  0  0  -0.072319  -0.044231  0  3.985994  0
C  C77  1  0.53328492  0.67413287  0.97261311  1  0  -0.011638  0  3.738211  0  0  -0.040285  0  3.996392  0  0  -0.034425  0  4.012016  0  0  -0.072281  -0.044126  0  3.985968  0
C  C78  1  0.96671440  0.67413136  0.47261593  1  0  -0.011627  0  3.738053  0  0  -0.04025  0  3.996212  0  0  -0.034392  0  4.011842  0  0  -0.072242  -0.044083  0  3.985794  0
C  C79  1  0.46671400  0.32586685  0.02738690  1  0  -0.011594  0  3.7383  0  0  -0.04024  0  3.996471  0  0  -0.034374  0  4.012093  0  0  -0.072291  -0.044076  0  3.986056  0
C  C80  1  0.95272224  0.42363325  0.59400229  1  0  -0.006115  0  3.838534  0  0  0.008259  0  4.077557  0  0  0.005131  0  4.101399  0  0  -0.02185  0.010474  0  4.061264  0
C  C81  1  0.45272184  0.57637060  0.90599846  1  0  -0.006047  0  3.838573  0  0  0.008338  0  4.077548  0  0  0.005201  0  4.101407  0  0  -0.021809  0.01055  0  4.061241  0
C  C82  1  0.04728232  0.57636828  0.40599910  1  0  -0.006096  0  3.838516  0  0  0.008293  0  4.077505  0  0  0.005156  0  4.10136  0  0  -0.021838  0.010476  0  4.061166  0
C  C83  1  0.54727802  0.42362729  0.09400353  1  0  -0.006225  0  3.838644  0  0  0.008183  0  4.077675  0  0  0.005051  0  4.101526  0  0  -0.021866  0.010383  0  4.06136  0
C  C84  1  0.99807410  0.51358951  0.69566676  1  0  -0.114068  0  3.741543  0  0  -0.144361  0  4.009401  0  0  -0.144875  0  4.028631  0  0  -0.09824  -0.143983  0  3.996501  0
C  C85  1  0.49807630  0.48641433  0.80433326  1  0  -0.114181  0  3.741447  0  0  -0.144469  0  4.009329  0  0  -0.144985  0  4.028569  0  0  -0.098286  -0.144093  0  3.996414  0
C  C86  1  0.00192200  0.48641020  0.30433493  1  0  -0.114049  0  3.741322  0  0  -0.144351  0  4.009192  0  0  -0.144864  0  4.028419  0  0  -0.098279  -0.143987  0  3.996276  0
C  C87  1  0.50192451  0.51358721  0.19566645  1  0  -0.113994  0  3.74155  0  0  -0.144338  0  4.009397  0  0  -0.144851  0  4.028625  0  0  -0.098301  -0.143971  0  3.996495  0
C  C88  1  0.92480510  0.61134028  0.75877095  1  0  -0.074896  0  3.801313  0  0  -0.094284  0  4.071736  0  0  -0.095885  0  4.091662  0  0  -0.102383  -0.093261  0  4.058293  0
C  C89  1  0.42480720  0.38866359  0.74122805  1  0  -0.074736  0  3.800996  0  0  -0.094101  0  4.071379  0  0  -0.095702  0  4.091302  0  0  -0.102322  -0.093076  0  4.057945  0
C  C90  1  0.07519101  0.38866130  0.24122374  1  0  -0.074842  0  3.80102  0  0  -0.09421  0  4.071411  0  0  -0.095792  0  4.091337  0  0  -0.102314  -0.09319  0  4.057996  0
C  C91  1  0.57519642  0.61133795  0.25877167  1  0  -0.074962  0  3.801105  0  0  -0.094335  0  4.071515  0  0  -0.095929  0  4.091443  0  0  -0.102373  -0.093322  0  4.058095  0
C  C92  1  0.80072174  0.62716497  0.72420497  1  0  -0.158895  0  3.748546  0  0  -0.189017  0  4.01539  0  0  -0.19019  0  4.032227  0  0  -0.100039  -0.188272  0  4.004289  0
C  C93  1  0.30072493  0.37283618  0.77579542  1  0  -0.15901  0  3.748554  0  0  -0.189132  0  4.015422  0  0  -0.190303  0  4.032259  0  0  -0.100071  -0.188377  0  4.00435  0
C  C94  1  0.19927436  0.37283386  0.27579142  1  0  -0.158819  0  3.74834  0  0  -0.188959  0  4.015192  0  0  -0.190132  0  4.032026  0  0  -0.100004  -0.188197  0  4.004135  0
C  C95  1  0.69928246  0.62716263  0.22420517  1  0  -0.158858  0  3.748379  0  0  -0.188935  0  4.015235  0  0  -0.190106  0  4.03207  0  0  -0.100025  -0.188181  0  4.00417  0
C  C96  1  0.75745818  0.54174245  0.62336494  1  0  0.160299  0  3.855248  0  0  0.151145  0  4.118919  0  0  0.157224  0  4.135309  0  0  0.068913  0.146764  0  4.108006  0
C  C97  1  0.25745877  0.45825963  0.87663477  1  0  0.160277  0  3.855251  0  0  0.151115  0  4.118919  0  0  0.157199  0  4.13531  0  0  0.068873  0.146741  0  4.108023  0
C  C98  1  0.24254074  0.45825732  0.37662753  1  0  0.160363  0  3.855234  0  0  0.151261  0  4.118779  0  0  0.157322  0  4.135173  0  0  0.06901  0.146884  0  4.107883  0
C  C99  1  0.74254956  0.54173460  0.12337033  1  0  0.160341  0  3.855503  0  0  0.151099  0  4.119282  0  0  0.157161  0  4.135675  0  0  0.068874  0.146721  0  4.108376  0
C  C100  1  0.82983919  0.44232078  0.56132165  1  0  0.133329  0  3.774739  0  0  0.120911  0  4.022577  0  0  0.127199  0  4.040367  0  0  0.07958  0.116746  0  4.010232  0
C  C101  1  0.32983892  0.55768309  0.93867962  1  0  0.133207  0  3.774779  0  0  0.120824  0  4.022579  0  0  0.127102  0  4.040375  0  0  0.079574  0.116656  0  4.010236  0
C  C102  1  0.17015785  0.55767533  0.43867309  1  0  0.133372  0  3.774684  0  0  0.120922  0  4.022502  0  0  0.127205  0  4.040293  0  0  0.079567  0.11675  0  4.010124  0
C  C103  1  0.67016282  0.44231475  0.06132907  1  0  0.133544  0  3.774629  0  0  0.121054  0  4.02259  0  0  0.127333  0  4.040382  0  0  0.079733  0.116886  0  4.010227  0
C  C104  1  0.64981390  0.43856126  0.46102605  1  0  0.266549  0  3.509167  0  0  0.188969  0  3.78847  0  0  0.203751  0  3.787845  0  0  0.038505  0.178871  0  3.788553  0
C  C105  1  0.14981324  0.56143887  0.03897317  1  0  0.266435  0  3.509181  0  0  0.188985  0  3.788421  0  0  0.203776  0  3.787778  0  0  0.038462  0.178884  0  3.788499  0
C  C106  1  0.35018502  0.56143579  0.53896561  1  0  0.266814  0  3.508914  0  0  0.189091  0  3.78844  0  0  0.203844  0  3.787813  0  0  0.038485  0.178993  0  3.788525  0
C  C107  1  0.85018756  0.43855810  0.96103022  1  0  0.266608  0  3.509252  0  0  0.188988  0  3.788543  0  0  0.203764  0  3.787916  0  0  0.038441  0.178889  0  3.788627  0
C  C108  1  0.84213410  0.94038225  0.36555984  1  0  -0.714417  0  3.512667  0  0  -0.754343  0  3.74157  0  0  -0.767761  0  3.748287  0  0  -0.337809  -0.745037  0  3.737221  0
C  C109  1  0.34213250  0.05962329  0.13444150  1  0  -0.714404  0  3.512633  0  0  -0.754356  0  3.741505  0  0  -0.767775  0  3.748224  0  0  -0.337807  -0.745046  0  3.737181  0
C  C110  1  0.15786482  0.05961840  0.63443794  1  0  -0.714384  0  3.512704  0  0  -0.754304  0  3.741601  0  0  -0.767724  0  3.748323  0  0  -0.337776  -0.745005  0  3.73725  0
C  C111  1  0.65786548  0.94038098  0.86555987  1  0  -0.71441  0  3.512603  0  0  -0.754341  0  3.741498  0  0  -0.76776  0  3.748216  0  0  -0.337782  -0.745039  0  3.737154  0
C  C112  1  0.77095071  0.13268894  0.17652125  1  0  -0.715314  0  3.507906  0  0  -0.753177  0  3.734032  0  0  -0.766844  0  3.738893  0  0  -0.335376  -0.74366  0  3.730959  0
C  C113  1  0.27094780  0.86731569  0.32348214  1  0  -0.715406  0  3.508098  0  0  -0.753298  0  3.73423  0  0  -0.766965  0  3.739092  0  0  -0.335428  -0.743781  0  3.731143  0
C  C114  1  0.22905198  0.86731530  0.82348431  1  0  -0.71536  0  3.508121  0  0  -0.753271  0  3.734203  0  0  -0.766942  0  3.739063  0  0  -0.335398  -0.743752  0  3.731117  0
C  C115  1  0.72905300  0.13268587  0.67651506  1  0  -0.715315  0  3.508035  0  0  -0.753232  0  3.734124  0  0  -0.766904  0  3.738981  0  0  -0.335409  -0.743719  0  3.731064  0
C  C116  1  0.98071084  0.85863828  0.06592296  1  0  -0.706483  0  3.511198  0  0  -0.748275  0  3.741176  0  0  -0.761361  0  3.745882  0  0  -0.337224  -0.73904  0  3.737955  0
C  C117  1  0.48071389  0.14136175  0.43407961  1  0  -0.706455  0  3.511182  0  0  -0.748294  0  3.741161  0  0  -0.761379  0  3.745866  0  0  -0.337261  -0.739058  0  3.737942  0
C  C118  1  0.01929091  0.14136326  0.93407676  1  0  -0.706364  0  3.511222  0  0  -0.748187  0  3.741211  0  0  -0.76127  0  3.74592  0  0  -0.337135  -0.738946  0  3.737969  0
C  C119  1  0.51928974  0.85863797  0.56592040  1  0  -0.706483  0  3.511263  0  0  -0.7483  0  3.741214  0  0  -0.761386  0  3.745919  0  0  -0.337227  -0.739067  0  3.737996  0
O  O120  1  0.05559513  0.06709982  0.26531989  1  0  -0.64725  0  2.00379  0  0  -0.575113  0  2.235752  0  0  -0.601788  0  2.229111  0  0  -0.286573  -0.556527  0  2.239718  0
O  O121  1  0.55559349  0.93290394  0.23468352  1  0  -0.647294  0  2.003796  0  0  -0.57519  0  2.235802  0  0  -0.601865  0  2.22916  0  0  -0.286615  -0.556565  0  2.239743  0
O  O122  1  0.94440943  0.93290353  0.73468288  1  0  -0.647323  0  2.003984  0  0  -0.575188  0  2.235983  0  0  -0.60186  0  2.229334  0  0  -0.286613  -0.556573  0  2.239928  0
O  O123  1  0.44441013  0.06709942  0.76531758  1  0  -0.647262  0  2.003922  0  0  -0.575138  0  2.235915  0  0  -0.601811  0  2.229264  0  0  -0.286582  -0.556513  0  2.239864  0
O  O124  1  0.20684052  0.15503100  0.39462433  1  0  -0.629252  0  2.040709  0  0  -0.557176  0  2.280635  0  0  -0.584727  0  2.274548  0  0  -0.285304  -0.538014  0  2.284038  0
O  O125  1  0.70683386  0.84497639  0.10537637  1  0  -0.629183  0  2.040587  0  0  -0.55712  0  2.280548  0  0  -0.584672  0  2.274472  0  0  -0.28524  -0.537955  0  2.283943  0
O  O126  1  0.79316216  0.84496867  0.60538407  1  0  -0.629241  0  2.040665  0  0  -0.557191  0  2.280639  0  0  -0.584744  0  2.274558  0  0  -0.285282  -0.538009  0  2.284026  0
O  O127  1  0.29316506  0.15502425  0.89462224  1  0  -0.629174  0  2.040558  0  0  -0.557089  0  2.28048  0  0  -0.584638  0  2.274397  0  0  -0.285244  -0.537931  0  2.283884  0
O  O128  1  0.76229403  0.37077529  0.46754642  1  0  -0.282281  0  2.242664  0  0  -0.210581  0  2.467374  0  0  -0.228915  0  2.469002  0  0  -0.167994  -0.197578  0  2.465789  0
O  O129  1  0.26229233  0.62922753  0.03245474  1  0  -0.282154  0  2.242611  0  0  -0.210474  0  2.467253  0  0  -0.228789  0  2.468865  0  0  -0.167925  -0.19747  0  2.465668  0
O  O130  1  0.23770678  0.62923446  0.53245155  1  0  -0.282378  0  2.242063  0  0  -0.210646  0  2.466826  0  0  -0.228963  0  2.468436  0  0  -0.168055  -0.197649  0  2.465235  0
O  O131  1  0.73770848  0.37076488  0.96754981  1  0  -0.282317  0  2.24235  0  0  -0.210579  0  2.467087  0  0  -0.228891  0  2.468689  0  0  -0.168017  -0.197584  0  2.465499  0
O  O132  1  0.64186062  0.53746887  0.56967285  1  0  -0.29159  0  2.199246  0  0  -0.22761  0  2.43028  0  0  -0.244483  0  2.430727  0  0  -0.177108  -0.215627  0  2.429736  0
O  O133  1  0.14186139  0.46253049  0.93032743  1  0  -0.291524  0  2.199246  0  0  -0.227567  0  2.430257  0  0  -0.244454  0  2.430709  0  0  -0.177098  -0.215587  0  2.429719  0
O  O134  1  0.35813548  0.46253364  0.43031792  1  0  -0.291829  0  2.199318  0  0  -0.227759  0  2.430337  0  0  -0.244593  0  2.430772  0  0  -0.177159  -0.215786  0  2.429809  0
O  O135  1  0.85814130  0.53745735  0.06967828  1  0  -0.291709  0  2.199559  0  0  -0.227626  0  2.430563  0  0  -0.24446  0  2.430985  0  0  -0.177103  -0.215655  0  2.43003  0
