# generated using pymatgen
data_Zn4H18C33(NO7)2
_symmetry_space_group_name_H-M   'P 1'
_cell_length_a   18.04500684
_cell_length_b   18.29157653
_cell_length_c   18.27165505
_cell_angle_alpha   89.99035292
_cell_angle_beta   119.65807424
_cell_angle_gamma   119.76498209
_symmetry_Int_Tables_number   1
_chemical_formula_structural   Zn4H18C33(NO7)2
_chemical_formula_sum   'Zn8 H36 C66 N4 O28'
_cell_volume   4301.79521533
_cell_formula_units_Z   2
loop_
 _symmetry_equiv_pos_site_id
 _symmetry_equiv_pos_as_xyz
  1  'x, y, z'
loop_
 _atom_site_type_symbol
 _atom_site_label
 _atom_site_symmetry_multiplicity
 _atom_site_fract_x
 _atom_site_fract_y
 _atom_site_fract_z
 _atom_site_occupancy
 _atom_site_pbe_bader_charge
 _atom_site_pbe_bader_spin_density
 _atom_site_pbe_cm5_charge
 _atom_site_pbe_ddec_charge
 _atom_site_pbe_ddec_spin_density
 _atom_site_pbe_ddec_sum_bond_order
 _atom_site_pbe_magmom
Zn  Zn0  1  0.58464506  0.38188220  0.79114371  1  1.313955  0  0.669215  0.962868  0  2.360631  0
Zn  Zn1  1  0.41535367  0.61811611  0.20885506  1  1.313923  0  0.669202  0.962887  0  2.360641  0
Zn  Zn2  1  0.58759040  0.20586116  0.79210504  1  1.300357  0  0.663899  0.949385  0  2.407965  0
Zn  Zn3  1  0.41240878  0.79413782  0.20789285  1  1.300449  0  0.663896  0.949384  0  2.407925  0
Zn  Zn4  1  0.41362985  0.20572339  0.61849256  1  1.299647  0  0.667589  0.957653  0  2.380016  0
Zn  Zn5  1  0.58636803  0.79427558  0.38150688  1  1.299721  0  0.667596  0.957689  0  2.379968  0
Zn  Zn6  1  0.41416295  0.20582195  0.79667114  1  1.299785  0  0.663143  0.953875  0  2.38694  0
Zn  Zn7  1  0.58583685  0.79417701  0.20332925  1  1.299756  0  0.663164  0.953912  0  2.386919  0
H  H8  1  0.32792455  0.47239224  0.92450462  1  0.045024  0  0.100207  0.085581  0  0.991099  0
H  H9  1  0.32610423  0.92266275  0.46955693  1  0.09886  0  0.102406  0.096639  0  0.991337  0
H  H10  1  0.62571536  0.02686877  0.65661396  1  0.062018  0  0.099159  0.08728  0  0.992653  0
H  H11  1  0.37428807  0.97313087  0.34338876  1  0.061981  0  0.099171  0.087298  0  0.992615  0
H  H12  1  0.45297028  0.85674201  0.52586072  1  0.089398  0  0.101154  0.086911  0  0.989765  0
H  H13  1  0.54703206  0.14325695  0.47414202  1  0.089433  0  0.101127  0.086865  0  0.989809  0
H  H14  1  0.93601077  0.34351690  0.98600421  1  0.096119  0  0.117862  0.118868  0  0.964241  0
H  H15  1  0.06398958  0.65648476  0.01399097  1  0.095974  0  0.117877  0.118896  0  0.964167  0
H  H16  1  0.06843190  0.45563956  0.93553134  1  0.094903  0  0.11792  0.116651  0  0.963653  0
H  H17  1  0.93156737  0.54436143  0.06446331  1  0.094694  0  0.117909  0.116607  0  0.963651  0
H  H18  1  0.37202681  0.34395392  0.97297252  1  0.078163  0  0.100793  0.090336  0  0.989866  0
H  H19  1  0.67207681  0.52760808  0.07549325  1  0.044977  0  0.100239  0.085642  0  0.991014  0
H  H20  1  0.62797282  0.65604573  0.02702505  1  0.07823  0  0.100781  0.090326  0  0.989856  0
H  H21  1  0.54678898  0.47329945  0.14292783  1  0.074001  0  0.10071  0.086351  0  0.99086  0
H  H22  1  0.45321155  0.52670154  0.85706908  1  0.073943  0  0.100666  0.086292  0  0.990836  0
H  H23  1  0.44568644  0.52392382  0.59186840  1  0.069499  0  0.102522  0.102736  0  0.987746  0
H  H24  1  0.55431189  0.47607581  0.40813126  1  0.06952  0  0.102541  0.102769  0  0.987726  0
H  H25  1  0.61990186  0.65726235  0.59574875  1  0.100568  0  0.102695  0.106487  0  0.987462  0
H  H26  1  0.38009646  0.34273728  0.40425145  1  0.100547  0  0.102709  0.106506  0  0.987479  0
H  H27  1  0.93631760  0.85821532  0.52972138  1  0.130832  0  0.117071  0.1157  0  0.965415  0
H  H28  1  0.06367941  0.14178429  0.47028091  1  0.130866  0  0.117075  0.115651  0  0.96544  0
H  H29  1  0.05584374  0.02883040  0.65582435  1  0.088832  0  0.117535  0.118511  0  0.964413  0
H  H30  1  0.67000033  0.07295324  0.14249656  1  0.087584  0  0.101062  0.087349  0  0.990308  0
H  H31  1  0.94415456  0.97116921  0.34417803  1  0.08864  0  0.11753  0.118531  0  0.9644  0
H  H32  1  0.24483059  0.41047029  0.45800470  1  0.022136  0  0.090305  0.081432  0  0.997911  0
H  H33  1  0.21640496  0.33363515  0.37136393  1  0.040968  0  0.091424  0.083505  0  0.998894  0
H  H34  1  0.15766567  0.39441665  0.34329163  1  0.11593  0  0.102618  0.119203  0  1.011529  0
H  H35  1  0.78359166  0.66636382  0.62863325  1  0.04087  0  0.091423  0.083523  0  0.998922  0
H  H36  1  0.75516602  0.58952868  0.54199357  1  0.022102  0  0.090341  0.081499  0  0.997933  0
H  H37  1  0.84233164  0.60558432  0.65670589  1  0.11599  0  0.102624  0.119212  0  1.011558  0
H  H38  1  0.33000061  0.92704839  0.85750330  1  0.08762  0  0.10105  0.087329  0  0.990266  0
H  H39  1  0.54630400  0.14155438  0.07505736  1  0.046976  0  0.101087  0.086835  0  0.990706  0
H  H40  1  0.45369930  0.85844792  0.92494421  1  0.047145  0  0.101068  0.086801  0  0.990764  0
H  H41  1  0.36931021  0.97032751  0.02817832  1  0.067679  0  0.100944  0.090513  0  0.990854  0
H  H42  1  0.63069353  0.02967546  0.97182401  1  0.067612  0  0.100929  0.090481  0  0.990793  0
H  H43  1  0.67389703  0.07733555  0.53044473  1  0.098445  0  0.1024  0.096654  0  0.99139  0
C  C44  1  0.50499227  0.11120810  0.89178855  1  1.543627  0  0.227018  0.609392  0  4.176927  0
C  C45  1  0.49690776  0.44450665  0.54979664  1  0.035847  0  -0.013107  -0.081056  0  3.673658  0
C  C46  1  0.56728040  0.58746085  0.55393432  1  -0.094304  0  -0.088147  -0.139399  0  3.654839  0
C  C47  1  0.43271577  0.41253746  0.44606373  1  -0.094329  0  -0.088185  -0.139484  0  3.654823  0
C  C48  1  0.03039685  0.01527093  0.58640761  1  0.013557  0  -0.057475  -0.078735  0  3.602372  0
C  C49  1  0.96960420  0.98472802  0.41359558  1  0.014517  0  -0.057507  -0.078798  0  3.60252  0
C  C50  1  0.96540965  0.92187243  0.51733259  1  -0.07182  0  -0.052946  -0.076495  0  3.592391  0
C  C51  1  0.03458948  0.07812652  0.48267020  1  -0.071978  0  -0.052998  -0.076462  0  3.592305  0
C  C52  1  0.89485154  0.94546042  0.44397531  1  0.036298  0  0.009378  -0.037301  0  3.623972  0
C  C53  1  0.10515000  0.05454119  0.55602868  1  0.036926  0  0.009378  -0.037342  0  3.623847  0
C  C54  1  0.95962831  0.04051821  0.51456578  1  0.128881  0  0.025992  0.076661  0  3.705427  0
C  C55  1  0.49501033  0.88879220  0.10821322  1  1.54367  0  0.226992  0.609346  0  4.177112  0
C  C56  1  0.04036876  0.95948340  0.48543601  1  0.129433  0  0.025984  0.076605  0  3.705481  0
C  C57  1  0.52556700  0.07791757  0.04246857  1  -0.014253  0  -0.07006  -0.060523  0  3.623196  0
C  C58  1  0.47443586  0.92208407  0.95753223  1  -0.014371  0  -0.070044  -0.060492  0  3.623179  0
C  C59  1  0.49740188  0.38780820  0.60776602  1  1.522525  0  0.22962  0.628982  0  4.147131  0
C  C60  1  0.50259557  0.61219010  0.39223266  1  1.522501  0  0.229638  0.629047  0  4.147117  0
C  C61  1  0.59470434  0.04133950  0.07846530  1  -0.029137  0  -0.070378  -0.060293  0  3.626676  0
C  C62  1  0.40529831  0.95866280  0.92153704  1  -0.029257  0  -0.070369  -0.060263  0  3.626517  0
C  C63  1  0.49554089  0.94693440  0.05177288  1  0.026176  0  -0.008618  -0.033314  0  3.651726  0
C  C64  1  0.50446239  0.05306789  0.94823032  1  0.026237  0  -0.00862  -0.033238  0  3.651606  0
C  C65  1  0.42716638  0.98387869  0.01525671  1  -0.02519  0  -0.077769  -0.069142  0  3.646138  0
C  C66  1  0.52597736  0.48430900  0.07873152  1  -0.036323  0  -0.070889  -0.060838  0  3.627338  0
C  C67  1  0.57283513  0.01612093  0.98474562  1  -0.025103  0  -0.077785  -0.069131  0  3.646114  0
C  C68  1  0.57009467  0.01451344  0.58676762  1  -0.032767  0  -0.078147  -0.067503  0  3.648639  0
C  C69  1  0.42990836  0.98548752  0.41323545  1  -0.032878  0  -0.078171  -0.067553  0  3.648592  0
C  C70  1  0.59687318  0.04376285  0.51778175  1  -0.004244  0  -0.068715  -0.060208  0  3.605334  0
C  C71  1  0.40313004  0.95623745  0.48222142  1  -0.004592  0  -0.068728  -0.060177  0  3.6053  0
C  C72  1  0.49973453  0.95002209  0.44498273  1  0.02806  0  -0.008043  -0.033061  0  3.656235  0
C  C73  1  0.50026781  0.04997687  0.55502000  1  0.02746  0  -0.008101  -0.033117  0  3.656248  0
C  C74  1  0.47386072  0.92112116  0.51532526  1  -0.071661  0  -0.069077  -0.05992  0  3.621838  0
C  C75  1  0.52614186  0.07887913  0.48467868  1  -0.071608  0  -0.069067  -0.059834  0  3.621813  0
C  C76  1  0.96521456  0.41325601  0.99216109  1  0.003892  0  -0.057438  -0.078279  0  3.604504  0
C  C77  1  0.47402293  0.51569066  0.92126418  1  -0.036126  0  -0.070832  -0.060759  0  3.627208  0
C  C78  1  0.03478661  0.58674498  0.00783559  1  0.003998  0  -0.057459  -0.078336  0  3.604453  0
C  C79  1  0.03308019  0.49012863  0.08248871  1  0.12198  0  0.027505  0.077313  0  3.704059  0
C  C80  1  0.96691951  0.50987302  0.91750780  1  0.12076  0  0.027548  0.07737  0  3.703867  0
C  C81  1  0.10549144  0.55307176  0.05244594  1  0.013711  0  0.009958  -0.03676  0  3.619336  0
C  C82  1  0.89450672  0.44692855  0.94755036  1  0.01363  0  0.009946  -0.036756  0  3.619297  0
C  C83  1  0.77862715  0.38995107  0.88792651  1  1.597078  0  0.228646  0.604001  0  4.194255  0
C  C84  1  0.22137190  0.61005058  0.11207022  1  1.597137  0  0.228524  0.603817  0  4.194281  0
C  C85  1  0.03745012  0.47473463  0.96420312  1  0.018924  0  -0.053413  -0.076822  0  3.591067  0
C  C86  1  0.96255167  0.52526635  0.03579606  1  0.017788  0  -0.05339  -0.076739  0  3.590946  0
C  C87  1  0.22109485  0.11294775  0.61391420  1  1.595719  0  0.226823  0.601676  0  4.197178  0
C  C88  1  0.46981116  0.51411148  0.55051741  1  -0.036058  0  -0.079917  -0.129596  0  3.635163  0
C  C89  1  0.77890524  0.88705454  0.38608742  1  1.595671  0  0.226713  0.601455  0  4.197244  0
C  C90  1  0.49867914  0.10625002  0.61159320  1  1.512102  0  0.228975  0.611426  0  4.166499  0
C  C91  1  0.50132726  0.89375028  0.38841263  1  1.511689  0  0.228892  0.611381  0  4.166728  0
C  C92  1  0.49801256  0.38675067  0.89165090  1  1.539029  0  0.226023  0.60799  0  4.17891  0
C  C93  1  0.50198681  0.61324764  0.10834709  1  1.539058  0  0.226027  0.608045  0  4.17872  0
C  C94  1  0.42866171  0.41350271  0.98533989  1  -0.031185  0  -0.077902  -0.068247  0  3.648611  0
C  C95  1  0.57133774  0.58649761  0.01465595  1  -0.031573  0  -0.077858  -0.0682  0  3.648494  0
C  C96  1  0.40426786  0.48390198  0.95740898  1  -0.002368  0  -0.070427  -0.059992  0  3.625383  0
C  C97  1  0.59573197  0.51609700  0.04258814  1  -0.002348  0  -0.070477  -0.060127  0  3.625224  0
C  C98  1  0.50251595  0.55606072  0.05131482  1  0.023309  0  -0.008457  -0.033897  0  3.650247  0
C  C99  1  0.53018755  0.48588682  0.44948298  1  -0.036036  0  -0.079925  -0.129582  0  3.635117  0
C  C100  1  0.49748414  0.44393961  0.94868133  1  0.023267  0  -0.008536  -0.03394  0  3.650337  0
C  C101  1  0.06678775  0.47967131  0.16809374  1  0.815798  0  0.173773  0.215032  0  4.011393  0
C  C102  1  0.93320513  0.52032968  0.83189777  1  0.81666  0  0.17386  0.215094  0  4.011531  0
C  C103  1  0.22762791  0.39731676  0.39062939  1  0.366373  0  -0.143007  -0.166732  0  3.934627  0
C  C104  1  0.77236961  0.60268355  0.60936713  1  0.366444  0  -0.143012  -0.166782  0  3.934612  0
C  C105  1  0.91564903  0.08135519  0.52805379  1  0.815174  0  0.168933  0.217552  0  4.012391  0
C  C106  1  0.08435492  0.91864909  0.47195193  1  0.814331  0  0.168889  0.217525  0  4.012077  0
C  C107  1  0.40376605  0.48120676  0.44530832  1  0.609369  0  0.093866  0.235002  0  3.730883  0
C  C108  1  0.59623183  0.51879220  0.55469167  1  0.60941  0  0.093857  0.234921  0  3.730987  0
C  C109  1  0.50309076  0.55549232  0.45020366  1  0.035851  0  -0.013084  -0.081085  0  3.673644  0
N  N110  1  0.09160197  0.46978299  0.23765637  1  -1.11537  0  -0.298833  -0.349952  0  2.745794  0
N  N111  1  0.90839252  0.53021664  0.76234195  1  -1.11644  0  -0.298944  -0.350043  0  2.746175  0
N  N112  1  0.87954392  0.11499933  0.53883088  1  -1.096538  0  -0.315558  -0.363372  0  2.693011  0
N  N113  1  0.12045952  0.88500228  0.46117513  1  -1.096383  0  -0.315503  -0.363316  0  2.692829  0
O  O114  1  0.49978964  0.25057700  0.74970754  1  -1.203675  0  -0.570979  -1.032058  0  2.53814  0
O  O115  1  0.55806788  0.69616722  0.43068728  1  -1.169113  0  -0.317291  -0.551672  0  2.322912  0
O  O116  1  0.43800193  0.12946041  0.86720487  1  -1.182757  0  -0.32212  -0.556476  0  2.320438  0
O  O117  1  0.56199985  0.87054056  0.13279485  1  -1.182882  0  -0.322122  -0.556431  0  2.320476  0
O  O118  1  0.55329746  0.42829875  0.69142227  1  -1.160183  0  -0.317488  -0.549158  0  2.316569  0
O  O119  1  0.44669328  0.57169621  0.30857474  1  -1.160263  0  -0.317487  -0.549227  0  2.316556  0
O  O120  1  0.73596970  0.30647701  0.86300038  1  -1.173055  0  -0.3087  -0.534633  0  2.324182  0
O  O121  1  0.26402939  0.69352662  0.13699802  1  -1.173164  0  -0.308629  -0.534516  0  2.324138  0
O  O122  1  0.26433293  0.13884852  0.57260295  1  -1.164417  0  -0.309764  -0.538301  0  2.313927  0
O  O123  1  0.73566314  0.86115443  0.42739669  1  -1.164345  0  -0.309725  -0.538216  0  2.313895  0
O  O124  1  0.56325661  0.13093731  0.69590438  1  -1.160995  0  -0.318081  -0.550544  0  2.331129  0
O  O125  1  0.50021018  0.74942198  0.25029121  1  -1.20371  0  -0.571006  -1.032121  0  2.538147  0
O  O126  1  0.43676097  0.86907300  0.30410095  1  -1.160985  0  -0.318023  -0.550524  0  2.331244  0
O  O127  1  0.43530710  0.30240355  0.86911175  1  -1.18108  0  -0.3186  -0.551721  0  2.324415  0
O  O128  1  0.56469227  0.69759476  0.13088732  1  -1.181044  0  -0.318618  -0.551762  0  2.32445  0
O  O129  1  0.43318629  0.12606051  0.57102208  1  -1.164285  0  -0.318504  -0.549365  0  2.319418  0
O  O130  1  0.56681242  0.87393309  0.42898652  1  -1.164248  0  -0.318476  -0.549345  0  2.319392  0
O  O131  1  0.56142748  0.42752806  0.86971224  1  -1.170206  0  -0.32084  -0.55471  0  2.318748  0
O  O132  1  0.43857253  0.57247026  0.13028607  1  -1.170174  0  -0.320836  -0.554735  0  2.318655  0
O  O133  1  0.30971293  0.46859095  0.38778101  1  -1.080533  0  -0.212076  -0.199834  0  2.53037  0
O  O134  1  0.69028516  0.53140735  0.61221744  1  -1.080507  0  -0.212096  -0.199866  0  2.530258  0
O  O135  1  0.73487588  0.43088342  0.86782976  1  -1.162348  0  -0.308642  -0.53593  0  2.306256  0
O  O136  1  0.26512558  0.56912089  0.13216816  1  -1.162196  0  -0.308628  -0.535898  0  2.306322  0
O  O137  1  0.26433523  0.13008104  0.69753436  1  -1.177064  0  -0.309107  -0.535297  0  2.312605  0
O  O138  1  0.73566481  0.86991925  0.30246724  1  -1.177238  0  -0.309045  -0.535215  0  2.312653  0
O  O139  1  0.57146329  0.13816125  0.87271001  1  -1.177839  0  -0.317185  -0.548454  0  2.326661  0
O  O140  1  0.42853500  0.86183640  0.12728744  1  -1.177802  0  -0.317136  -0.548398  0  2.326704  0
O  O141  1  0.44192913  0.30383042  0.56931064  1  -1.16919  0  -0.31728  -0.551654  0  2.32292  0
