# generated using pymatgen
data_ErCoH16C16(N5O3)2
_symmetry_space_group_name_H-M   'P 1'
_cell_length_a   10.02934020
_cell_length_b   10.53310484
_cell_length_c   12.41597539
_cell_angle_alpha   73.73862579
_cell_angle_beta   75.81080413
_cell_angle_gamma   71.28833431
_symmetry_Int_Tables_number   1
_chemical_formula_structural   ErCoH16C16(N5O3)2
_chemical_formula_sum   'Er2 Co2 H32 C32 N20 O12'
_cell_volume   1175.07716958
_cell_formula_units_Z   2
loop_
 _symmetry_equiv_pos_site_id
 _symmetry_equiv_pos_as_xyz
  1  'x, y, z'
loop_
 _atom_site_type_symbol
 _atom_site_label
 _atom_site_symmetry_multiplicity
 _atom_site_fract_x
 _atom_site_fract_y
 _atom_site_fract_z
 _atom_site_occupancy
 _atom_site_hle17_bader_spin_density
 _atom_site_hle17_ddec_charge
 _atom_site_hle17_ddec_spin_density
 _atom_site_hle17_ddec_sum_bond_order
 _atom_site_hle17_magmom
 _atom_site_hse06_10hf_bader_spin_density
 _atom_site_hse06_10hf_ddec_charge
 _atom_site_hse06_10hf_ddec_spin_density
 _atom_site_hse06_10hf_ddec_sum_bond_order
 _atom_site_hse06_10hf_magmom
 _atom_site_hse06_bader_spin_density
 _atom_site_hse06_ddec_charge
 _atom_site_hse06_ddec_spin_density
 _atom_site_hse06_ddec_sum_bond_order
 _atom_site_hse06_magmom
 _atom_site_pbe_bader_spin_density
 _atom_site_pbe_cm5_charge
 _atom_site_pbe_ddec_charge
 _atom_site_pbe_ddec_spin_density
 _atom_site_pbe_ddec_sum_bond_order
 _atom_site_pbe_magmom
Er  Er0  1  0.40225850  0.31220891  0.29055039  1  0  2.269958  0  1.637902  0  0  2.122422  0  2.123063  0  0  2.249965  0  1.924539  0  0  1.540697  2.09056  0  2.150799  0
Er  Er1  1  0.59775320  0.68779725  0.70944415  1  0  2.269911  0  1.638015  0  0  2.122339  0  2.123263  0  0  2.249928  0  1.924651  0  0  1.540677  2.090465  0  2.150999  0
Co  Co2  1  0.34085318  0.29377541  0.73803782  1  0  0.021486  0  4.560674  0  0  0.148237  0  4.877841  0  0  0.139996  0  4.874653  0  0  0.506841  0.163466  0  4.871978  0
Co  Co3  1  0.65918109  0.70621368  0.26196062  1  0  0.021781  0  4.56028  0  0  0.148331  0  4.877902  0  0  0.140051  0  4.874792  0  0  0.506862  0.163708  0  4.871704  0
H  H4  1  0.28542512  0.75283187  0.54432654  1  0  0.130661  0  0.936502  0  0  0.136385  0  1.002176  0  0  0.139969  0  1.000279  0  0  0.120789  0.133917  0  1.003353  0
H  H5  1  0.71454079  0.24718598  0.45568355  1  0  0.130784  0  0.936466  0  0  0.136494  0  1.002162  0  0  0.140086  0  1.00024  0  0  0.120862  0.134028  0  1.003336  0
H  H6  1  0.33064093  0.90385527  0.02670782  1  0  0.141174  0  0.910395  0  0  0.150366  0  0.965334  0  0  0.153628  0  0.964195  0  0  0.126508  0.147831  0  0.966056  0
H  H7  1  0.66933940  0.09615638  0.97328251  1  0  0.141148  0  0.910294  0  0  0.150317  0  0.965284  0  0  0.153579  0  0.964138  0  0  0.126524  0.147778  0  0.96601  0
H  H8  1  0.12907774  0.51405956  0.09039235  1  0  0.128195  0  0.919331  0  0  0.136672  0  0.978823  0  0  0.140212  0  0.975211  0  0  0.139875  0.133804  0  0.981677  0
H  H9  1  0.87092832  0.48593029  0.90962901  1  0  0.128339  0  0.919244  0  0  0.136762  0  0.978801  0  0  0.140296  0  0.975193  0  0  0.139877  0.133889  0  0.981661  0
H  H10  1  0.47712377  0.65476702  0.07013313  1  0  0.12966  0  0.932966  0  0  0.137151  0  0.992518  0  0  0.139746  0  0.990417  0  0  0.13809  0.135366  0  0.993924  0
H  H11  1  0.52287171  0.34524902  0.92985162  1  0  0.129726  0  0.932923  0  0  0.137207  0  0.992472  0  0  0.139804  0  0.990371  0  0  0.138098  0.135412  0  0.993885  0
H  H12  1  0.01433041  0.68290426  0.29452182  1  0  0.115817  0  0.962696  0  0  0.122286  0  1.027697  0  0  0.12461  0  1.026785  0  0  0.129777  0.120671  0  1.02818  0
H  H13  1  0.98566510  0.31709432  0.70547445  1  0  0.115831  0  0.962647  0  0  0.122291  0  1.027675  0  0  0.124614  0  1.026752  0  0  0.129825  0.120677  0  1.028158  0
H  H14  1  0.36212666  0.54223308  0.46054362  1  0  0.120887  0  0.955525  0  0  0.130441  0  1.012607  0  0  0.132154  0  1.012461  0  0  0.137071  0.129196  0  1.012733  0
H  H15  1  0.63786367  0.45778927  0.53945508  1  0  0.12085  0  0.955814  0  0  0.130476  0  1.012784  0  0  0.132189  0  1.01264  0  0  0.137096  0.12923  0  1.012911  0
H  H16  1  0.96956592  0.75706765  0.04074706  1  0  0.134218  0  0.959698  0  0  0.135648  0  1.030003  0  0  0.138615  0  1.029537  0  0  0.117064  0.133601  0  1.031075  0
H  H17  1  0.03042279  0.24291152  0.95927861  1  0  0.134296  0  0.959724  0  0  0.135697  0  1.03003  0  0  0.138663  0  1.029562  0  0  0.117113  0.133649  0  1.031102  0
H  H18  1  0.92244656  0.89973733  0.36949561  1  0  0.12732  0  0.973285  0  0  0.126706  0  1.047166  0  0  0.131083  0  1.043604  0  0  0.114439  0.123646  0  1.049591  0
H  H19  1  0.07751861  0.10025248  0.63051261  1  0  0.127415  0  0.973264  0  0  0.126717  0  1.047214  0  0  0.131092  0  1.043654  0  0  0.114417  0.123656  0  1.049642  0
H  H20  1  0.41838786  0.08536433  0.18464373  1  0  0.420667  0  0.884844  0  0  0.393775  0  0.942013  0  0  0.402814  0  0.92933  0  0  0.29753  0.38754  0  0.950886  0
H  H21  1  0.58163538  0.91463073  0.81535375  1  0  0.420629  0  0.884873  0  0  0.393737  0  0.942048  0  0  0.402778  0  0.929361  0  0  0.2975  0.387501  0  0.950922  0
H  H22  1  0.36411114  0.22592509  0.09972631  1  0  0.425918  0  0.886962  0  0  0.390291  0  0.959416  0  0  0.401812  0  0.942887  0  0  0.291335  0.382089  0  0.97137  0
H  H23  1  0.63590600  0.77406981  0.90026995  1  0  0.426011  0  0.886822  0  0  0.390418  0  0.959216  0  0  0.401933  0  0.942695  0  0  0.291373  0.382215  0  0.971171  0
H  H24  1  0.71417655  0.26363166  0.24426963  1  0  0.445172  0  0.805012  0  0  0.428836  0  0.854555  0  0  0.436969  0  0.843192  0  0  0.331302  0.423547  0  0.860553  0
H  H25  1  0.28582846  0.73636214  0.75573969  1  0  0.445188  0  0.805006  0  0  0.428845  0  0.854545  0  0  0.436971  0  0.84319  0  0  0.331267  0.423549  0  0.860557  0
H  H26  1  0.70017005  0.11237796  0.25215990  1  0  0.443892  0  0.85648  0  0  0.406796  0  0.9287  0  0  0.418741  0  0.911627  0  0  0.294436  0.398558  0  0.940447  0
H  H27  1  0.29983462  0.88762084  0.74783699  1  0  0.443835  0  0.856573  0  0  0.406751  0  0.928782  0  0  0.418696  0  0.911711  0  0  0.294368  0.398513  0  0.94053  0
H  H28  1  0.38637120  0.06071740  0.47851974  1  0  0.448982  0  0.800858  0  0  0.42821  0  0.859462  0  0  0.437021  0  0.849431  0  0  0.332498  0.422322  0  0.866308  0
H  H29  1  0.61344098  0.93935485  0.52146852  1  0  0.44901  0  0.801146  0  0  0.428103  0  0.859869  0  0  0.436907  0  0.849652  0  0  0.332436  0.422214  0  0.866712  0
H  H30  1  0.39739570  0.00928198  0.36747757  1  0  0.431424  0  0.858961  0  0  0.403573  0  0.919783  0  0  0.412655  0  0.906989  0  0  0.308699  0.397372  0  0.928606  0
H  H31  1  0.60263123  0.99071501  0.63250504  1  0  0.43134  0  0.859046  0  0  0.403505  0  0.919862  0  0  0.412582  0  0.907072  0  0  0.308688  0.397304  0  0.928685  0
H  H32  1  0.16717476  0.20550522  0.28688879  1  0  0.439257  0  0.813144  0  0  0.423238  0  0.863301  0  0  0.430506  0  0.852939  0  0  0.328484  0.418014  0  0.869454  0
H  H33  1  0.83285616  0.79450300  0.71307662  1  0  0.439171  0  0.813078  0  0  0.423148  0  0.863351  0  0  0.430416  0  0.853023  0  0  0.328435  0.417926  0  0.869382  0
H  H34  1  0.08375664  0.35549460  0.30922486  1  0  0.444543  0  0.857787  0  0  0.403461  0  0.936937  0  0  0.415928  0  0.918878  0  0  0.290433  0.394742  0  0.949644  0
H  H35  1  0.91626116  0.64449109  0.69077837  1  0  0.444317  0  0.858113  0  0  0.403327  0  0.937171  0  0  0.415794  0  0.919112  0  0  0.290382  0.394603  0  0.949887  0
C  C36  1  0.38001970  0.29722471  0.58335608  1  0  0.168584  0  3.516063  0  0  0.124845  0  3.82522  0  0  0.138179  0  3.837776  0  0  0.059041  0.114415  0  3.818751  0
C  C37  1  0.62000019  0.70277127  0.41663939  1  0  0.168689  0  3.515954  0  0  0.124973  0  3.825187  0  0  0.138317  0  3.837748  0  0  0.059148  0.114511  0  3.818694  0
C  C38  1  0.57905389  0.56459323  0.27680259  1  0  0.159335  0  3.525848  0  0  0.115091  0  3.839101  0  0  0.127246  0  3.851738  0  0  0.054679  0.105407  0  3.832888  0
C  C39  1  0.42097169  0.43540085  0.72319549  1  0  0.159276  0  3.52593  0  0  0.114999  0  3.839158  0  0  0.127158  0  3.85178  0  0  0.054648  0.105338  0  3.832963  0
C  C40  1  0.29734824  0.28169109  0.89485838  1  0  0.100649  0  3.531335  0  0  0.054334  0  3.844427  0  0  0.061622  0  3.857112  0  0  0.034207  0.046997  0  3.834791  0
C  C41  1  0.70270015  0.71829207  0.10513883  1  0  0.100558  0  3.531481  0  0  0.054281  0  3.844615  0  0  0.061571  0  3.857298  0  0  0.034194  0.046916  0  3.834955  0
C  C42  1  0.36458996  0.68577075  0.06417541  1  0  0.040959  0  3.541227  0  0  -0.003669  0  3.806498  0  0  0.005432  0  3.816012  0  0  0.056089  -0.008802  0  3.798528  0
C  C43  1  0.63540570  0.31423407  0.93582172  1  0  0.040829  0  3.541214  0  0  -0.003769  0  3.806477  0  0  0.005326  0  3.815986  0  0  0.056015  -0.008891  0  3.798506  0
C  C44  1  0.51659859  0.16344619  0.74759726  1  0  0.114478  0  3.516653  0  0  0.070438  0  3.821315  0  0  0.079121  0  3.83315  0  0  0.043912  0.062519  0  3.812574  0
C  C45  1  0.48343756  0.83654701  0.25239660  1  0  0.114785  0  3.515936  0  0  0.070759  0  3.820673  0  0  0.079441  0  3.832516  0  0  0.044203  0.062811  0  3.811913  0
C  C46  1  0.26710270  0.62510490  0.44494903  1  0  0.025013  0  3.565454  0  0  -0.018418  0  3.8248  0  0  -0.012743  0  3.8393  0  0  0.050271  -0.021526  0  3.814286  0
C  C47  1  0.73287998  0.37490894  0.55504676  1  0  0.025161  0  3.565567  0  0  -0.018271  0  3.824843  0  0  -0.012607  0  3.839359  0  0  0.050307  -0.021374  0  3.81432  0
C  C48  1  0.26576498  0.14631514  0.75644438  1  0  0.110134  0  3.499512  0  0  0.0644  0  3.807186  0  0  0.072774  0  3.820606  0  0  0.042477  0.056962  0  3.796724  0
C  C49  1  0.73425986  0.85368503  0.24354671  1  0  0.110036  0  3.499651  0  0  0.064348  0  3.807383  0  0  0.072725  0  3.820814  0  0  0.042503  0.056889  0  3.796892  0
C  C50  1  0.16883743  0.43023388  0.72206895  1  0  0.090209  0  3.540715  0  0  0.04401  0  3.855292  0  0  0.051151  0  3.867928  0  0  0.032507  0.037032  0  3.845857  0
C  C51  1  0.83118839  0.56974892  0.27793748  1  0  0.090058  0  3.540243  0  0  0.043862  0  3.854871  0  0  0.051012  0  3.867503  0  0  0.032502  0.036866  0  3.845409  0
C  C52  1  0.22219858  0.74077151  0.48983211  1  0  -0.122266  0  3.681423  0  0  -0.14591  0  3.943052  0  0  -0.150945  0  3.961757  0  0  -0.059725  -0.143003  0  3.929765  0
C  C53  1  0.77777870  0.25923612  0.51017187  1  0  -0.122586  0  3.681608  0  0  -0.146283  0  3.943361  0  0  -0.151314  0  3.962081  0  0  -0.059954  -0.143379  0  3.930092  0
C  C54  1  0.13861540  0.84922450  0.03171616  1  0  0.184857  0  3.793369  0  0  0.180563  0  4.053995  0  0  0.184741  0  4.075048  0  0  0.104103  0.178762  0  4.038793  0
C  C55  1  0.86136798  0.15077297  0.96829236  1  0  0.184708  0  3.79349  0  0  0.180526  0  4.053997  0  0  0.184649  0  4.075072  0  0  0.103974  0.178705  0  4.038802  0
C  C56  1  0.09711545  0.84195393  0.46434009  1  0  0.186916  0  3.822057  0  0  0.18184  0  4.082187  0  0  0.184765  0  4.102607  0  0  0.100312  0.180294  0  4.068169  0
C  C57  1  0.90285925  0.15804852  0.53566806  1  0  0.186874  0  3.822297  0  0  0.181738  0  4.082443  0  0  0.184639  0  4.102873  0  0  0.100345  0.180179  0  4.068438  0
C  C58  1  0.16516064  0.60569979  0.07359969  1  0  0.026019  0  3.57523  0  0  -0.017311  0  3.835614  0  0  -0.010502  0  3.847339  0  0  0.05055  -0.020639  0  3.828942  0
C  C59  1  0.83483108  0.39429694  0.92641709  1  0  0.025969  0  3.575337  0  0  -0.017361  0  3.835721  0  0  -0.010538  0  3.847429  0  0  0.050615  -0.020682  0  3.829043  0
C  C60  1  0.28276387  0.82032093  0.03977154  1  0  -0.120975  0  3.664952  0  0  -0.145678  0  3.926306  0  0  -0.151043  0  3.943553  0  0  -0.055613  -0.139101  0  3.911295  0
C  C61  1  0.71722586  0.17968677  0.96021877  1  0  -0.120734  0  3.664994  0  0  -0.145483  0  3.926365  0  0  -0.150817  0  3.94361  0  0  -0.055533  -0.138895  0  3.911346  0
C  C62  1  0.08095371  0.73849416  0.04692450  1  0  -0.151216  0  3.695973  0  0  -0.166234  0  3.943291  0  0  -0.17308  0  3.964668  0  0  -0.067686  -0.165397  0  3.932032  0
C  C63  1  0.91903712  0.26150243  0.95308443  1  0  -0.151301  0  3.695957  0  0  -0.166279  0  3.943228  0  0  -0.173099  0  3.964601  0  0  -0.067683  -0.165437  0  3.931973  0
C  C64  1  0.06732141  0.70735081  0.34942252  1  0  0.027728  0  3.572597  0  0  -0.011157  0  3.822248  0  0  -0.005585  0  3.835816  0  0  0.047129  -0.014564  0  3.812429  0
C  C65  1  0.93266091  0.29266092  0.65057063  1  0  0.027736  0  3.572698  0  0  -0.011171  0  3.822359  0  0  -0.005586  0  3.835916  0  0  0.047057  -0.014579  0  3.812542  0
C  C66  1  0.01940313  0.82325563  0.39251124  1  0  -0.128634  0  3.701597  0  0  -0.146474  0  3.948959  0  0  -0.151044  0  3.967191  0  0  -0.06453  -0.143522  0  3.936675  0
C  C67  1  0.98056568  0.17674573  0.60750153  1  0  -0.128689  0  3.701457  0  0  -0.14639  0  3.948804  0  0  -0.150951  0  3.967037  0  0  -0.06451  -0.14343  0  3.936522  0
N  N68  1  0.30455653  0.58068687  0.08378166  1  0  0.298697  0  3.68885  0  0  0.351187  0  3.953416  0  0  0.352414  0  3.975932  0  0  -0.103518  0.347891  0  3.940908  0
N  N69  1  0.69544508  0.41931503  0.91621988  1  0  0.29858  0  3.689024  0  0  0.35111  0  3.953558  0  0  0.352336  0  3.976067  0  0  -0.103537  0.347817  0  3.94104  0
N  N70  1  0.18995494  0.60938334  0.37564658  1  0  0.318565  0  3.668131  0  0  0.374253  0  3.923952  0  0  0.376605  0  3.94652  0  0  -0.091261  0.372414  0  3.909897  0
N  N71  1  0.81003233  0.39062545  0.62435118  1  0  0.3186  0  3.668298  0  0  0.374255  0  3.924118  0  0  0.376615  0  3.946683  0  0  -0.091179  0.372425  0  3.910066  0
N  N72  1  0.40438996  0.29185712  0.48723445  1  0  -0.58142  0  2.965083  0  0  -0.528907  0  3.263074  0  0  -0.555903  0  3.26601  0  0  -0.461231  -0.518772  0  3.258223  0
N  N73  1  0.59561176  0.70814789  0.51276631  1  0  -0.581575  0  2.965076  0  0  -0.529083  0  3.263097  0  0  -0.556072  0  3.266017  0  0  -0.461315  -0.518935  0  3.258244  0
N  N74  1  0.53092926  0.47481947  0.28219160  1  0  -0.581922  0  3.004159  0  0  -0.533535  0  3.306883  0  0  -0.558346  0  3.311375  0  0  -0.454432  -0.523834  0  3.30217  0
N  N75  1  0.46909304  0.52517868  0.71780611  1  0  -0.581836  0  3.004174  0  0  -0.533451  0  3.306906  0  0  -0.558262  0  3.311384  0  0  -0.454388  -0.523738  0  3.302168  0
N  N76  1  0.05827531  0.95665675  0.51218474  1  0  -0.148482  0  2.981554  0  0  -0.127648  0  3.264569  0  0  -0.122654  0  3.264325  0  0  -0.149593  -0.130742  0  3.264007  0
N  N77  1  0.94167865  0.04334632  0.48782480  1  0  -0.148342  0  2.981502  0  0  -0.127346  0  3.26444  0  0  -0.122344  0  3.264202  0  0  -0.149425  -0.130437  0  3.26388  0
N  N78  1  0.06577068  0.52165674  0.71101616  1  0  -0.438476  0  2.857267  0  0  -0.385462  0  3.115855  0  0  -0.39852  0  3.12562  0  0  -0.350231  -0.375241  0  3.108978  0
N  N79  1  0.93425275  0.47831357  0.28899055  1  0  -0.438524  0  2.856845  0  0  -0.385446  0  3.115411  0  0  -0.398495  0  3.125165  0  0  -0.350333  -0.37523  0  3.108539  0
N  N80  1  0.62480823  0.07589704  0.74594527  1  0  -0.481473  0  2.803565  0  0  -0.42928  0  3.048219  0  0  -0.443002  0  3.058462  0  0  -0.372015  -0.419193  0  3.041452  0
N  N81  1  0.37523292  0.92410030  0.25404099  1  0  -0.481829  0  2.802934  0  0  -0.429621  0  3.047621  0  0  -0.443339  0  3.057852  0  0  -0.372282  -0.419533  0  3.040867  0
N  N82  1  0.23132282  0.04762127  0.76318119  1  0  -0.440601  0  2.837235  0  0  -0.384999  0  3.093516  0  0  -0.400839  0  3.104588  0  0  -0.351581  -0.372959  0  3.08519  0
N  N83  1  0.76868467  0.95238567  0.23680189  1  0  -0.440552  0  2.837481  0  0  -0.384957  0  3.09377  0  0  -0.400797  0  3.104845  0  0  -0.351584  -0.372918  0  3.08545  0
N  N84  1  0.26993487  0.27685051  0.99307974  1  0  -0.441461  0  2.818888  0  0  -0.393395  0  3.076218  0  0  -0.40588  0  3.084559  0  0  -0.358386  -0.383462  0  3.070121  0
N  N85  1  0.73010374  0.72313449  0.00691646  1  0  -0.441489  0  2.819027  0  0  -0.393447  0  3.076338  0  0  -0.405922  0  3.084677  0  0  -0.358387  -0.383515  0  3.070252  0
N  N86  1  0.06067504  0.98858342  0.01302126  1  0  -0.119461  0  2.957751  0  0  -0.104391  0  3.249161  0  0  -0.101478  0  3.252089  0  0  -0.131739  -0.106023  0  3.246181  0
N  N87  1  0.93930532  0.01141394  0.98698464  1  0  -0.119682  0  2.957792  0  0  -0.104625  0  3.249185  0  0  -0.101699  0  3.252113  0  0  -0.131918  -0.10625  0  3.246203  0
O  O88  1  0.42622803  0.18091647  0.16014806  1  0  -0.923391  0  1.910642  0  0  -0.870158  0  2.106191  0  0  -0.901181  0  2.07153  0  0  -0.653094  -0.856196  0  2.126687  0
O  O89  1  0.57378401  0.81908152  0.83985406  1  0  -0.923376  0  1.910638  0  0  -0.870146  0  2.106126  0  0  -0.901187  0  2.071496  0  0  -0.653079  -0.85618  0  2.126627  0
O  O90  1  0.38098213  0.45260145  0.11275652  1  0  -0.634307  0  1.864158  0  0  -0.600222  0  2.129717  0  0  -0.637828  0  2.126487  0  0  -0.308645  -0.581866  0  2.129492  0
O  O91  1  0.61902797  0.54739959  0.88724442  1  0  -0.634198  0  1.864157  0  0  -0.600138  0  2.129701  0  0  -0.637765  0  2.126474  0  0  -0.308602  -0.58179  0  2.129483  0
O  O92  1  0.22806586  0.50119314  0.33187316  1  0  -0.625806  0  1.932663  0  0  -0.586926  0  2.187873  0  0  -0.627063  0  2.188749  0  0  -0.303457  -0.566686  0  2.184269  0
O  O93  1  0.77193862  0.49881295  0.66812682  1  0  -0.625834  0  1.932689  0  0  -0.586952  0  2.187947  0  0  -0.6271  0  2.188834  0  0  -0.303515  -0.5667  0  2.184334  0
O  O94  1  0.64770359  0.20739976  0.26700368  1  0  -0.921991  0  1.868009  0  0  -0.872988  0  2.07321  0  0  -0.903423  0  2.033841  0  0  -0.634379  -0.859903  0  2.093274  0
O  O95  1  0.35229788  0.79259909  0.73300185  1  0  -0.921957  0  1.868097  0  0  -0.872949  0  2.073235  0  0  -0.90338  0  2.033868  0  0  -0.634263  -0.859856  0  2.093308  0
O  O96  1  0.17442143  0.27772898  0.31788107  1  0  -0.9308  0  1.880032  0  0  -0.884291  0  2.084157  0  0  -0.913138  0  2.04689  0  0  -0.642173  -0.872229  0  2.104158  0
O  O97  1  0.82560095  0.72225878  0.68211513  1  0  -0.930518  0  1.88028  0  0  -0.884079  0  2.084334  0  0  -0.912928  0  2.047084  0  0  -0.642087  -0.872014  0  2.10422  0
O  O98  1  0.42390662  0.07389254  0.39717650  1  0  -0.878541  0  1.875287  0  0  -0.82832  0  2.064135  0  0  -0.856202  0  2.033317  0  0  -0.607763  -0.815225  0  2.081106  0
O  O99  1  0.57609623  0.92609101  0.60284379  1  0  -0.878568  0  1.875801  0  0  -0.828154  0  2.065001  0  0  -0.856043  0  2.033979  0  0  -0.607833  -0.81506  0  2.081974  0
