# generated using pymatgen
data_ZnH16C25N2O7
_symmetry_space_group_name_H-M   'P 1'
_cell_length_a   11.26778822
_cell_length_b   15.24340835
_cell_length_c   16.31639702
_cell_angle_alpha   89.99986344
_cell_angle_beta   90.00034741
_cell_angle_gamma   100.50026143
_symmetry_Int_Tables_number   1
_chemical_formula_structural   ZnH16C25N2O7
_chemical_formula_sum   'Zn4 H64 C100 N8 O28'
_cell_volume   2755.56575647
_cell_formula_units_Z   4
loop_
 _symmetry_equiv_pos_site_id
 _symmetry_equiv_pos_as_xyz
  1  'x, y, z'
loop_
 _atom_site_type_symbol
 _atom_site_label
 _atom_site_symmetry_multiplicity
 _atom_site_fract_x
 _atom_site_fract_y
 _atom_site_fract_z
 _atom_site_occupancy
 _atom_site_pbe_bader_charge
 _atom_site_pbe_bader_spin_density
 _atom_site_pbe_cm5_charge
 _atom_site_pbe_ddec_charge
 _atom_site_pbe_ddec_spin_density
 _atom_site_pbe_ddec_sum_bond_order
 _atom_site_pbe_magmom
Zn  Zn0  1  0.79195748  0.91460420  0.98557301  1  1.257685  0  0.710708  0.778583  0  2.337545  0
Zn  Zn1  1  0.20803733  0.58539224  0.48557021  1  1.257466  0  0.710728  0.778546  0  2.337609  0
Zn  Zn2  1  0.20803466  0.08539286  0.01442755  1  1.257484  0  0.710701  0.77859  0  2.337523  0
Zn  Zn3  1  0.79196022  0.41461215  0.51443219  1  1.257253  0  0.710717  0.77854  0  2.33754  0
H  H4  1  0.98448428  0.63540477  0.68630301  1  0.668182  0  0.296417  0.371109  0  0.971445  0
H  H5  1  0.01549550  0.86458812  0.18631837  1  0.668153  0  0.29641  0.37106  0  0.971546  0
H  H6  1  0.01549465  0.36458566  0.31368774  1  0.6681  0  0.29636  0.371095  0  0.971492  0
H  H7  1  0.98452105  0.13541420  0.81368158  1  0.668199  0  0.296337  0.371018  0  0.971605  0
H  H8  1  0.37479750  0.78608118  0.00614035  1  0.095028  0  0.098648  0.100307  0  1.031451  0
H  H9  1  0.62519434  0.71391992  0.50613616  1  0.094921  0  0.098662  0.100319  0  1.031364  0
H  H10  1  0.62519258  0.21391121  0.99387063  1  0.094846  0  0.098604  0.100217  0  1.031436  0
H  H11  1  0.37480329  0.28609180  0.49386257  1  0.095003  0  0.098635  0.100262  0  1.031382  0
H  H12  1  0.31122850  0.62095067  0.02539221  1  0.058186  0  0.092975  0.090887  0  1.047075  0
H  H13  1  0.68876291  0.87905508  0.52539587  1  0.058054  0  0.092969  0.090903  0  1.047154  0
H  H14  1  0.68874731  0.37904845  0.97461755  1  0.058125  0  0.0929  0.09076  0  1.047275  0
H  H15  1  0.31124257  0.12095261  0.47461266  1  0.058231  0  0.092926  0.090831  0  1.04713  0
H  H16  1  0.09367848  0.55654122  0.04838464  1  0.092124  0  0.104315  0.118869  0  1.017881  0
H  H17  1  0.90631878  0.94346581  0.54838908  1  0.092055  0  0.104264  0.118786  0  1.017841  0
H  H18  1  0.90630560  0.44346254  0.95162083  1  0.091898  0  0.10423  0.1188  0  1.017744  0
H  H19  1  0.09368649  0.05654455  0.45161945  1  0.091899  0  0.104317  0.118854  0  1.017938  0
H  H20  1  0.70564822  0.55678345  0.07336878  1  0.057692  0  0.108287  0.119357  0  0.991514  0
H  H21  1  0.29436271  0.94322417  0.57336940  1  0.057353  0  0.108266  0.119334  0  0.991503  0
H  H22  1  0.29434502  0.44322495  0.92663055  1  0.057387  0  0.108239  0.119237  0  0.991545  0
H  H23  1  0.70564725  0.05678017  0.42663116  1  0.057339  0  0.10828  0.119304  0  0.99157  0
H  H24  1  0.56401541  0.49593760  0.96056871  1  0.029015  0  0.096434  0.089072  0  1.032405  0
H  H25  1  0.43599171  0.00406542  0.46056216  1  0.02907  0  0.096425  0.089092  0  1.032402  0
H  H26  1  0.43596998  0.50406082  0.03943676  1  0.029081  0  0.096478  0.089079  0  1.032485  0
H  H27  1  0.56402928  0.99593687  0.53943779  1  0.029044  0  0.096459  0.089068  0  1.03251  0
H  H28  1  0.62928273  0.51852067  0.81424240  1  0.095612  0  0.098548  0.100661  0  1.026407  0
H  H29  1  0.37071201  0.98146731  0.31423510  1  0.095362  0  0.098538  0.100608  0  1.026451  0
H  H30  1  0.37070102  0.48146773  0.18575878  1  0.095506  0  0.098567  0.10063  0  1.026318  0
H  H31  1  0.62930484  0.01852565  0.68576301  1  0.095948  0  0.098512  0.100566  0  1.026334  0
H  H32  1  0.97568179  0.65986268  0.89353805  1  0.126425  0  0.111982  0.134007  0  1.011673  0
H  H33  1  0.02432379  0.84013384  0.39353819  1  0.126442  0  0.112003  0.134002  0  1.011728  0
H  H34  1  0.02430534  0.34012504  0.10646128  1  0.126826  0  0.111971  0.133829  0  1.011785  0
H  H35  1  0.97569602  0.15986379  0.60645012  1  0.126241  0  0.111991  0.133942  0  1.011871  0
H  H36  1  0.15551226  0.68576189  0.33567844  1  0.1346  0  0.126884  0.108236  0  0.983807  0
H  H37  1  0.84448278  0.81424409  0.83568046  1  0.134632  0  0.126879  0.108211  0  0.983734  0
H  H38  1  0.84448284  0.31423982  0.66431538  1  0.134829  0  0.126857  0.108218  0  0.983745  0
H  H39  1  0.15551832  0.18576028  0.16432010  1  0.134662  0  0.126845  0.10818  0  0.983756  0
H  H40  1  0.27298902  0.76035977  0.21626560  1  0.10691  0  0.1139  0.127812  0  1.016058  0
H  H41  1  0.72701107  0.73964569  0.71627404  1  0.107056  0  0.113916  0.127756  0  1.016125  0
H  H42  1  0.72701010  0.23963325  0.78372454  1  0.106947  0  0.113899  0.127781  0  1.016024  0
H  H43  1  0.27299463  0.26035933  0.28372898  1  0.107021  0  0.1139  0.127755  0  1.016078  0
H  H44  1  0.57267186  0.64067371  0.29799275  1  0.071096  0  0.114601  0.123333  0  0.987785  0
H  H45  1  0.42732469  0.85932898  0.79798493  1  0.070898  0  0.114613  0.12335  0  0.987693  0
H  H46  1  0.42732485  0.35932733  0.70200781  1  0.071113  0  0.114596  0.123344  0  0.987699  0
H  H47  1  0.57267316  0.14066606  0.20201318  1  0.071119  0  0.11459  0.123283  0  0.987775  0
H  H48  1  0.43961788  0.56630462  0.40960298  1  0.147733  0  0.123969  0.102289  0  1.013804  0
H  H49  1  0.56037638  0.93369927  0.90959984  1  0.147683  0  0.123931  0.102269  0  1.013723  0
H  H50  1  0.56037933  0.43369843  0.59039942  1  0.147672  0  0.123963  0.102294  0  1.013752  0
H  H51  1  0.43962366  0.06630444  0.09039827  1  0.147708  0  0.123937  0.102309  0  1.013694  0
H  H52  1  0.75484446  0.74137315  0.06427782  1  0.128522  0  0.115681  0.080278  0  1.055888  0
H  H53  1  0.24516071  0.75862248  0.56426088  1  0.128104  0  0.115671  0.08025  0  1.055831  0
H  H54  1  0.24516217  0.25862853  0.93573684  1  0.128164  0  0.115746  0.08031  0  1.055825  0
H  H55  1  0.75484427  0.24138321  0.43573907  1  0.128055  0  0.115642  0.080268  0  1.055829  0
H  H56  1  0.61815366  0.65270499  0.16544580  1  0.062672  0  0.10972  0.11188  0  1.007736  0
H  H57  1  0.38184525  0.84729052  0.66543046  1  0.061931  0  0.109617  0.111837  0  1.007724  0
H  H58  1  0.38184985  0.34729135  0.83456273  1  0.062474  0  0.109692  0.11186  0  1.007781  0
H  H59  1  0.61815842  0.15270649  0.33457317  1  0.061902  0  0.109642  0.111853  0  1.007686  0
H  H60  1  0.42430630  0.87311952  0.18015611  1  0.144821  0  0.114113  0.131845  0  1.019248  0
H  H61  1  0.57569788  0.62687529  0.68016170  1  0.144712  0  0.114096  0.131785  0  1.019247  0
H  H62  1  0.57569442  0.12687283  0.81984384  1  0.144684  0  0.114119  0.131772  0  1.019335  0
H  H63  1  0.42430807  0.37312372  0.31984070  1  0.144728  0  0.114117  0.131806  0  1.01928  0
H  H64  1  0.56996402  0.95201680  0.07630497  1  0.146652  0  0.120178  0.10281  0  1.037639  0
H  H65  1  0.43003575  0.54797817  0.57630767  1  0.146874  0  0.120232  0.102968  0  1.037563  0
H  H66  1  0.43003505  0.04797957  0.92369559  1  0.146511  0  0.12023  0.102926  0  1.037589  0
H  H67  1  0.56996357  0.45202621  0.42369228  1  0.146809  0  0.120296  0.103014  0  1.037341  0
C  C68  1  0.23994428  0.91165676  0.01014265  1  1.573604  0  0.202002  0.566783  0  4.225072  0
C  C69  1  0.76005460  0.58835099  0.51013073  1  1.574235  0  0.201887  0.56675  0  4.224741  0
C  C70  1  0.76004947  0.08833962  0.98986466  1  1.57366  0  0.202119  0.567057  0  4.224653  0
C  C71  1  0.23994784  0.41165872  0.48986432  1  1.57368  0  0.202043  0.566925  0  4.224911  0
C  C72  1  0.97710466  0.83351224  0.03870882  1  1.628634  0  0.217997  0.614306  0  4.200075  0
C  C73  1  0.02289772  0.66649078  0.53870156  1  1.628058  0  0.217979  0.614295  0  4.199885  0
C  C74  1  0.02289838  0.16649279  0.96129113  1  1.628744  0  0.217958  0.614165  0  4.200037  0
C  C75  1  0.97710144  0.33351293  0.46129288  1  1.627571  0  0.218039  0.614388  0  4.199897  0
C  C76  1  0.07378414  0.77723884  0.03336203  1  -0.06779  0  -0.006117  -0.127104  0  3.905938  0
C  C77  1  0.92622029  0.72276551  0.53334745  1  -0.06772  0  -0.006038  -0.127091  0  3.905874  0
C  C78  1  0.92620762  0.22276021  0.96663914  1  -0.067767  0  -0.006014  -0.126988  0  3.905568  0
C  C79  1  0.07378713  0.27724284  0.46664085  1  -0.06784  0  -0.006058  -0.126966  0  3.905702  0
C  C80  1  0.19652374  0.81315665  0.02043599  1  0.079701  0  -0.009488  -0.02851  0  3.947906  0
C  C81  1  0.80347396  0.68685309  0.52043323  1  0.079607  0  -0.009481  -0.028473  0  3.947546  0
C  C82  1  0.80346515  0.18684509  0.97956947  1  0.079653  0  -0.009569  -0.02873  0  3.947564  0
C  C83  1  0.19652823  0.31316263  0.47956672  1  0.079527  0  -0.009459  -0.028559  0  3.947692  0
C  C84  1  0.28073280  0.75628409  0.01686498  1  -0.055912  0  -0.092325  -0.110616  0  4.005493  0
C  C85  1  0.71926313  0.74372232  0.51685621  1  -0.055542  0  -0.092258  -0.110514  0  4.00512  0
C  C86  1  0.71925402  0.24371298  0.98315397  1  -0.055962  0  -0.092218  -0.110282  0  4.005139  0
C  C87  1  0.28073648  0.25628673  0.48314067  1  -0.055874  0  -0.092247  -0.110365  0  4.005056  0
C  C88  1  0.24509381  0.66466692  0.02712892  1  -0.00713  0  -0.098255  -0.073573  0  4.044041  0
C  C89  1  0.75489990  0.83534083  0.52712929  1  -0.007142  0  -0.098323  -0.073697  0  4.04414  0
C  C90  1  0.75489053  0.33533083  0.97288635  1  -0.007003  0  -0.098287  -0.073624  0  4.044059  0
C  C91  1  0.24510221  0.16466755  0.47287618  1  -0.007154  0  -0.098375  -0.073799  0  4.044095  0
C  C92  1  0.12365939  0.62808412  0.03982145  1  -0.085588  0  -0.092453  -0.173578  0  3.978611  0
C  C93  1  0.87633480  0.87192160  0.53981735  1  -0.085795  0  -0.092311  -0.173391  0  3.978282  0
C  C94  1  0.87632245  0.37191431  0.96018830  1  -0.085673  0  -0.092156  -0.173336  0  3.978012  0
C  C95  1  0.12366841  0.12808409  0.46018076  1  -0.08547  0  -0.092348  -0.173388  0  3.978293  0
C  C96  1  0.03961271  0.68466162  0.04173769  1  0.463409  0  0.078784  0.215128  0  4.021225  0
C  C97  1  0.96038787  0.81534474  0.54173836  1  0.463365  0  0.078701  0.215099  0  4.020939  0
C  C98  1  0.96038061  0.31534011  0.95826226  1  0.463693  0  0.078543  0.214941  0  4.021532  0
C  C99  1  0.03961635  0.18466496  0.45825975  1  0.463584  0  0.078649  0.214868  0  4.021152  0
C  C100  1  0.84771566  0.61345363  0.99028223  1  0.417393  0  0.084048  0.257217  0  4.051943  0
C  C101  1  0.15229105  0.88654409  0.49028219  1  0.417618  0  0.084019  0.257207  0  4.052068  0
C  C102  1  0.15227500  0.38654810  0.00971281  1  0.417008  0  0.084076  0.25718  0  4.052213  0
C  C103  1  0.84772056  0.11345624  0.50970795  1  0.417211  0  0.083969  0.256984  0  4.052287  0
C  C104  1  0.73185942  0.56696824  0.00925786  1  -0.018229  0  -0.098482  -0.197759  0  3.990768  0
C  C105  1  0.26814060  0.93303350  0.50926023  1  -0.017907  0  -0.098426  -0.197697  0  3.990702  0
C  C106  1  0.26812255  0.43303420  0.99073964  1  -0.017851  0  -0.098451  -0.197578  0  3.990918  0
C  C107  1  0.73186641  0.06696618  0.49073911  1  -0.01786  0  -0.098399  -0.197483  0  3.990813  0
C  C108  1  0.65336500  0.53345064  0.94597617  1  -0.004358  0  -0.095855  -0.072243  0  4.071021  0
C  C109  1  0.34664367  0.96654580  0.44597310  1  -0.004435  0  -0.095865  -0.07234  0  4.070942  0
C  C110  1  0.34662077  0.46654577  0.05402378  1  -0.003842  0  -0.095898  -0.072366  0  4.070985  0
C  C111  1  0.65337934  0.03345048  0.55402440  1  -0.003817  0  -0.095926  -0.072468  0  4.071168  0
C  C112  1  0.68904463  0.54501133  0.86436814  1  -0.094577  0  -0.097882  -0.127743  0  4.006918  0
C  C113  1  0.31095243  0.95498059  0.36436740  1  -0.094261  0  -0.097856  -0.127697  0  4.007398  0
C  C114  1  0.31093895  0.45497641  0.13563180  1  -0.094257  0  -0.09797  -0.12782  0  4.006931  0
C  C115  1  0.68906704  0.04501570  0.63563194  1  -0.094799  0  -0.097928  -0.127719  0  4.006852  0
C  C116  1  0.80559430  0.59005057  0.84599174  1  -0.019535  0  -0.017626  -0.018587  0  4.005843  0
C  C117  1  0.19441084  0.90994935  0.34598569  1  -0.019863  0  -0.017568  -0.018324  0  4.005708  0
C  C118  1  0.19439561  0.40994115  0.15401496  1  -0.0201  0  -0.017499  -0.018161  0  4.005518  0
C  C119  1  0.80561487  0.09005760  0.65400200  1  -0.019448  0  -0.017545  -0.018373  0  4.005631  0
C  C120  1  0.88567533  0.62431920  0.90880108  1  0.016731  0  -0.095551  -0.223313  0  3.95024  0
C  C121  1  0.11432645  0.87567931  0.40879967  1  0.016893  0  -0.095571  -0.223344  0  3.949867  0
C  C122  1  0.11431868  0.37567117  0.09119581  1  0.016433  0  -0.095532  -0.223162  0  3.949825  0
C  C123  1  0.88568584  0.12432368  0.59118986  1  0.016445  0  -0.095537  -0.223222  0  3.950175  0
C  C124  1  0.84211413  0.60110816  0.75775480  1  1.538696  0  0.222805  0.570038  0  4.160268  0
C  C125  1  0.15787727  0.89888258  0.25774862  1  1.538858  0  0.222695  0.569525  0  4.160174  0
C  C126  1  0.15787537  0.39887488  0.24224822  1  1.53891  0  0.222751  0.569653  0  4.160286  0
C  C127  1  0.84215291  0.10112102  0.74223784  1  1.538182  0  0.22274  0.5698  0  4.159934  0
C  C128  1  0.24749061  0.67652673  0.32332053  1  0.490214  0  0.059603  0.108845  0  3.9029  0
C  C129  1  0.75250082  0.82347595  0.82332152  1  0.489687  0  0.059629  0.10906  0  3.902769  0
C  C130  1  0.75250259  0.32347099  0.67668065  1  0.489465  0  0.059589  0.108936  0  3.902582  0
C  C131  1  0.24749782  0.17652576  0.17668333  1  0.489573  0  0.059652  0.109048  0  3.902523  0
C  C132  1  0.31378228  0.71858520  0.25799737  1  -0.010246  0  -0.074092  -0.163108  0  3.913838  0
C  C133  1  0.68621342  0.78141554  0.75799819  1  -0.009892  0  -0.074045  -0.163056  0  3.913961  0
C  C134  1  0.68620885  0.28140785  0.74199767  1  -0.010039  0  -0.074042  -0.163102  0  3.91369  0
C  C135  1  0.31379215  0.21858547  0.24200115  1  -0.009898  0  -0.074046  -0.163087  0  3.913918  0
C  C136  1  0.43375128  0.70769221  0.24766693  1  -0.032708  0  0.018245  0.106966  0  3.980184  0
C  C137  1  0.56624755  0.79230720  0.74766598  1  -0.032927  0  0.018264  0.106972  0  3.980188  0
C  C138  1  0.56624678  0.29230015  0.75233363  1  -0.032198  0  0.018347  0.107144  0  3.979695  0
C  C139  1  0.43375109  0.20769450  0.25233519  1  -0.032865  0  0.018298  0.107085  0  3.979875  0
C  C140  1  0.47963586  0.65085816  0.30221835  1  0.027262  0  -0.079142  -0.173001  0  3.935583  0
C  C141  1  0.52036566  0.84914651  0.80221463  1  0.027247  0  -0.079211  -0.173074  0  3.935437  0
C  C142  1  0.52036351  0.34914288  0.69778037  1  0.026676  0  -0.079193  -0.173139  0  3.935296  0
C  C143  1  0.47963713  0.15085051  0.19778287  1  0.027048  0  -0.079211  -0.173013  0  3.9352  0
C  C144  1  0.40734841  0.61019093  0.36533573  1  0.44793  0  0.056775  0.103075  0  3.928676  0
C  C145  1  0.59264409  0.88981101  0.86533161  1  0.448599  0  0.056941  0.103262  0  3.928709  0
C  C146  1  0.59265061  0.38980877  0.63466606  1  0.448663  0  0.056788  0.103118  0  3.928856  0
C  C147  1  0.40735072  0.11018603  0.13466895  1  0.448568  0  0.056922  0.103124  0  3.928901  0
C  C148  1  0.68091327  0.76794878  0.09171813  1  0.461877  0  0.049131  0.104949  0  3.948146  0
C  C149  1  0.31909461  0.73204613  0.59170707  1  0.462431  0  0.048952  0.104787  0  3.947845  0
C  C150  1  0.31908935  0.23204757  0.90828856  1  0.462608  0  0.049004  0.104756  0  3.947764  0
C  C151  1  0.68091341  0.26795754  0.40829288  1  0.462384  0  0.048973  0.104713  0  3.947879  0
C  C152  1  0.60475898  0.71934854  0.14859945  1  0.036719  0  -0.080482  -0.171004  0  3.945545  0
C  C153  1  0.39524811  0.78064830  0.64859167  1  0.036691  0  -0.080304  -0.17088  0  3.945479  0
C  C154  1  0.39524558  0.28064847  0.85140540  1  0.036205  0  -0.080375  -0.17087  0  3.945501  0
C  C155  1  0.60475641  0.21935205  0.35141073  1  0.036759  0  -0.080222  -0.170704  0  3.94522  0
C  C156  1  0.51134489  0.75636555  0.18358365  1  -0.08783  0  0.015054  0.106422  0  3.975182  0
C  C157  1  0.48865395  0.74363261  0.68358187  1  -0.088208  0  0.015024  0.106405  0  3.975236  0
C  C158  1  0.48864996  0.24362816  0.81641752  1  -0.088089  0  0.01499  0.106389  0  3.975274  0
C  C159  1  0.51134984  0.25636841  0.31641808  1  -0.087663  0  0.014889  0.106194  0  3.975432  0
C  C160  1  0.49693757  0.84132642  0.15696981  1  -0.049735  0  -0.072897  -0.159691  0  3.896409  0
C  C161  1  0.50306554  0.65866843  0.65696767  1  -0.048867  0  -0.072844  -0.159596  0  3.896249  0
C  C162  1  0.50306404  0.15866593  0.84303076  1  -0.048871  0  -0.072896  -0.159631  0  3.896232  0
C  C163  1  0.49693370  0.34132860  0.34302983  1  -0.049273  0  -0.072876  -0.159625  0  3.896282  0
C  C164  1  0.57717268  0.88612743  0.09955529  1  0.53552  0  0.056327  0.104495  0  3.905938  0
C  C165  1  0.42283084  0.61386749  0.59955414  1  0.535647  0  0.056131  0.104197  0  3.905813  0
C  C166  1  0.42282855  0.11386692  0.90044650  1  0.535368  0  0.056236  0.104324  0  3.905639  0
C  C167  1  0.57717203  0.38613687  0.40044459  1  0.534964  0  0.056106  0.104208  0  3.905449  0
N  N168  1  0.66836643  0.85046309  0.06809453  1  -1.260468  0  -0.326042  -0.233085  0  3.572538  0
N  N169  1  0.33164341  0.64952985  0.56808862  1  -1.260392  0  -0.325839  -0.232871  0  3.572279  0
N  N170  1  0.33164257  0.14953391  0.93190909  1  -1.260099  0  -0.325991  -0.232976  0  3.57222  0
N  N171  1  0.66836338  0.35047249  0.43190765  1  -1.259737  0  -0.325823  -0.23287  0  3.572389  0
N  N172  1  0.29392322  0.62434049  0.37665783  1  -1.243936  0  -0.325481  -0.223373  0  3.55636  0
N  N173  1  0.70606532  0.87565945  0.87665974  1  -1.244198  0  -0.325615  -0.223697  0  3.556627  0
N  N174  1  0.70607171  0.37566056  0.62333967  1  -1.244427  0  -0.325487  -0.223496  0  3.556405  0
N  N175  1  0.29393493  0.12434158  0.12333960  1  -1.244197  0  -0.32561  -0.223631  0  3.55643  0
O  O176  1  0.35066408  0.94274049  0.00677936  1  -1.189495  0  -0.318122  -0.555096  0  2.161836  0
O  O177  1  0.64933608  0.55726191  0.50677501  1  -1.190149  0  -0.318111  -0.555157  0  2.161808  0
O  O178  1  0.64932612  0.05725590  0.99322365  1  -1.189686  0  -0.318214  -0.555261  0  2.161698  0
O  O179  1  0.35066813  0.44274779  0.49322126  1  -1.189584  0  -0.318131  -0.555195  0  2.161785  0
O  O180  1  0.15477350  0.95825894  0.00486980  1  -1.140357  0  -0.316221  -0.515295  0  2.35823  0
O  O181  1  0.84522728  0.54174947  0.50485774  1  -1.140129  0  -0.316192  -0.515269  0  2.357963  0
O  O182  1  0.84522342  0.04173943  0.99513382  1  -1.140518  0  -0.31625  -0.515368  0  2.358113  0
O  O183  1  0.15477482  0.45825890  0.49513486  1  -1.140291  0  -0.316244  -0.51532  0  2.358129  0
O  O184  1  0.91710299  0.83898555  0.97255149  1  -1.164713  0  -0.320131  -0.538932  0  2.313935  0
O  O185  1  0.08289855  0.66101689  0.47254493  1  -1.164184  0  -0.320276  -0.53909  0  2.313882  0
O  O186  1  0.08289342  0.16101082  0.02745152  1  -1.164582  0  -0.320126  -0.538885  0  2.313831  0
O  O187  1  0.91710462  0.33899215  0.52745257  1  -1.16373  0  -0.320209  -0.539025  0  2.313746  0
O  O188  1  0.95140650  0.86542631  0.10613967  1  -1.167919  0  -0.299579  -0.531412  0  2.212039  0
O  O189  1  0.04859948  0.63457461  0.60613381  1  -1.167735  0  -0.299403  -0.53126  0  2.212027  0
O  O190  1  0.04859713  0.13457405  0.89386028  1  -1.168175  0  -0.299555  -0.531363  0  2.212095  0
O  O191  1  0.95140461  0.36543109  0.39386368  1  -1.167871  0  -0.299502  -0.531417  0  2.212148  0
O  O192  1  0.91787167  0.64819170  0.05616558  1  -1.09995  0  -0.161224  -0.225862  0  2.540014  0
O  O193  1  0.08212725  0.85181464  0.55616366  1  -1.09988  0  -0.161272  -0.225919  0  2.540159  0
O  O194  1  0.08210768  0.35180740  0.94383437  1  -1.099813  0  -0.161174  -0.225831  0  2.540649  0
O  O195  1  0.91787507  0.14819106  0.44382648  1  -1.0999  0  -0.161164  -0.225708  0  2.540422  0
O  O196  1  0.95873925  0.63310480  0.74777793  1  -1.180467  0  -0.339192  -0.489243  0  2.275092  0
O  O197  1  0.04125080  0.86688797  0.24778604  1  -1.180384  0  -0.339039  -0.488959  0  2.275313  0
O  O198  1  0.04124821  0.36688426  0.25221528  1  -1.180388  0  -0.339029  -0.489066  0  2.275026  0
O  O199  1  0.95878480  0.13310894  0.75220410  1  -1.18051  0  -0.338972  -0.48902  0  2.274781  0
O  O200  1  0.76833670  0.58264112  0.70143708  1  -1.159705  0  -0.301526  -0.517407  0  2.146818  0
O  O201  1  0.23165779  0.91733567  0.20142382  1  -1.15982  0  -0.301541  -0.51723  0  2.146644  0
O  O202  1  0.23164891  0.41734060  0.29857145  1  -1.159599  0  -0.301601  -0.517321  0  2.146841  0
O  O203  1  0.76838004  0.08268059  0.79856571  1  -1.158941  0  -0.301629  -0.517321  0  2.146751  0
