# generated using pymatgen
data_Cu3H30C30(N14O)2
_symmetry_space_group_name_H-M   'P 1'
_cell_length_a   13.25912134
_cell_length_b   15.10551958
_cell_length_c   15.54347314
_cell_angle_alpha   89.99183644
_cell_angle_beta   93.06241530
_cell_angle_gamma   90.00570411
_symmetry_Int_Tables_number   1
_chemical_formula_structural   Cu3H30C30(N14O)2
_chemical_formula_sum   'Cu6 H60 C60 N56 O4'
_cell_volume   3108.69294688
_cell_formula_units_Z   2
loop_
 _symmetry_equiv_pos_site_id
 _symmetry_equiv_pos_as_xyz
  1  'x, y, z'
loop_
 _atom_site_type_symbol
 _atom_site_label
 _atom_site_symmetry_multiplicity
 _atom_site_fract_x
 _atom_site_fract_y
 _atom_site_fract_z
 _atom_site_occupancy
 _atom_site_pbe_bader_charge
 _atom_site_pbe_bader_spin_density
 _atom_site_pbe_cm5_charge
 _atom_site_pbe_ddec_charge
 _atom_site_pbe_ddec_spin_density
 _atom_site_pbe_ddec_sum_bond_order
 _atom_site_pbe_magmom
Cu  Cu0  1  0.99999149  0.00000291  0.99999557  1  1.06195  -0.520993  0.802879  0.605479  -0.728726  2.605902  -0.52
Cu  Cu1  1  0.50004064  0.49999717  0.50001577  1  1.064304  0.549995  0.807259  0.604946  0.719436  2.604536  0.547
Cu  Cu2  1  0.95109942  0.18857186  0.10207732  1  1.012993  0.516745  0.789452  0.57848  0.680378  2.493139  0.516
Cu  Cu3  1  0.55007364  0.68647053  0.39709052  1  1.01164  0.525023  0.790015  0.574716  0.692458  2.499668  0.524
Cu  Cu4  1  0.04890870  0.81142778  0.89792365  1  1.012999  0.516728  0.789416  0.578429  0.680351  2.493104  0.516
Cu  Cu5  1  0.44994660  0.31351586  0.60290138  1  1.011506  0.525015  0.790014  0.574674  0.692471  2.499463  0.524
H  H6  1  0.54348748  0.38918711  0.76401455  1  0.086674  0.002507  0.121358  0.092284  0.001169  1.002578  0.002
H  H7  1  0.95420782  0.88773332  0.73868040  1  0.136442  0.002425  0.121206  0.092313  0.001202  1.002402  0.002
H  H8  1  0.45650175  0.61080127  0.23598743  1  0.086485  0.002506  0.121278  0.09227  0.001169  1.002629  0.002
H  H9  1  0.04580025  0.11227028  0.26133215  1  0.136226  0.002424  0.121259  0.092356  0.001202  1.002405  0.002
H  H10  1  0.66969588  0.33894350  0.88066148  1  0.104649  0.001249  0.116014  0.126783  0.000646  0.986018  0.001
H  H11  1  0.82853274  0.83785334  0.62128907  1  0.107118  0.001208  0.116332  0.127339  0.000628  0.98653  0.001
H  H12  1  0.33028123  0.66104487  0.11934764  1  0.104106  0.00125  0.116031  0.126835  0.000646  0.98604  0.001
H  H13  1  0.17147836  0.16215954  0.37872298  1  0.107897  0.001208  0.116384  0.127412  0.000628  0.986507  0.001
H  H14  1  0.70232139  0.09706901  0.73747566  1  0.118808  0.001277  0.113625  0.121314  0.000696  1.006658  0.001
H  H15  1  0.79609785  0.59494422  0.76298593  1  0.102006  0.001269  0.113957  0.121239  0.000691  1.006252  0.001
H  H16  1  0.29767082  0.90291804  0.26253677  1  0.118855  0.001278  0.113667  0.121305  0.000696  1.00648  0.001
H  H17  1  0.20389740  0.40506666  0.23702278  1  0.102332  0.001269  0.11397  0.12127  0.000691  1.006299  0.001
H  H18  1  0.57535549  0.15801031  0.62550326  1  0.174774  0.002278  0.119096  0.101707  0.001058  1.039707  0.002
H  H19  1  0.92264393  0.65552731  0.87555812  1  0.169148  0.002268  0.119566  0.102656  0.001044  1.037509  0.002
H  H20  1  0.42465413  0.84198005  0.37450100  1  0.174753  0.002277  0.119101  0.101611  0.001057  1.039806  0.002
H  H21  1  0.07734979  0.34448093  0.12445502  1  0.168984  0.002267  0.119572  0.102608  0.001044  1.037569  0.002
H  H22  1  0.31703539  0.33139366  0.74627167  1  0.159873  0.002185  0.115431  0.081722  0.001042  1.061315  0.002
H  H23  1  0.18166250  0.83086549  0.75435399  1  0.165768  0.002148  0.115738  0.082303  0.000979  1.06199  0.002
H  H24  1  0.68295244  0.66860797  0.25370193  1  0.159695  0.002185  0.115464  0.081696  0.001042  1.0612  0.002
H  H25  1  0.81833135  0.16912620  0.24562570  1  0.165721  0.002148  0.115708  0.082179  0.000979  1.062022  0.002
H  H26  1  0.20501126  0.23331188  0.82939723  1  0.11322  0.001172  0.115439  0.125598  0.000624  0.999535  0.001
H  H27  1  0.29446721  0.73362069  0.67107522  1  0.114151  0.001155  0.115677  0.125634  0.000585  0.995942  0.001
H  H28  1  0.79497353  0.76669569  0.17058266  1  0.113071  0.001172  0.115452  0.125523  0.000624  0.999616  0.001
H  H29  1  0.70552664  0.26636968  0.32890447  1  0.114806  0.001154  0.115676  0.12572  0.000585  0.996063  0.001
H  H30  1  0.25807448  0.02557177  0.64642487  1  0.082512  0.001226  0.115418  0.127258  0.000616  0.982976  0.001
H  H31  1  0.24142418  0.52465163  0.85280812  1  0.110504  0.001335  0.115527  0.127273  0.000729  0.983535  0.001
H  H32  1  0.74192683  0.97442124  0.35357898  1  0.082665  0.001226  0.115476  0.127304  0.000616  0.982791  0.001
H  H33  1  0.75857494  0.47534338  0.14717505  1  0.11054  0.001336  0.115629  0.127371  0.000729  0.983395  0.001
H  H34  1  0.37055595  0.13150641  0.57114676  1  0.160461  0.002342  0.120296  0.098039  0.001102  1.026842  0.002
H  H35  1  0.12857883  0.62995430  0.92852295  1  0.163865  0.002371  0.12067  0.099107  0.001127  1.024364  0.002
H  H36  1  0.62945069  0.86847932  0.42884770  1  0.160632  0.002342  0.120317  0.098053  0.001103  1.026731  0.002
H  H37  1  0.87142406  0.37004004  0.07146490  1  0.163803  0.002372  0.120689  0.099238  0.001127  1.024228  0.002
H  H38  1  0.03106961  0.24748687  0.91470799  1  0.111946  -1.7e-05  0.112638  0.034872  -5.6e-05  1.039516  0.0
H  H39  1  0.46862679  0.74940588  0.58225118  1  0.090833  -6.2e-05  0.112734  0.036074  -0.0001  1.038262  0.0
H  H40  1  0.96891663  0.75251674  0.08528806  1  0.111933  -1.7e-05  0.112608  0.034898  -5.6e-05  1.039536  0.0
H  H41  1  0.53136859  0.25062619  0.41772472  1  0.090186  -6.2e-05  0.112729  0.036281  -0.0001  1.038409  0.0
H  H42  1  0.01325894  0.33480692  0.71919231  1  0.059607  2.1e-05  0.103807  0.116813  4e-06  0.976018  0.0
H  H43  1  0.48577179  0.83453990  0.77893023  1  0.052609  9e-06  0.104401  0.117462  0.0  0.975475  0.0
H  H44  1  0.98671667  0.66521390  0.28081609  1  0.059147  2.1e-05  0.103824  0.116844  4e-06  0.976076  0.0
H  H45  1  0.51421222  0.16547959  0.22105413  1  0.052749  9e-06  0.104379  0.117512  0.0  0.975512  0.0
H  H46  1  0.88783441  0.30281028  0.74095096  1  0.048245  0.000141  0.102372  0.118209  0.000114  0.996777  0.0
H  H47  1  0.61110328  0.80246866  0.75688215  1  0.063571  9.4e-05  0.102046  0.117044  8.6e-05  0.995256  0.0
H  H48  1  0.11213895  0.69721649  0.25905411  1  0.048775  0.000141  0.102308  0.118058  0.000114  0.996908  0.0
H  H49  1  0.38887923  0.19754421  0.24310085  1  0.064059  9.5e-05  0.102071  0.117059  8.6e-05  0.995379  0.0
H  H50  1  0.99233667  0.23654812  0.78029959  1  0.072386  1.3e-05  0.108037  0.122928  1.1e-05  1.009009  0.0
H  H51  1  0.50639119  0.73699096  0.71670578  1  0.075075  6e-06  0.107662  0.121792  -6e-06  1.010126  0.0
H  H52  1  0.00763293  0.76347005  0.21969887  1  0.071956  1.3e-05  0.108051  0.122946  1.1e-05  1.008778  0.0
H  H53  1  0.49358227  0.26303185  0.28327227  1  0.074665  6e-06  0.107682  0.121923  -6e-06  1.009943  0.0
H  H54  1  0.97980348  0.48422197  0.79789134  1  0.045599  1.4e-05  0.101739  0.110373  3e-06  0.988883  0.0
H  H55  1  0.51901027  0.98478148  0.70207479  1  0.0474  1e-05  0.101682  0.109888  -6e-06  0.988203  0.0
H  H56  1  0.02017587  0.51579090  0.20212817  1  0.045628  1.4e-05  0.101742  0.110366  3e-06  0.988862  0.0
H  H57  1  0.48097822  0.01524000  0.29792458  1  0.047566  1e-05  0.101566  0.109759  -6e-06  0.988028  0.0
H  H58  1  0.94909485  0.47508538  0.90867072  1  0.145577  5e-06  0.110762  0.134236  2.5e-05  1.004975  0.0
H  H59  1  0.54995686  0.97728376  0.59126499  1  0.107352  9e-06  0.110534  0.135414  2.5e-05  1.00556  0.0
H  H60  1  0.05090110  0.52492087  0.09135217  1  0.145177  5e-06  0.110813  0.134243  2.5e-05  1.004882  0.0
H  H61  1  0.45002634  0.02274897  0.40873348  1  0.111057  9e-06  0.110456  0.135246  2.5e-05  1.005566  0.0
H  H62  1  0.85713468  0.44753871  0.82365349  1  0.035109  3.4e-05  0.102443  0.111463  1e-05  0.989138  0.0
H  H63  1  0.64183198  0.94883833  0.67603944  1  0.045225  3.4e-05  0.10175  0.110316  1.1e-05  0.989146  0.0
H  H64  1  0.14284613  0.55247548  0.17637704  1  0.034489  3.4e-05  0.102418  0.111426  1e-05  0.989188  0.0
H  H65  1  0.35815730  0.05118779  0.32395225  1  0.044932  3.4e-05  0.101716  0.11033  1.1e-05  0.989095  0.0
C  C66  1  0.58030446  0.32479853  0.76158473  1  0.486622  -0.00084  0.046401  0.08995  8.8e-05  3.946932  -0.001
C  C67  1  0.91746861  0.82326375  0.74056835  1  0.457712  -0.001325  0.047974  0.092381  -0.00025  3.943565  -0.001
C  C68  1  0.41968703  0.67518853  0.23841994  1  0.486391  -0.00084  0.046534  0.090033  8.8e-05  3.946893  -0.001
C  C69  1  0.08253795  0.17674118  0.25944412  1  0.458182  -0.001323  0.047969  0.092421  -0.000249  3.943616  -0.001
C  C70  1  0.65010841  0.29685083  0.82541394  1  0.005053  0.005649  -0.076807  -0.16022  0.00387  3.93102  0.004
C  C71  1  0.84799552  0.79550801  0.67639039  1  0.000146  0.005702  -0.077429  -0.161743  0.003874  3.932725  0.004
C  C72  1  0.34987323  0.70313689  0.17459604  1  0.005759  0.005648  -0.076837  -0.160327  0.00387  3.931278  0.004
C  C73  1  0.15201332  0.20450023  0.32361962  1  -0.000513  0.005701  -0.077528  -0.161922  0.003874  3.9328  0.004
C  C74  1  0.69444748  0.21292103  0.81861603  1  -0.024638  -0.002936  0.023107  0.090729  -0.002111  3.999244  -0.002
C  C75  1  0.80391447  0.71138604  0.68258454  1  -0.051734  -0.003515  0.023066  0.089728  -0.002519  4.0  -0.002
C  C76  1  0.30553490  0.78706602  0.18139913  1  -0.024876  -0.002937  0.023191  0.090849  -0.002112  3.999342  -0.002
C  C77  1  0.19609288  0.28862418  0.31742218  1  -0.051682  -0.003514  0.022927  0.08964  -0.002519  3.999779  -0.002
C  C78  1  0.66793525  0.16178631  0.74546733  1  -0.031909  0.006629  -0.07613  -0.155175  0.004604  3.921832  0.005
C  C79  1  0.83026514  0.65983513  0.75550092  1  -0.012898  0.006501  -0.075375  -0.152883  0.004458  3.921537  0.005
C  C80  1  0.33205696  0.83820075  0.25454573  1  -0.032339  0.006631  -0.076123  -0.155071  0.004603  3.921441  0.005
C  C81  1  0.16973313  0.34017443  0.24450793  1  -0.013385  0.006499  -0.075332  -0.152872  0.004457  3.921611  0.005
C  C82  1  0.59775720  0.19428777  0.68422015  1  0.440817  -0.000458  0.043459  0.08122  0.000431  3.930201  0.0
C  C83  1  0.90018691  0.69212784  0.81707668  1  0.443974  -0.000668  0.043504  0.079501  0.000251  3.932664  0.0
C  C84  1  0.40224107  0.80569929  0.31578742  1  0.441047  -0.000458  0.043429  0.081274  0.000431  3.929911  0.0
C  C85  1  0.09981210  0.30787842  0.18293414  1  0.44405  -0.000668  0.043612  0.07963  0.00025  3.932531  0.0
C  C86  1  0.76540717  0.17897209  0.88486085  1  0.941017  0.002951  0.200043  0.205241  0.002408  4.082623  0.003
C  C87  1  0.73334806  0.67765646  0.61590411  1  0.955286  0.002946  0.199714  0.204709  0.002463  4.080414  0.003
C  C88  1  0.23457596  0.82101695  0.11515435  1  0.940597  0.002951  0.199998  0.205161  0.002407  4.082573  0.003
C  C89  1  0.26667139  0.32235111  0.38409870  1  0.955468  0.002944  0.199835  0.204958  0.002462  4.079909  0.003
C  C90  1  0.30207402  0.26305188  0.72656669  1  0.413941  -0.000603  0.0449  0.092023  0.000165  3.929575  0.0
C  C91  1  0.19675189  0.76243478  0.77369251  1  0.459235  -0.00079  0.044287  0.090052  0.00013  3.931392  0.0
C  C92  1  0.69791907  0.73694643  0.27341424  1  0.41492  -0.000605  0.044793  0.092031  0.000164  3.929686  0.0
C  C93  1  0.80324193  0.23755824  0.22629297  1  0.458583  -0.00079  0.044368  0.090426  0.00013  3.931089  0.0
C  C94  1  0.23922421  0.20895631  0.77180735  1  0.026036  0.006515  -0.077633  -0.157134  0.004499  3.925125  0.005
C  C95  1  0.25995083  0.70875983  0.72833728  1  -0.028553  0.006167  -0.076402  -0.153929  0.004152  3.922314  0.005
C  C96  1  0.76076962  0.79104399  0.22817877  1  0.024948  0.006518  -0.077689  -0.157127  0.004499  3.925056  0.005
C  C97  1  0.74004452  0.29123385  0.27164442  1  -0.028255  0.006168  -0.076392  -0.15414  0.004152  3.922708  0.005
C  C98  1  0.22205613  0.12163456  0.74387178  1  -0.080861  -0.004165  0.021188  0.086151  -0.002971  4.003358  -0.003
C  C99  1  0.27728976  0.62133490  0.75584675  1  -0.063423  -0.003189  0.020523  0.08531  -0.002303  4.003512  -0.002
C  C100  1  0.77794446  0.87836375  0.25612303  1  -0.080821  -0.004166  0.021161  0.086092  -0.002972  4.003269  -0.003
C  C101  1  0.72271089  0.37866076  0.24413455  1  -0.06231  -0.00319  0.020584  0.085579  -0.002303  4.003598  -0.002
C  C102  1  0.26931972  0.09287771  0.67018128  1  0.020144  0.006401  -0.078216  -0.159366  0.004286  3.920911  0.005
C  C103  1  0.23000571  0.59205205  0.82936080  1  -0.032369  0.006686  -0.077754  -0.159199  0.004559  3.92222  0.005
C  C104  1  0.73068689  0.90711464  0.32981833  1  0.020232  0.006401  -0.078251  -0.15934  0.004286  3.920906  0.005
C  C105  1  0.76999116  0.40793964  0.17061904  1  -0.03415  0.006688  -0.077747  -0.159316  0.00456  3.921986  0.005
C  C106  1  0.33135920  0.15095962  0.62818094  1  0.485018  -0.000743  0.048252  0.089465  0.000219  3.938964  0.0
C  C107  1  0.16771099  0.64970992  0.87152796  1  0.479589  -0.000607  0.048068  0.088698  0.000273  3.938513  0.0
C  C108  1  0.66864744  0.84902942  0.37181223  1  0.48457  -0.000739  0.048056  0.089205  0.000219  3.93876  0.0
C  C109  1  0.83228964  0.35028111  0.12845528  1  0.480026  -0.000608  0.048027  0.088641  0.000273  3.93822  0.0
C  C110  1  0.15918154  0.06293845  0.79225695  1  0.960845  -0.002344  0.204004  0.212084  -0.002232  4.078317  -0.003
C  C111  1  0.34040661  0.56297315  0.70731160  1  0.935373  0.003376  0.204778  0.211734  0.002753  4.079179  0.004
C  C112  1  0.84082280  0.93706184  0.20774384  1  0.961021  -0.002344  0.203978  0.212195  -0.002232  4.078023  -0.003
C  C113  1  0.65960079  0.43701986  0.29268033  1  0.935623  0.003377  0.204782  0.211541  0.002753  4.078987  0.004
C  C114  1  0.00730087  0.31732994  0.92238052  1  1.326578  -9.2e-05  0.15882  0.290794  -0.000124  4.152896  0.0
C  C115  1  0.49232888  0.81939375  0.57550953  1  1.377912  -0.000149  0.159306  0.28953  -0.00016  4.154237  0.0
C  C116  1  0.99268835  0.68267367  0.07762468  1  1.326864  -9.2e-05  0.15882  0.290748  -0.000124  4.152639  0.0
C  C117  1  0.50766875  0.18064031  0.42447163  1  1.377881  -0.000149  0.158972  0.288661  -0.00016  4.155481  0.0
C  C118  1  0.96639812  0.30448930  0.76759805  1  0.277668  5e-05  -0.129775  -0.274515  4e-05  3.926981  0.0
C  C119  1  0.53256937  0.80472728  0.73020020  1  0.267145  2.7e-05  -0.129966  -0.274217  2.6e-05  3.927446  0.0
C  C120  1  0.03357675  0.69552953  0.23240774  1  0.277824  5e-05  -0.12985  -0.274543  4e-05  3.926898  0.0
C  C121  1  0.46741237  0.19528890  0.26978469  1  0.266342  2.7e-05  -0.13019  -0.274682  2.6e-05  3.92797  0.0
C  C122  1  0.93786020  0.44573013  0.84438692  1  0.239764  1e-06  -0.132344  -0.266187  1.5e-05  3.910629  0.0
C  C123  1  0.56114609  0.94704757  0.65516857  1  0.259243  5e-06  -0.131493  -0.264894  9e-06  3.907471  0.0
C  C124  1  0.06212366  0.55428075  0.15563539  1  0.24059  1e-06  -0.132292  -0.266113  1.5e-05  3.910793  0.0
C  C125  1  0.43884090  0.05297986  0.34482687  1  0.25564  5e-06  -0.131329  -0.264617  9e-06  3.907235  0.0
N  N126  1  0.55364688  0.27400176  0.69290611  1  -1.214176  0.095002  -0.352037  -0.212575  0.064409  3.650746  0.083
N  N127  1  0.94409785  0.77201374  0.80895416  1  -1.208126  0.09205  -0.351552  -0.210713  0.062451  3.649445  0.081
N  N128  1  0.44635216  0.72598596  0.30709828  1  -1.213724  0.095009  -0.352236  -0.212792  0.064414  3.650835  0.083
N  N129  1  0.05590343  0.22798855  0.19105549  1  -1.208122  0.092041  -0.351685  -0.210884  0.062446  3.649316  0.081
N  N130  1  0.79766098  0.22406570  0.95610905  1  -0.616352  0.004203  -0.216969  -0.257675  0.002558  3.18547  0.003
N  N131  1  0.70225636  0.72266907  0.54424659  1  -0.630374  0.004269  -0.216944  -0.258259  0.002587  3.179113  0.003
N  N132  1  0.20233502  0.77592864  0.04389905  1  -0.616089  0.004203  -0.216962  -0.257668  0.002557  3.185611  0.003
N  N133  1  0.29775401  0.27734248  0.45575899  1  -0.63026  0.004266  -0.217093  -0.258645  0.002587  3.179654  0.003
N  N134  1  0.86030837  0.16774696  0.99698649  1  -0.229566  0.070078  -0.143378  -0.051646  0.049748  3.625642  0.063
N  N135  1  0.63955190  0.66653886  0.50313743  1  -0.216442  0.068838  -0.142967  -0.049953  0.049033  3.626085  0.062
N  N136  1  0.13968915  0.83224738  0.00302104  1  -0.229713  0.070061  -0.143571  -0.051837  0.049736  3.626053  0.063
N  N137  1  0.36048421  0.33346077  0.49685460  1  -0.217324  0.068837  -0.142861  -0.049611  0.049028  3.626382  0.062
N  N138  1  0.86578615  0.09160803  0.95337159  1  -0.128502  0.000556  -0.110029  -0.071493  -1.8e-05  3.426479  0.0
N  N139  1  0.63298596  0.59078756  0.54694048  1  -0.144293  0.004038  -0.110944  -0.070302  0.002823  3.437068  0.005
N  N140  1  0.13419850  0.90838167  0.04664368  1  -0.128919  0.000554  -0.11001  -0.07151  -1.8e-05  3.426765  0.0
N  N141  1  0.36707512  0.40920281  0.45304054  1  -0.144268  0.004033  -0.111138  -0.070818  0.002821  3.43727  0.005
N  N142  1  0.80697298  0.09702855  0.88231939  1  -0.620096  0.006219  -0.218794  -0.251653  0.003926  3.176221  0.005
N  N143  1  0.69104013  0.59602069  0.61846600  1  -0.611341  0.005649  -0.217118  -0.249983  0.00365  3.176693  0.004
N  N144  1  0.19300183  0.90295652  0.11770120  1  -0.61914  0.006216  -0.218597  -0.251461  0.003925  3.176382  0.005
N  N145  1  0.30901035  0.40397365  0.38152029  1  -0.610977  0.005653  -0.217005  -0.249696  0.003652  3.176343  0.004
N  N146  1  0.34757485  0.23444233  0.65621475  1  -1.221702  0.09835  -0.347055  -0.215301  0.066625  3.625157  0.086
N  N147  1  0.15117800  0.73326479  0.84380238  1  -1.208292  0.096174  -0.346033  -0.213863  0.065094  3.627973  0.084
N  N148  1  0.65242426  0.76555068  0.34377163  1  -1.221199  0.098343  -0.34681  -0.215013  0.066623  3.625289  0.086
N  N149  1  0.84882262  0.26673021  0.15618665  1  -1.208575  0.096195  -0.346161  -0.214165  0.065106  3.628062  0.084
N  N150  1  0.10912894  0.08930766  0.86115072  1  -0.652515  -0.004264  -0.205702  -0.240035  -0.002689  3.198034  -0.003
N  N151  1  0.39029596  0.58952499  0.63837408  1  -0.628166  0.004039  -0.20569  -0.238876  0.002415  3.191518  0.003
N  N152  1  0.89085205  0.91069925  0.13883543  1  -0.652234  -0.004262  -0.205602  -0.240007  -0.002688  3.198059  -0.003
N  N153  1  0.60975591  0.41047133  0.36164251  1  -0.62783  0.004036  -0.205985  -0.239262  0.002415  3.191755  0.003
N  N154  1  0.06664310  0.01587767  0.88834091  1  -0.167739  -0.072473  -0.132366  -0.026854  -0.054892  3.606062  -0.065
N  N155  1  0.43304740  0.51621856  0.61123653  1  -0.165127  0.075287  -0.132041  -0.024902  0.05336  3.606052  0.067
N  N156  1  0.93334466  0.98412792  0.11165199  1  -0.168271  -0.072481  -0.132371  -0.026853  -0.054896  3.606346  -0.065
N  N157  1  0.56700748  0.48377578  0.38878472  1  -0.165541  0.0753  -0.131849  -0.024264  0.05337  3.605825  0.068
N  N158  1  0.08888881  0.94715712  0.83854844  1  -0.178301  -0.003359  -0.115205  -0.089239  -0.002083  3.431183  -0.002
N  N159  1  0.41109123  0.44746888  0.66107775  1  -0.179346  -0.000138  -0.117438  -0.088509  -0.000257  3.447528  0.002
N  N160  1  0.91112682  0.05284186  0.16146254  1  -0.178442  -0.00336  -0.115223  -0.08915  -0.002083  3.431119  -0.002
N  N161  1  0.58892369  0.55252083  0.33892226  1  -0.179109  -0.000135  -0.117468  -0.088905  -0.000256  3.447806  0.002
N  N162  1  0.14704602  0.97526250  0.77711791  1  -0.633526  -0.006487  -0.216546  -0.263568  -0.004422  3.214  -0.005
N  N163  1  0.35285694  0.47533442  0.72249037  1  -0.630189  0.006772  -0.214798  -0.26052  0.004434  3.214452  0.005
N  N164  1  0.85298092  0.02473250  0.22290006  1  -0.633431  -0.006488  -0.216558  -0.263708  -0.004422  3.213874  -0.005
N  N165  1  0.64712935  0.52465330  0.27749024  1  -0.630262  0.006771  -0.214746  -0.260246  0.004433  3.214535  0.005
N  N166  1  0.05832606  0.11771582  0.04516533  1  -0.328916  0.015239  -0.353581  -0.528709  0.009505  3.328714  0.013
N  N167  1  0.44099915  0.61878023  0.45588021  1  -0.320068  0.134311  -0.350743  -0.529019  0.094969  3.321222  0.119
N  N168  1  0.94167226  0.88228183  0.95483195  1  -0.329441  0.015263  -0.353537  -0.528605  0.00952  3.328834  0.013
N  N169  1  0.55905044  0.38120352  0.54414142  1  -0.320592  0.134301  -0.350698  -0.528665  0.094967  3.321316  0.119
N  N170  1  0.14796837  0.13496725  0.05187888  1  -0.281859  0.002182  0.096303  0.43069  0.00071  4.407759  0.0
N  N171  1  0.35117492  0.63126944  0.44189288  1  -0.272635  0.004082  0.094631  0.430278  -0.001713  4.412108  -0.012
N  N172  1  0.85203301  0.86501848  0.94810889  1  -0.281395  0.00218  0.096386  0.430721  0.00071  4.408176  0.0
N  N173  1  0.64886710  0.36867855  0.55813353  1  -0.271412  0.00407  0.094308  0.429981  -0.001712  4.41359  -0.012
N  N174  1  0.23332570  0.15231060  0.05732266  1  0.077043  0.015602  -0.165691  -0.320452  0.009621  2.453823  0.011
N  N175  1  0.26527676  0.64477088  0.43016344  1  0.050879  0.1616  -0.170823  -0.327656  0.105005  2.45491  0.116
N  N176  1  0.76668026  0.84765924  0.94265247  1  0.077182  0.015631  -0.165762  -0.320541  0.009641  2.454159  0.011
N  N177  1  0.73475689  0.35513872  0.56987415  1  0.050185  0.161596  -0.170464  -0.327421  0.105004  2.455665  0.116
N  N178  1  0.97351743  0.35485410  0.84737903  1  -1.18389  0.000168  -0.289764  0.016269  0.000124  3.7172  0.0
N  N179  1  0.52573547  0.85609149  0.65103075  1  -1.197913  0.000145  -0.290413  0.014403  0.000112  3.720476  0.0
N  N180  1  0.02646422  0.64515547  0.15263159  1  -1.183318  0.000168  -0.289646  0.016443  0.000124  3.717346  0.0
N  N181  1  0.47425080  0.14393528  0.34895629  1  -1.197072  0.000145  -0.290058  0.014889  0.000112  3.720866  0.0
O  O182  1  0.01212818  0.35527529  0.99362008  1  -1.169652  -0.000426  -0.320816  -0.490661  -0.000304  2.241385  0.0
O  O183  1  0.48774846  0.85824679  0.50474432  1  -1.179796  0.000123  -0.320017  -0.486968  6.3e-05  2.240684  0.0
O  O184  1  0.98787085  0.64472169  0.00638881  1  -1.17016  -0.000427  -0.320873  -0.490703  -0.000304  2.241149  0.0
O  O185  1  0.51225973  0.14178793  0.49524057  1  -1.179327  0.000123  -0.31978  -0.486537  6.3e-05  2.241411  0.0
