# generated using pymatgen
data_BaH18C7(BrO4)2
_symmetry_space_group_name_H-M   'P 1'
_cell_length_a   7.37756029
_cell_length_b   8.41025150
_cell_length_c   13.48362249
_cell_angle_alpha   90.00007142
_cell_angle_beta   89.99993419
_cell_angle_gamma   116.04510938
_symmetry_Int_Tables_number   1
_chemical_formula_structural   BaH18C7(BrO4)2
_chemical_formula_sum   'Ba2 H36 C14 Br4 O16'
_cell_volume   751.66025772
_cell_formula_units_Z   2
loop_
 _symmetry_equiv_pos_site_id
 _symmetry_equiv_pos_as_xyz
  1  'x, y, z'
loop_
 _atom_site_type_symbol
 _atom_site_label
 _atom_site_symmetry_multiplicity
 _atom_site_fract_x
 _atom_site_fract_y
 _atom_site_fract_z
 _atom_site_occupancy
 _atom_site_hle17_bader_spin_density
 _atom_site_hle17_ddec_charge
 _atom_site_hle17_ddec_spin_density
 _atom_site_hle17_ddec_sum_bond_order
 _atom_site_hle17_magmom
 _atom_site_hse06_10hf_bader_spin_density
 _atom_site_hse06_10hf_ddec_charge
 _atom_site_hse06_10hf_ddec_spin_density
 _atom_site_hse06_10hf_ddec_sum_bond_order
 _atom_site_hse06_10hf_magmom
 _atom_site_hse06_bader_spin_density
 _atom_site_hse06_ddec_charge
 _atom_site_hse06_ddec_spin_density
 _atom_site_hse06_ddec_sum_bond_order
 _atom_site_hse06_magmom
 _atom_site_pbe_bader_spin_density
 _atom_site_pbe_cm5_charge
 _atom_site_pbe_ddec_charge
 _atom_site_pbe_ddec_spin_density
 _atom_site_pbe_ddec_sum_bond_order
 _atom_site_pbe_magmom
Ba  Ba0  1  0.12425149  0.24860633  0.74996766  1  0  1.590581  0  1.131483  0  0  1.437171  0  1.524358  0  0  1.474855  0  1.482173  0  0  0.802872  1.409727  0  1.553887  0
Ba  Ba1  1  0.87574661  0.75139214  0.24996697  1  0  1.590599  0  1.131464  0  0  1.437171  0  1.524378  0  0  1.47487  0  1.482167  0  0  0.802884  1.409727  0  1.553917  0
H  H2  1  0.65466828  0.94877500  0.67598913  1  0  0.384074  0  0.914006  0  0  0.36069  0  0.980082  0  0  0.37043  0  0.969088  0  0  0.304254  0.353819  0  0.987535  0
H  H3  1  0.34533194  0.05122468  0.17598823  1  0  0.384092  0  0.913948  0  0  0.360723  0  0.979999  0  0  0.370461  0  0.969033  0  0  0.304275  0.353851  0  0.98745  0
H  H4  1  0.29395469  0.94888472  0.82400584  1  0  0.384674  0  0.912627  0  0  0.361703  0  0.978169  0  0  0.371462  0  0.967471  0  0  0.304367  0.354802  0  0.985699  0
H  H5  1  0.70604196  0.05111385  0.32400472  1  0  0.384627  0  0.912702  0  0  0.361652  0  0.978251  0  0  0.37141  0  0.967552  0  0  0.304362  0.354751  0  0.98578  0
H  H6  1  0.30983399  0.79501482  0.97235686  1  0  0.353543  0  0.921229  0  0  0.324769  0  1.007255  0  0  0.334922  0  0.995269  0  0  0.271583  0.31756  0  1.015742  0
H  H7  1  0.69016854  0.20498530  0.47235735  1  0  0.353429  0  0.921223  0  0  0.324636  0  1.007301  0  0  0.334792  0  0.995313  0  0  0.271517  0.317427  0  1.015782  0
H  H8  1  0.48506777  0.79501328  0.52769218  1  0  0.353421  0  0.921219  0  0  0.324686  0  1.007165  0  0  0.334834  0  0.99516  0  0  0.271291  0.317482  0  1.015658  0
H  H9  1  0.51493602  0.20498750  0.02769129  1  0  0.353412  0  0.921232  0  0  0.324712  0  1.007114  0  0  0.334855  0  0.995112  0  0  0.271364  0.317504  0  1.015617  0
H  H10  1  0.75599208  0.75113146  0.78049135  1  0  0.046504  0  0.950574  0  0  0.057437  0  1.021386  0  0  0.058744  0  1.019231  0  0  0.095337  0.056369  0  1.02313  0
H  H11  1  0.24401073  0.24886573  0.28049215  1  0  0.046499  0  0.950585  0  0  0.057454  0  1.021401  0  0  0.058751  0  1.019255  0  0  0.095308  0.056379  0  1.023147  0
H  H12  1  0.99456301  0.75119944  0.71957812  1  0  0.045663  0  0.95002  0  0  0.057252  0  1.020564  0  0  0.058555  0  1.018377  0  0  0.095142  0.056182  0  1.022328  0
H  H13  1  0.00543714  0.24880030  0.21957907  1  0  0.045704  0  0.949988  0  0  0.057279  0  1.020524  0  0  0.058584  0  1.018333  0  0  0.09516  0.056209  0  1.022283  0
H  H14  1  0.51285793  0.74384659  0.79052953  1  0  0.060405  0  0.9387  0  0  0.071837  0  1.009732  0  0  0.072806  0  1.007996  0  0  0.107057  0.071026  0  1.011121  0
H  H15  1  0.48714488  0.25615061  0.29053018  1  0  0.060406  0  0.938672  0  0  0.07185  0  1.009696  0  0  0.072818  0  1.00796  0  0  0.10707  0.071035  0  1.011088  0
H  H16  1  0.23037009  0.74380822  0.70956621  1  0  0.060761  0  0.938551  0  0  0.071975  0  1.010044  0  0  0.072911  0  1.008293  0  0  0.107072  0.071174  0  1.011435  0
H  H17  1  0.76963144  0.25619150  0.20956669  1  0  0.060816  0  0.938513  0  0  0.071987  0  1.010029  0  0  0.072923  0  1.008279  0  0  0.107062  0.071185  0  1.011418  0
H  H18  1  0.68995872  0.76992326  0.95197794  1  0  0.057417  0  0.934146  0  0  0.06303  0  1.003754  0  0  0.064258  0  1.002221  0  0  0.107121  0.062024  0  1.005067  0
H  H19  1  0.31004314  0.23007815  0.45197794  1  0  0.057433  0  0.934104  0  0  0.062998  0  1.00374  0  0  0.064226  0  1.002207  0  0  0.107128  0.061995  0  1.005043  0
H  H20  1  0.07948223  0.76969835  0.54807406  1  0  0.057451  0  0.934396  0  0  0.063729  0  1.003099  0  0  0.064983  0  1.001546  0  0  0.107097  0.062669  0  1.004471  0
H  H21  1  0.92052085  0.23030379  0.04807368  1  0  0.057487  0  0.934326  0  0  0.063725  0  1.003095  0  0  0.064978  0  1.001548  0  0  0.107108  0.062663  0  1.004468  0
H  H22  1  0.64276308  0.10588582  0.90333646  1  0  0.055266  0  0.930986  0  0  0.060842  0  1.001328  0  0  0.06246  0  0.999214  0  0  0.109641  0.05952  0  1.003103  0
H  H23  1  0.35723687  0.89411154  0.40333769  1  0  0.055252  0  0.930948  0  0  0.060807  0  1.001318  0  0  0.062423  0  0.999205  0  0  0.109633  0.05948  0  1.003097  0
H  H24  1  0.46297370  0.10569906  0.59670601  1  0  0.054904  0  0.930766  0  0  0.060782  0  1.000867  0  0  0.062403  0  0.998683  0  0  0.109656  0.059448  0  1.002719  0
H  H25  1  0.53702792  0.89430580  0.09670564  1  0  0.054934  0  0.930777  0  0  0.06078  0  1.000889  0  0  0.0624  0  0.998705  0  0  0.109666  0.05945  0  1.002741  0
H  H26  1  0.05172135  0.87992089  0.99887581  1  0  0.043191  0  0.94855  0  0  0.048624  0  1.025232  0  0  0.049883  0  1.022132  0  0  0.10786  0.047523  0  1.027722  0
H  H27  1  0.94828249  0.12007927  0.49887385  1  0  0.043154  0  0.948502  0  0  0.048593  0  1.025181  0  0  0.049853  0  1.02208  0  0  0.10786  0.047488  0  1.027668  0
H  H28  1  0.82797789  0.87984376  0.50094558  1  0  0.043116  0  0.949757  0  0  0.048657  0  1.026447  0  0  0.049831  0  1.023445  0  0  0.107812  0.047604  0  1.028882  0
H  H29  1  0.17202323  0.12015698  0.00094633  1  0  0.043109  0  0.949769  0  0  0.048661  0  1.026448  0  0  0.049835  0  1.023447  0  0  0.107808  0.047613  0  1.028879  0
H  H30  1  0.58603581  0.43906002  0.63758087  1  0  0.405629  0  0.89155  0  0  0.376015  0  0.957201  0  0  0.386274  0  0.942106  0  0  0.272826  0.368673  0  0.967993  0
H  H31  1  0.41396105  0.56094092  0.13758107  1  0  0.405625  0  0.891555  0  0  0.376011  0  0.957206  0  0  0.386269  0  0.942112  0  0  0.272828  0.368671  0  0.967995  0
H  H32  1  0.85279965  0.43885626  0.86233938  1  0  0.405574  0  0.892025  0  0  0.375827  0  0.957628  0  0  0.386088  0  0.94253  0  0  0.272858  0.368487  0  0.968416  0
H  H33  1  0.14719357  0.56114104  0.36233974  1  0  0.405483  0  0.89207  0  0  0.375723  0  0.957752  0  0  0.38599  0  0.94265  0  0  0.272808  0.368371  0  0.968544  0
H  H34  1  0.45849665  0.49735996  0.56807365  1  0  0.397668  0  0.911286  0  0  0.366403  0  0.978024  0  0  0.3769  0  0.962561  0  0  0.262701  0.358931  0  0.98902  0
H  H35  1  0.54149965  0.50263955  0.06807298  1  0  0.397679  0  0.911266  0  0  0.366419  0  0.977996  0  0  0.376916  0  0.962532  0  0  0.262718  0.358946  0  0.988996  0
H  H36  1  0.03867960  0.49719395  0.93186549  1  0  0.397466  0  0.91138  0  0  0.366515  0  0.977807  0  0  0.377007  0  0.96235  0  0  0.262966  0.359048  0  0.988797  0
H  H37  1  0.96131621  0.50280610  0.43186529  1  0  0.397463  0  0.911377  0  0  0.366509  0  0.977807  0  0  0.377  0  0.962353  0  0  0.262979  0.359045  0  0.988792  0
C  C38  1  0.67481395  0.82996965  0.79956714  1  0  0.101517  0  3.646807  0  0  0.0337  0  3.926587  0  0  0.0413  0  3.929992  0  0  -0.075488  0.028549  0  3.924287  0
C  C39  1  0.32518680  0.17002889  0.29956783  1  0  0.101586  0  3.646708  0  0  0.033713  0  3.926489  0  0  0.041322  0  3.929894  0  0  -0.075458  0.02857  0  3.92418  0
C  C40  1  0.15470986  0.82995612  0.70047746  1  0  0.102048  0  3.644712  0  0  0.033061  0  3.926263  0  0  0.040748  0  3.929574  0  0  -0.075894  0.027893  0  3.923968  0
C  C41  1  0.84528762  0.17004359  0.20047634  1  0  0.101951  0  3.644746  0  0  0.033066  0  3.926168  0  0  0.040752  0  3.929481  0  0  -0.075874  0.027897  0  3.923864  0
C  C42  1  0.71739266  0.88741237  0.90681207  1  0  0.116747  0  3.576091  0  0  0.089221  0  3.828302  0  0  0.094489  0  3.837275  0  0  -0.003238  0.085555  0  3.822204  0
C  C43  1  0.28260664  0.11258103  0.40680903  1  0  0.116643  0  3.576231  0  0  0.089214  0  3.828329  0  0  0.094482  0  3.837299  0  0  -0.003334  0.085539  0  3.822231  0
C  C44  1  0.16963607  0.88725263  0.59320067  1  0  0.11692  0  3.574577  0  0  0.089755  0  3.826198  0  0  0.094968  0  3.835171  0  0  -0.002324  0.086179  0  3.82007  0
C  C45  1  0.83036423  0.11274957  0.09320026  1  0  0.116851  0  3.5745  0  0  0.089666  0  3.826151  0  0  0.094873  0  3.835131  0  0  -0.002373  0.086101  0  3.820013  0
C  C46  1  0.59147716  0.98019008  0.94433396  1  0  0.128912  0  3.605521  0  0  0.098311  0  3.859442  0  0  0.103246  0  3.868515  0  0  -0.00761  0.094969  0  3.85328  0
C  C47  1  0.40852471  0.01981131  0.44433596  1  0  0.128962  0  3.605551  0  0  0.098339  0  3.859497  0  0  0.103277  0  3.868566  0  0  -0.00759  0.095003  0  3.853334  0
C  C48  1  0.38851775  0.98001714  0.55571665  1  0  0.13123  0  3.604046  0  0  0.100332  0  3.857819  0  0  0.105393  0  3.866713  0  0  -0.007481  0.096796  0  3.851985  0
C  C49  1  0.61147995  0.01997971  0.05571704  1  0  0.131227  0  3.603858  0  0  0.100396  0  3.857576  0  0  0.105457  0  3.866468  0  0  -0.007421  0.096855  0  3.851748  0
C  C50  1  0.02760714  0.00004093  0.99994048  1  0  0.268447  0  3.673539  0  0  0.187226  0  3.967797  0  0  0.20267  0  3.965674  0  0  0.023678  0.17657  0  3.969368  0
C  C51  1  0.97239333  0.99995791  0.49993992  1  0  0.268547  0  3.673395  0  0  0.187319  0  3.967615  0  0  0.202766  0  3.965492  0  0  0.0237  0.176672  0  3.969176  0
Br  Br52  1  0.51651239  0.39338360  0.90787768  1  0  -0.658085  0  0.772094  0  0  -0.589145  0  1.007948  0  0  -0.607826  0  0.985023  0  0  -0.239885  -0.575347  0  1.023984  0
Br  Br53  1  0.48347809  0.60661113  0.40788009  1  0  -0.658084  0  0.772112  0  0  -0.589109  0  1.007957  0  0  -0.60779  0  0.985036  0  0  -0.239879  -0.575322  0  1.023976  0
Br  Br54  1  0.87696149  0.39363625  0.59212710  1  0  -0.658308  0  0.771571  0  0  -0.589455  0  1.007554  0  0  -0.608154  0  0.984634  0  0  -0.24006  -0.575642  0  1.023589  0
Br  Br55  1  0.12303815  0.60636463  0.09212752  1  0  -0.658312  0  0.771548  0  0  -0.589456  0  1.007521  0  0  -0.608156  0  0.9846  0  0  -0.240051  -0.575636  0  1.02356  0
O  O56  1  0.73738084  0.98337682  0.73772252  1  0  -0.608437  0  2.104542  0  0  -0.547818  0  2.34694  0  0  -0.566029  0  2.33536  0  0  -0.459085  -0.534855  0  2.354436  0
O  O57  1  0.26261933  0.01662030  0.23772017  1  0  -0.608465  0  2.104379  0  0  -0.54786  0  2.346819  0  0  -0.566073  0  2.335257  0  0  -0.459098  -0.534899  0  2.354316  0
O  O58  1  0.24579184  0.98342365  0.76227691  1  0  -0.609251  0  2.103628  0  0  -0.548529  0  2.345428  0  0  -0.566758  0  2.334098  0  0  -0.459016  -0.535546  0  2.352951  0
O  O59  1  0.75420419  0.01657615  0.26227721  1  0  -0.609233  0  2.103678  0  0  -0.54853  0  2.34545  0  0  -0.56676  0  2.334117  0  0  -0.459047  -0.53555  0  2.352978  0
O  O60  1  0.92788480  0.01511415  0.91336183  1  0  -0.394503  0  2.302634  0  0  -0.317815  0  2.554304  0  0  -0.336424  0  2.554815  0  0  -0.248302  -0.304577  0  2.55355  0
O  O61  1  0.07211784  0.98488323  0.41336257  1  0  -0.394584  0  2.302769  0  0  -0.31789  0  2.554386  0  0  -0.336502  0  2.554898  0  0  -0.248321  -0.304655  0  2.553631  0
O  O62  1  0.08702512  0.01496100  0.58657677  1  0  -0.394193  0  2.300714  0  0  -0.317848  0  2.552779  0  0  -0.33645  0  2.5533  0  0  -0.248423  -0.304663  0  2.552018  0
O  O63  1  0.91297588  0.98503987  0.08657549  1  0  -0.394171  0  2.300766  0  0  -0.317836  0  2.552864  0  0  -0.336431  0  2.553383  0  0  -0.248413  -0.304647  0  2.552102  0
O  O64  1  0.38351271  0.87926521  0.91849227  1  0  -0.552017  0  2.145294  0  0  -0.495473  0  2.364067  0  0  -0.512218  0  2.352875  0  0  -0.385601  -0.483612  0  2.371761  0
O  O65  1  0.61648721  0.12073218  0.41849125  1  0  -0.5519  0  2.145238  0  0  -0.495326  0  2.364008  0  0  -0.512071  0  2.352816  0  0  -0.385513  -0.483469  0  2.371694  0
O  O66  1  0.49537049  0.87907144  0.58162059  1  0  -0.551942  0  2.14568  0  0  -0.495311  0  2.364432  0  0  -0.512128  0  2.353304  0  0  -0.385044  -0.483379  0  2.372068  0
O  O67  1  0.50463248  0.12093603  0.08161742  1  0  -0.551937  0  2.145623  0  0  -0.495354  0  2.364367  0  0  -0.51216  0  2.353242  0  0  -0.385177  -0.483413  0  2.372007  0
O  O68  1  0.45890107  0.45091008  0.63539011  1  0  -0.86833  0  1.832849  0  0  -0.814035  0  1.999573  0  0  -0.83318  0  1.969301  0  0  -0.632717  -0.800436  0  2.020944  0
O  O69  1  0.54109646  0.54909218  0.13539022  1  0  -0.868341  0  1.832847  0  0  -0.814043  0  1.999567  0  0  -0.833189  0  1.969293  0  0  -0.632728  -0.800442  0  2.020941  0
O  O70  1  0.99179538  0.45070998  0.86455462  1  0  -0.868049  0  1.833406  0  0  -0.814116  0  1.999518  0  0  -0.833251  0  1.96923  0  0  -0.633  -0.800523  0  2.020903  0
O  O71  1  0.00820121  0.54928865  0.36455432  1  0  -0.867953  0  1.833381  0  0  -0.814002  0  1.999606  0  0  -0.83315  0  1.969299  0  0  -0.63298  -0.80039  0  2.021035  0
