# generated using pymatgen
data_HgH8C22N6(OF4)2
_symmetry_space_group_name_H-M   'P 1'
_cell_length_a   8.35989298
_cell_length_b   10.46262150
_cell_length_c   12.49364035
_cell_angle_alpha   98.11242028
_cell_angle_beta   90.00008517
_cell_angle_gamma   89.99925845
_symmetry_Int_Tables_number   1
_chemical_formula_structural   HgH8C22N6(OF4)2
_chemical_formula_sum   'Hg2 H16 C44 N12 O4 F16'
_cell_volume   1081.83840619
_cell_formula_units_Z   2
loop_
 _symmetry_equiv_pos_site_id
 _symmetry_equiv_pos_as_xyz
  1  'x, y, z'
loop_
 _atom_site_type_symbol
 _atom_site_label
 _atom_site_symmetry_multiplicity
 _atom_site_fract_x
 _atom_site_fract_y
 _atom_site_fract_z
 _atom_site_occupancy
 _atom_site_hle17_bader_spin_density
 _atom_site_hle17_ddec_charge
 _atom_site_hle17_ddec_spin_density
 _atom_site_hle17_ddec_sum_bond_order
 _atom_site_hle17_magmom
 _atom_site_hse06_10hf_bader_spin_density
 _atom_site_hse06_10hf_ddec_charge
 _atom_site_hse06_10hf_ddec_spin_density
 _atom_site_hse06_10hf_ddec_sum_bond_order
 _atom_site_hse06_10hf_magmom
 _atom_site_hse06_bader_spin_density
 _atom_site_hse06_ddec_charge
 _atom_site_hse06_ddec_spin_density
 _atom_site_hse06_ddec_sum_bond_order
 _atom_site_hse06_magmom
 _atom_site_pbe_bader_spin_density
 _atom_site_pbe_cm5_charge
 _atom_site_pbe_ddec_charge
 _atom_site_pbe_ddec_spin_density
 _atom_site_pbe_ddec_sum_bond_order
 _atom_site_pbe_magmom
Hg  Hg0  1  0.00000120  1.00000000  0.00000080  1  0  0.854906  0  1.91192  0  0  0.662121  0  2.372363  0  0  0.715367  0  2.339846  0  0  0.689812  0.622899  0  2.396094  0
Hg  Hg1  1  0.49999879  0.50000058  0.99999986  1  0  0.854839  0  1.911866  0  0  0.662008  0  2.372256  0  0  0.715253  0  2.339733  0  0  0.689829  0.622782  0  2.39597  0
H  H2  1  0.03341401  0.87601076  0.69488906  1  0  0.08307  0  0.955913  0  0  0.086187  0  1.027595  0  0  0.088547  0  1.026857  0  0  0.110245  0.084501  0  1.028268  0
H  H3  1  0.53341244  0.62398917  0.30511302  1  0  0.083044  0  0.95593  0  0  0.086156  0  1.027584  0  0  0.088514  0  1.026852  0  0  0.11026  0.08447  0  1.028249  0
H  H4  1  0.96658707  0.12398950  0.30511053  1  0  0.083039  0  0.955967  0  0  0.086093  0  1.027698  0  0  0.088453  0  1.02696  0  0  0.110235  0.084408  0  1.028376  0
H  H5  1  0.46658745  0.37601012  0.69488646  1  0  0.083055  0  0.955864  0  0  0.086145  0  1.027555  0  0  0.088503  0  1.026822  0  0  0.110249  0.084461  0  1.028222  0
H  H6  1  0.09713894  0.65886987  0.58730441  1  0  0.094532  0  0.937742  0  0  0.092446  0  1.012003  0  0  0.097055  0  1.007147  0  0  0.109929  0.089132  0  1.01545  0
H  H7  1  0.59713651  0.84112842  0.41269834  1  0  0.09447  0  0.937795  0  0  0.092386  0  1.01205  0  0  0.096996  0  1.007192  0  0  0.109915  0.089072  0  1.015501  0
H  H8  1  0.90286095  0.34113135  0.41269530  1  0  0.094269  0  0.938094  0  0  0.092441  0  1.012024  0  0  0.097049  0  1.007168  0  0  0.109925  0.089123  0  1.015475  0
H  H9  1  0.40286338  0.15887087  0.58730034  1  0  0.094496  0  0.937746  0  0  0.092401  0  1.012019  0  0  0.097011  0  1.007162  0  0  0.10991  0.089089  0  1.015468  0
H  H10  1  0.19032704  0.51158644  0.87247423  1  0  0.088098  0  0.959209  0  0  0.089049  0  1.033687  0  0  0.093121  0  1.029685  0  0  0.107947  0.085908  0  1.037086  0
H  H11  1  0.69032639  0.98840798  0.12752655  1  0  0.088142  0  0.959192  0  0  0.089145  0  1.03361  0  0  0.093219  0  1.029606  0  0  0.107978  0.086005  0  1.037007  0
H  H12  1  0.80967404  0.48841381  0.12752456  1  0  0.088088  0  0.959232  0  0  0.089047  0  1.033689  0  0  0.093118  0  1.029693  0  0  0.10796  0.085909  0  1.037095  0
H  H13  1  0.30967588  0.01159131  0.87247293  1  0  0.088147  0  0.959186  0  0  0.08914  0  1.033613  0  0  0.093213  0  1.02961  0  0  0.107994  0.086002  0  1.037018  0
H  H14  1  0.29653856  0.01665543  0.18748956  1  0  0.171273  0  0.932147  0  0  0.175635  0  0.996701  0  0  0.180393  0  0.993181  0  0  0.116349  0.172241  0  0.999276  0
H  H15  1  0.79654070  0.48334307  0.81251114  1  0  0.171355  0  0.932046  0  0  0.175631  0  0.996699  0  0  0.180389  0  0.993178  0  0  0.116361  0.172232  0  0.999276  0
H  H16  1  0.70346252  0.98334483  0.81251004  1  0  0.171294  0  0.932149  0  0  0.175676  0  0.996679  0  0  0.180434  0  0.993157  0  0  0.116374  0.172277  0  0.999259  0
H  H17  1  0.20345919  0.51665622  0.18748754  1  0  0.171276  0  0.932112  0  0  0.175635  0  0.996683  0  0  0.180394  0  0.993161  0  0  0.116346  0.172234  0  0.999253  0
C  C18  1  0.06754912  0.79398471  0.73471518  1  0  0.097161  0  3.672192  0  0  0.066694  0  3.935953  0  0  0.069652  0  3.952564  0  0  0.054742  0.064564  0  3.92473  0
C  C19  1  0.56754614  0.70601293  0.26528906  1  0  0.097017  0  3.672239  0  0  0.066643  0  3.935904  0  0  0.069601  0  3.952514  0  0  0.054627  0.06451  0  3.924671  0
C  C20  1  0.93245196  0.20601652  0.26528452  1  0  0.097154  0  3.672222  0  0  0.066749  0  3.935953  0  0  0.06971  0  3.952561  0  0  0.054723  0.064609  0  3.924743  0
C  C21  1  0.43245374  0.29398636  0.73471122  1  0  0.097081  0  3.672196  0  0  0.066686  0  3.935926  0  0  0.069646  0  3.952536  0  0  0.054659  0.064549  0  3.924702  0
C  C22  1  0.10329809  0.67374417  0.67542868  1  0  0.076801  0  3.678534  0  0  0.044908  0  3.9595  0  0  0.048309  0  3.972157  0  0  0.050045  0.042684  0  3.950825  0
C  C23  1  0.60329450  0.82625309  0.32457316  1  0  0.076982  0  3.678288  0  0  0.045013  0  3.959374  0  0  0.048413  0  3.972032  0  0  0.050091  0.042787  0  3.950703  0
C  C24  1  0.89670300  0.32625705  0.32457103  1  0  0.076905  0  3.678421  0  0  0.044927  0  3.95941  0  0  0.048326  0  3.972068  0  0  0.050044  0.042704  0  3.950736  0
C  C25  1  0.39670419  0.17374717  0.67542724  1  0  0.076965  0  3.678271  0  0  0.044981  0  3.959377  0  0  0.048381  0  3.972039  0  0  0.050075  0.042754  0  3.95071  0
C  C26  1  0.15610581  0.59291751  0.83176149  1  0  0.064756  0  3.675718  0  0  0.033782  0  3.936914  0  0  0.036186  0  3.952807  0  0  0.051661  0.031931  0  3.927097  0
C  C27  1  0.65610417  0.90707631  0.16824239  1  0  0.064706  0  3.67582  0  0  0.033678  0  3.936991  0  0  0.036122  0  3.952864  0  0  0.051646  0.031822  0  3.927185  0
C  C28  1  0.84389528  0.40708371  0.16823822  1  0  0.064737  0  3.675704  0  0  0.033776  0  3.936909  0  0  0.036184  0  3.952794  0  0  0.051625  0.03191  0  3.927099  0
C  C29  1  0.34389692  0.09292299  0.83175789  1  0  0.064747  0  3.675827  0  0  0.0337  0  3.937042  0  0  0.036144  0  3.952915  0  0  0.051639  0.031841  0  3.92724  0
C  C30  1  0.12330305  0.71348611  0.89206811  1  0  0.069528  0  3.738782  0  0  0.079563  0  3.974262  0  0  0.077385  0  3.994302  0  0  0.115108  0.080628  0  3.960733  0
C  C31  1  0.62330441  0.78651384  0.10793407  1  0  0.069413  0  3.739076  0  0  0.079573  0  3.974432  0  0  0.077325  0  3.994561  0  0  0.11507  0.080639  0  3.960902  0
C  C32  1  0.87669684  0.28651415  0.10793229  1  0  0.069508  0  3.738798  0  0  0.079568  0  3.974238  0  0  0.077389  0  3.994278  0  0  0.115121  0.080634  0  3.960698  0
C  C33  1  0.37669428  0.21348642  0.89206553  1  0  0.069374  0  3.739007  0  0  0.079541  0  3.974368  0  0  0.077293  0  3.994499  0  0  0.115053  0.08061  0  3.960828  0
C  C34  1  0.14629984  0.73080117  0.01284479  1  0  0.508144  0  3.871994  0  0  0.456036  0  4.161583  0  0  0.488131  0  4.160291  0  0  0.222013  0.434188  0  4.161659  0
C  C35  1  0.64629385  0.76918213  0.98716424  1  0  0.507947  0  3.871661  0  0  0.455765  0  4.161288  0  0  0.487878  0  4.16001  0  0  0.221942  0.433923  0  4.161362  0
C  C36  1  0.85369885  0.26920005  0.98715572  1  0  0.508131  0  3.871951  0  0  0.455988  0  4.161589  0  0  0.488083  0  4.160298  0  0  0.221983  0.434152  0  4.161649  0
C  C37  1  0.35370364  0.23081910  0.01283627  1  0  0.50803  0  3.871739  0  0  0.455849  0  4.161343  0  0  0.48796  0  4.160063  0  0  0.221962  0.434008  0  4.161405  0
C  C38  1  0.12254986  0.86289787  0.18322321  1  0  0.176133  0  3.854291  0  0  0.157042  0  4.122184  0  0  0.164879  0  4.144607  0  0  0.073723  0.151482  0  4.107232  0
C  C39  1  0.62254920  0.63710209  0.81678056  1  0  0.176448  0  3.853742  0  0  0.157016  0  4.122036  0  0  0.16484  0  4.144471  0  0  0.073761  0.151455  0  4.107093  0
C  C40  1  0.87745122  0.13710239  0.81677718  1  0  0.176213  0  3.854181  0  0  0.157073  0  4.122173  0  0  0.16491  0  4.144596  0  0  0.073688  0.151515  0  4.107217  0
C  C41  1  0.37744949  0.36289817  0.18321983  1  0  0.176396  0  3.853968  0  0  0.157156  0  4.122009  0  0  0.16498  0  4.144443  0  0  0.073765  0.151599  0  4.107046  0
C  C42  1  0.02971439  0.79102803  0.24665968  1  0  0.130835  0  3.7682  0  0  0.097644  0  4.069901  0  0  0.103663  0  4.080307  0  0  0.085654  0.093093  0  4.063395  0
C  C43  1  0.52971483  0.70897579  0.75334286  1  0  0.130806  0  3.767945  0  0  0.0976  0  4.069858  0  0  0.103625  0  4.080258  0  0  0.085631  0.093037  0  4.063368  0
C  C44  1  0.97028669  0.20897416  0.75334015  1  0  0.130802  0  3.768327  0  0  0.097638  0  4.069893  0  0  0.103655  0  4.080298  0  0  0.085648  0.093079  0  4.063395  0
C  C45  1  0.47028625  0.29102350  0.24665822  1  0  0.130751  0  3.768118  0  0  0.097609  0  4.069865  0  0  0.103633  0  4.080269  0  0  0.08565  0.093043  0  4.063372  0
C  C46  1  0.03530651  0.81414033  0.35922398  1  0  0.131136  0  3.842643  0  0  0.092135  0  4.158619  0  0  0.100386  0  4.166266  0  0  0.082605  0.086603  0  4.153361  0
C  C47  1  0.53530587  0.68586441  0.64078107  1  0  0.131346  0  3.84243  0  0  0.092072  0  4.158691  0  0  0.100317  0  4.166352  0  0  0.082559  0.08654  0  4.153433  0
C  C48  1  0.96469338  0.18585993  0.64077642  1  0  0.130741  0  3.843353  0  0  0.09211  0  4.158621  0  0  0.100362  0  4.166267  0  0  0.082581  0.086581  0  4.153365  0
C  C49  1  0.46469521  0.31413489  0.35921841  1  0  0.13115  0  3.8426  0  0  0.092037  0  4.158688  0  0  0.100281  0  4.166349  0  0  0.082571  0.086509  0  4.153428  0
C  C50  1  0.14106316  0.90621705  0.41004677  1  0  0.100817  0  3.829968  0  0  0.062393  0  4.141522  0  0  0.069806  0  4.148606  0  0  0.075639  0.057719  0  4.136569  0
C  C51  1  0.64106150  0.59378754  0.58995597  1  0  0.100979  0  3.830202  0  0  0.062779  0  4.141206  0  0  0.070162  0  4.148313  0  0  0.075764  0.058113  0  4.136244  0
C  C52  1  0.85893912  0.09378417  0.58995294  1  0  0.100821  0  3.830101  0  0  0.062429  0  4.141513  0  0  0.069838  0  4.148598  0  0  0.075669  0.057757  0  4.136557  0
C  C53  1  0.35893958  0.40621271  0.41004602  1  0  0.101189  0  3.829645  0  0  0.06282  0  4.141185  0  0  0.070209  0  4.148288  0  0  0.075777  0.058143  0  4.136235  0
C  C54  1  0.23488908  0.97660965  0.34705747  1  0  0.22453  0  3.835449  0  0  0.193895  0  4.142768  0  0  0.203001  0  4.152703  0  0  0.08283  0.187722  0  4.135949  0
C  C55  1  0.73489109  0.52339300  0.65294673  1  0  0.223187  0  3.837403  0  0  0.193732  0  4.142909  0  0  0.202833  0  4.152858  0  0  0.082808  0.187557  0  4.136084  0
C  C56  1  0.76511200  0.02338965  0.65294201  1  0  0.224542  0  3.835346  0  0  0.193866  0  4.142758  0  0  0.20297  0  4.152696  0  0  0.082809  0.187689  0  4.135937  0
C  C57  1  0.26510880  0.47660726  0.34705366  1  0  0.224496  0  3.83535  0  0  0.19381  0  4.142707  0  0  0.202912  0  4.152655  0  0  0.082857  0.187632  0  4.135887  0
C  C58  1  0.22654212  0.95707334  0.23512669  1  0  -0.237554  0  3.696185  0  0  -0.277816  0  3.97368  0  0  -0.283313  0  3.991307  0  0  -0.105776  -0.274159  0  3.962142  0
C  C59  1  0.72654406  0.54292650  0.76487397  1  0  -0.23764  0  3.696621  0  0  -0.277743  0  3.973795  0  0  -0.283237  0  3.991427  0  0  -0.105762  -0.274086  0  3.962255  0
C  C60  1  0.77345896  0.04292596  0.76487439  1  0  -0.237538  0  3.69611  0  0  -0.277861  0  3.973685  0  0  -0.283356  0  3.991313  0  0  -0.105786  -0.274196  0  3.96214  0
C  C61  1  0.27345702  0.45707183  0.23512699  1  0  -0.237655  0  3.696258  0  0  -0.277904  0  3.97384  0  0  -0.283401  0  3.991475  0  0  -0.105817  -0.274244  0  3.962285  0
N  N62  1  0.07768079  0.81319346  0.84248192  1  0  -0.28808  0  3.19461  0  0  -0.234655  0  3.452577  0  0  -0.247128  0  3.471231  0  0  -0.293761  -0.225365  0  3.439676  0
N  N63  1  0.57768028  0.68680311  0.15751981  1  0  -0.287978  0  3.194377  0  0  -0.234568  0  3.452247  0  0  -0.247025  0  3.470925  0  0  -0.293671  -0.225271  0  3.439331  0
N  N64  1  0.92231909  0.18680680  0.15751847  1  0  -0.28807  0  3.194623  0  0  -0.234599  0  3.452499  0  0  -0.247073  0  3.471152  0  0  -0.293737  -0.225306  0  3.439592  0
N  N65  1  0.42231841  0.31319715  0.84247899  1  0  -0.287973  0  3.194395  0  0  -0.234586  0  3.452297  0  0  -0.247044  0  3.470976  0  0  -0.293696  -0.22529  0  3.439382  0
N  N66  1  0.14733660  0.57281381  0.72370800  1  0  -0.240749  0  3.034334  0  0  -0.221567  0  3.32191  0  0  -0.226725  0  3.333529  0  0  -0.305093  -0.217768  0  3.313912  0
N  N67  1  0.64733607  0.92718299  0.27629383  1  0  -0.240587  0  3.033769  0  0  -0.221553  0  3.321661  0  0  -0.226715  0  3.333272  0  0  -0.305088  -0.217753  0  3.313668  0
N  N68  1  0.85266449  0.42718645  0.27629080  1  0  -0.240558  0  3.033926  0  0  -0.221575  0  3.321843  0  0  -0.226736  0  3.333465  0  0  -0.305091  -0.217776  0  3.313839  0
N  N69  1  0.35266382  0.07281630  0.72370565  1  0  -0.240585  0  3.033856  0  0  -0.221545  0  3.321764  0  0  -0.226707  0  3.333376  0  0  -0.305063  -0.217749  0  3.313775  0
N  N70  1  0.10398146  0.84548690  0.06956923  1  0  -0.485493  0  3.243625  0  0  -0.394778  0  3.527902  0  0  -0.428424  0  3.543117  0  0  -0.358163  -0.371232  0  3.516917  0
N  N71  1  0.60398316  0.65451326  0.93043295  1  0  -0.485271  0  3.243808  0  0  -0.394476  0  3.528136  0  0  -0.428108  0  3.543351  0  0  -0.358135  -0.370935  0  3.517144  0
N  N72  1  0.89601963  0.15451240  0.93043025  1  0  -0.485518  0  3.243565  0  0  -0.394776  0  3.527831  0  0  -0.428426  0  3.543055  0  0  -0.358118  -0.371235  0  3.516836  0
N  N73  1  0.39601792  0.34548603  0.06956653  1  0  -0.485412  0  3.243903  0  0  -0.394569  0  3.52814  0  0  -0.428192  0  3.543342  0  0  -0.358134  -0.371028  0  3.517137  0
O  O74  1  0.20653584  0.63981708  0.05459917  1  0  -0.573042  0  1.970251  0  0  -0.527947  0  2.213579  0  0  -0.552  0  2.206241  0  0  -0.308365  -0.510269  0  2.218076  0
O  O75  1  0.70654624  0.86018876  0.94539898  1  0  -0.573048  0  1.969386  0  0  -0.527945  0  2.212751  0  0  -0.552008  0  2.205414  0  0  -0.308344  -0.510265  0  2.217251  0
O  O76  1  0.79346285  0.36018221  0.94540111  1  0  -0.573012  0  1.970268  0  0  -0.527929  0  2.213618  0  0  -0.551979  0  2.206279  0  0  -0.308372  -0.510262  0  2.218115  0
O  O77  1  0.29345126  0.13981246  0.05460073  1  0  -0.573094  0  1.969485  0  0  -0.527988  0  2.212845  0  0  -0.552054  0  2.205507  0  0  -0.308363  -0.510314  0  2.217346  0
F  F78  1  0.92779116  0.70009054  0.19909855  1  0  -0.154313  0  1.308344  0  0  -0.091106  0  1.47322  0  0  -0.101724  0  1.467513  0  0  -0.07257  -0.083364  0  1.477148  0
F  F79  1  0.42779060  0.79991395  0.80090607  1  0  -0.154345  0  1.308323  0  0  -0.091103  0  1.473155  0  0  -0.101722  0  1.467446  0  0  -0.072554  -0.083359  0  1.477087  0
F  F80  1  0.07220873  0.29990972  0.80090105  1  0  -0.154267  0  1.308425  0  0  -0.091101  0  1.473281  0  0  -0.101718  0  1.467574  0  0  -0.072561  -0.083358  0  1.477212  0
F  F81  1  0.57221048  0.20008534  0.19909341  1  0  -0.15438  0  1.308325  0  0  -0.091124  0  1.473138  0  0  -0.101742  0  1.46743  0  0  -0.072574  -0.083386  0  1.477073  0
F  F82  1  0.93791553  0.75036896  0.41948243  1  0  -0.143494  0  1.262739  0  0  -0.09638  0  1.43312  0  0  -0.104362  0  1.422766  0  0  -0.078512  -0.090424  0  1.439902  0
F  F83  1  0.43791410  0.74963832  0.58052173  1  0  -0.143524  0  1.262628  0  0  -0.096407  0  1.433071  0  0  -0.104389  0  1.422718  0  0  -0.078487  -0.090453  0  1.439853  0
F  F84  1  0.06208555  0.24963322  0.58051739  1  0  -0.143503  0  1.262989  0  0  -0.096396  0  1.433105  0  0  -0.104377  0  1.42275  0  0  -0.078512  -0.090437  0  1.439889  0
F  F85  1  0.56208699  0.25036098  0.41947855  1  0  -0.143602  0  1.262686  0  0  -0.096418  0  1.433028  0  0  -0.104401  0  1.422675  0  0  -0.078516  -0.090465  0  1.439808  0
F  F86  1  0.14960149  0.92799857  0.51902791  1  0  -0.146073  0  1.283284  0  0  -0.093837  0  1.45524  0  0  -0.105195  0  1.448042  0  0  -0.075879  -0.087477  0  1.461493  0
F  F87  1  0.64959994  0.57200401  0.48097460  1  0  -0.146183  0  1.283422  0  0  -0.094008  0  1.455185  0  0  -0.105308  0  1.447952  0  0  -0.075961  -0.087654  0  1.461438  0
F  F88  1  0.85039840  0.07200073  0.48097238  1  0  -0.146056  0  1.283302  0  0  -0.093847  0  1.455219  0  0  -0.105197  0  1.448016  0  0  -0.075883  -0.087488  0  1.461474  0
F  F89  1  0.35040114  0.42799625  0.51902499  1  0  -0.146211  0  1.28332  0  0  -0.094  0  1.455248  0  0  -0.105306  0  1.448018  0  0  -0.075964  -0.087644  0  1.461504  0
F  F90  1  0.33390130  0.06759943  0.39919413  1  0  -0.175422  0  1.259828  0  0  -0.120391  0  1.424981  0  0  -0.129344  0  1.414902  0  0  -0.085285  -0.113773  0  1.431664  0
F  F91  1  0.83390140  0.43240158  0.60080690  1  0  -0.17476  0  1.260172  0  0  -0.120385  0  1.425053  0  0  -0.129339  0  1.414977  0  0  -0.085296  -0.11377  0  1.431735  0
F  F92  1  0.66610217  0.93240082  0.60080546  1  0  -0.175381  0  1.259836  0  0  -0.120364  0  1.425003  0  0  -0.129317  0  1.414924  0  0  -0.085269  -0.113748  0  1.431686  0
F  F93  1  0.16609848  0.56759965  0.39919361  1  0  -0.17543  0  1.259847  0  0  -0.120367  0  1.424982  0  0  -0.129319  0  1.414907  0  0  -0.085276  -0.113756  0  1.431664  0
