# generated using pymatgen
data_ZnH14C16S2N2O5
_symmetry_space_group_name_H-M   'P 1'
_cell_length_a   8.94053211
_cell_length_b   10.88164826
_cell_length_c   11.55128985
_cell_angle_alpha   102.97122657
_cell_angle_beta   111.44691794
_cell_angle_gamma   108.56824345
_symmetry_Int_Tables_number   1
_chemical_formula_structural   ZnH14C16S2N2O5
_chemical_formula_sum   'Zn2 H28 C32 S4 N4 O10'
_cell_volume   914.53730214
_cell_formula_units_Z   2
loop_
 _symmetry_equiv_pos_site_id
 _symmetry_equiv_pos_as_xyz
  1  'x, y, z'
loop_
 _atom_site_type_symbol
 _atom_site_label
 _atom_site_symmetry_multiplicity
 _atom_site_fract_x
 _atom_site_fract_y
 _atom_site_fract_z
 _atom_site_occupancy
 _atom_site_hle17_bader_spin_density
 _atom_site_hle17_ddec_charge
 _atom_site_hle17_ddec_spin_density
 _atom_site_hle17_ddec_sum_bond_order
 _atom_site_hle17_magmom
 _atom_site_hse06_10hf_bader_spin_density
 _atom_site_hse06_10hf_ddec_charge
 _atom_site_hse06_10hf_ddec_spin_density
 _atom_site_hse06_10hf_ddec_sum_bond_order
 _atom_site_hse06_10hf_magmom
 _atom_site_hse06_bader_spin_density
 _atom_site_hse06_ddec_charge
 _atom_site_hse06_ddec_spin_density
 _atom_site_hse06_ddec_sum_bond_order
 _atom_site_hse06_magmom
 _atom_site_pbe_bader_spin_density
 _atom_site_pbe_cm5_charge
 _atom_site_pbe_ddec_charge
 _atom_site_pbe_ddec_spin_density
 _atom_site_pbe_ddec_sum_bond_order
 _atom_site_pbe_magmom
Zn  Zn0  1  0.83382345  0.64158010  0.01676421  1  0  1.037927  0  1.786301  0  0  0.857132  0  2.234309  0  0  0.905613  0  2.180761  0  0  0.684882  0.823106  0  2.271144  0
Zn  Zn1  1  0.16617656  0.35841986  0.98323432  1  0  1.037877  0  1.786336  0  0  0.85709  0  2.234341  0  0  0.905569  0  2.180794  0  0  0.684877  0.823062  0  2.271175  0
H  H2  1  0.66773185  0.10359271  0.30242265  1  0  0.082925  0  0.949598  0  0  0.09776  0  1.013978  0  0  0.098058  0  1.015714  0  0  0.089065  0.097605  0  1.012776  0
H  H3  1  0.33226938  0.89640727  0.69757709  1  0  0.082937  0  0.949625  0  0  0.097773  0  1.013971  0  0  0.098071  0  1.015707  0  0  0.089066  0.097611  0  1.012774  0
H  H4  1  0.84380319  0.14076691  0.46207369  1  0  0.091056  0  0.939079  0  0  0.11111  0  0.992591  0  0  0.111824  0  0.993149  0  0  0.09658  0.110572  0  0.992353  0
H  H5  1  0.15619858  0.85923622  0.53792685  1  0  0.091091  0  0.939067  0  0  0.111134  0  0.992566  0  0  0.111845  0  0.993124  0  0  0.09661  0.110594  0  0.992327  0
H  H6  1  0.91744107  0.39873900  0.52843263  1  0  0.097488  0  0.962746  0  0  0.109964  0  1.028522  0  0  0.11  0  1.030611  0  0  0.093968  0.109837  0  1.027237  0
H  H7  1  0.08255651  0.60126307  0.47156650  1  0  0.097478  0  0.962773  0  0  0.109953  0  1.02855  0  0  0.109989  0  1.030639  0  0  0.093969  0.109828  0  1.027262  0
H  H8  1  0.69699727  0.29758397  0.49448250  1  0  0.10878  0  0.929615  0  0  0.127346  0  0.983568  0  0  0.12859  0  0.983598  0  0  0.101438  0.126465  0  0.983631  0
H  H9  1  0.30300034  0.70241600  0.50551622  1  0  0.10879  0  0.929632  0  0  0.127344  0  0.983596  0  0  0.12859  0  0.983627  0  0  0.101452  0.126463  0  0.98366  0
H  H10  1  0.00770094  0.94665563  0.25640485  1  0  0.070348  0  0.963332  0  0  0.073092  0  1.036789  0  0  0.075537  0  1.035384  0  0  0.108048  0.070901  0  1.038511  0
H  H11  1  0.99230148  0.05334434  0.74359436  1  0  0.070314  0  0.963361  0  0  0.07304  0  1.036833  0  0  0.075484  0  1.03543  0  0  0.108037  0.070849  0  1.038552  0
H  H12  1  0.28926296  0.09643631  0.46794454  1  0  0.108407  0  0.953255  0  0  0.118931  0  1.010554  0  0  0.122522  0  1.00872  0  0  0.111778  0.116346  0  1.012037  0
H  H13  1  0.71073713  0.90355947  0.53205402  1  0  0.108366  0  0.953249  0  0  0.118896  0  1.010551  0  0  0.122486  0  1.008718  0  0  0.111754  0.11631  0  1.012035  0
H  H14  1  0.48694481  0.79667463  0.35585025  1  0  0.11389  0  0.944054  0  0  0.127407  0  0.996995  0  0  0.130942  0  0.995204  0  0  0.114929  0.124836  0  0.998489  0
H  H15  1  0.51304933  0.20331907  0.64414968  1  0  0.113868  0  0.944101  0  0  0.127371  0  0.997059  0  0  0.130903  0  0.995273  0  0  0.11495  0.1248  0  0.998554  0
H  H16  1  0.19932082  0.66348448  0.14871720  1  0  0.106473  0  0.932272  0  0  0.113376  0  0.995766  0  0  0.116237  0  0.992926  0  0  0.127035  0.11116  0  0.998027  0
H  H17  1  0.80067798  0.33651546  0.85128012  1  0  0.10648  0  0.93229  0  0  0.11339  0  0.995776  0  0  0.11625  0  0.992937  0  0  0.127035  0.111173  0  0.998036  0
H  H18  1  0.87141060  0.89227071  0.95157167  1  0  0.084637  0  0.942602  0  0  0.094034  0  1.004407  0  0  0.096628  0  1.002429  0  0  0.116833  0.092058  0  1.006011  0
H  H19  1  0.12859003  0.10772820  0.04842595  1  0  0.084652  0  0.942635  0  0  0.094046  0  1.004433  0  0  0.096639  0  1.002456  0  0  0.116841  0.09207  0  1.006036  0
H  H20  1  0.73827593  0.06005004  0.94334614  1  0  0.116265  0  0.9669  0  0  0.123563  0  1.030605  0  0  0.126974  0  1.029367  0  0  0.107699  0.121107  0  1.031628  0
H  H21  1  0.26172828  0.93995099  0.05665378  1  0  0.116262  0  0.966877  0  0  0.123562  0  1.03058  0  0  0.126973  0  1.029343  0  0  0.107712  0.121105  0  1.031604  0
H  H22  1  0.38474217  0.81774755  0.06914568  1  0  0.1086  0  0.966711  0  0  0.117486  0  1.030454  0  0  0.12028  0  1.030227  0  0  0.109608  0.115473  0  1.03086  0
H  H23  1  0.61526083  0.18225346  0.93085304  1  0  0.108615  0  0.966644  0  0  0.117513  0  1.030378  0  0  0.120307  0  1.030152  0  0  0.109603  0.115494  0  1.030788  0
H  H24  1  0.54724173  0.67257126  0.08694631  1  0  0.1036  0  0.971919  0  0  0.110995  0  1.034881  0  0  0.113967  0  1.032112  0  0  0.1202  0.108793  0  1.036797  0
H  H25  1  0.45275718  0.32742454  0.91305366  1  0  0.103553  0  0.972052  0  0  0.111006  0  1.034948  0  0  0.113979  0  1.032179  0  0  0.120201  0.108803  0  1.036865  0
H  H26  1  0.48556462  0.47624458  0.81851616  1  0  0.42694  0  0.876559  0  0  0.394331  0  0.943879  0  0  0.405661  0  0.927188  0  0  0.284361  0.386247  0  0.955789  0
H  H27  1  0.51443537  0.52375749  0.18148366  1  0  0.426944  0  0.876557  0  0  0.394328  0  0.943891  0  0  0.40566  0  0.927194  0  0  0.284355  0.386243  0  0.9558  0
H  H28  1  0.64285058  0.48394562  0.77316896  1  0  0.411736  0  0.903203  0  0  0.380116  0  0.967813  0  0  0.392599  0  0.949783  0  0  0.281614  0.371333  0  0.980474  0
H  H29  1  0.35714758  0.51605750  0.22683056  1  0  0.411656  0  0.903317  0  0  0.380024  0  0.967951  0  0  0.392507  0  0.949921  0  0  0.281561  0.371239  0  0.980614  0
C  C30  1  0.80948329  0.49193932  0.17152244  1  0  0.642476  0  3.934575  0  0  0.590777  0  4.23028  0  0  0.625175  0  4.223339  0  0  0.190783  0.567274  0  4.234287  0
C  C31  1  0.19051496  0.50805962  0.82847798  1  0  0.642415  0  3.934614  0  0  0.590718  0  4.23032  0  0  0.625115  0  4.223378  0  0  0.190743  0.567215  0  4.234326  0
C  C32  1  0.08006575  0.38115705  0.20945689  1  0  0.688166  0  3.901332  0  0  0.634888  0  4.205421  0  0  0.669332  0  4.195392  0  0  0.210667  0.61132  0  4.211574  0
C  C33  1  0.91993486  0.61884399  0.79054376  1  0  0.68813  0  3.90134  0  0  0.634881  0  4.205391  0  0  0.669325  0  4.195361  0  0  0.210703  0.611313  0  4.211542  0
C  C34  1  0.82799102  0.40101043  0.24987178  1  0  -0.185689  0  3.782435  0  0  -0.175719  0  4.054281  0  0  -0.181379  0  4.070958  0  0  -0.045857  -0.171997  0  4.043101  0
C  C35  1  0.17200841  0.59899062  0.75012940  1  0  -0.185703  0  3.782466  0  0  -0.175743  0  4.054329  0  0  -0.1814  0  4.071002  0  0  -0.045856  -0.172021  0  4.043147  0
C  C36  1  0.94097898  0.33977406  0.25750797  1  0  -0.088452  0  3.689429  0  0  -0.079844  0  3.960484  0  0  -0.074977  0  3.971365  0  0  -0.014579  -0.083381  0  3.953388  0
C  C37  1  0.05902346  0.66022594  0.74249298  1  0  -0.08837  0  3.689425  0  0  -0.07977  0  3.960468  0  0  -0.074908  0  3.971356  0  0  -0.014566  -0.083308  0  3.953372  0
C  C38  1  0.79774038  0.18426282  0.38612172  1  0  -0.133888  0  3.687858  0  0  -0.171493  0  3.954851  0  0  -0.170569  0  3.965669  0  0  -0.153644  -0.171952  0  3.947092  0
C  C39  1  0.20226261  0.81574033  0.61388002  1  0  -0.13399  0  3.688011  0  0  -0.171542  0  3.954926  0  0  -0.170611  0  3.965731  0  0  -0.153684  -0.171993  0  3.947164  0
C  C40  1  0.78532734  0.31721910  0.44838634  1  0  -0.14931  0  3.678166  0  0  -0.182303  0  3.940226  0  0  -0.182179  0  3.951633  0  0  -0.156667  -0.182348  0  3.932272  0
C  C41  1  0.21467028  0.68278088  0.55161325  1  0  -0.149294  0  3.678252  0  0  -0.182308  0  3.940322  0  0  -0.18219  0  3.951732  0  0  -0.156674  -0.182353  0  3.932367  0
C  C42  1  0.11793105  0.91729973  0.28273340  1  0  0.124931  0  3.730448  0  0  0.097886  0  3.979564  0  0  0.103934  0  3.998493  0  0  0.046669  0.093971  0  3.967164  0
C  C43  1  0.88207195  0.08270343  0.71726922  1  0  0.124935  0  3.730415  0  0  0.097938  0  3.979532  0  0  0.103986  0  3.998464  0  0  0.046689  0.094021  0  3.967132  0
C  C44  1  0.27700219  0.00072787  0.40216140  1  0  -0.161665  0  3.715494  0  0  -0.178992  0  3.95933  0  0  -0.186302  0  3.980156  0  0  -0.081202  -0.174376  0  3.945544  0
C  C45  1  0.72299736  0.99926691  0.59784027  1  0  -0.161671  0  3.715378  0  0  -0.178959  0  3.959241  0  0  -0.186266  0  3.980069  0  0  -0.081194  -0.174343  0  3.945457  0
C  C46  1  0.41601523  0.95936775  0.43536597  1  0  0.088968  0  3.755991  0  0  0.099919  0  3.989822  0  0  0.103457  0  4.012308  0  0  0.012036  0.097639  0  3.974604  0
C  C47  1  0.58398007  0.04062590  0.56462995  1  0  0.089062  0  3.75578  0  0  0.099853  0  3.989774  0  0  0.103388  0  4.012261  0  0  0.01202  0.097572  0  3.974557  0
C  C48  1  0.38693412  0.83652199  0.34034848  1  0  -0.146267  0  3.676275  0  0  -0.16661  0  3.926161  0  0  -0.173777  0  3.945948  0  0  -0.073754  -0.162048  0  3.913073  0
C  C49  1  0.61306063  0.16347066  0.65965054  1  0  -0.146153  0  3.676032  0  0  -0.166465  0  3.925996  0  0  -0.173628  0  3.945782  0  0  -0.073745  -0.161905  0  3.912907  0
C  C50  1  0.22440470  0.75974776  0.22264818  1  0  0.148572  0  3.664068  0  0  0.115797  0  3.921034  0  0  0.123735  0  3.936728  0  0  0.056076  0.1105  0  3.91079  0
C  C51  1  0.77559182  0.24024806  0.77735372  1  0  0.148451  0  3.66399  0  0  0.115701  0  3.920989  0  0  0.123638  0  3.936682  0  0  0.056074  0.110404  0  3.910741  0
C  C52  1  0.76521380  0.88281904  0.97933310  1  0  0.121982  0  3.723314  0  0  0.086769  0  3.983311  0  0  0.093838  0  4.000402  0  0  0.045593  0.082092  0  3.971769  0
C  C53  1  0.23479045  0.11718204  0.02067032  1  0  0.121914  0  3.723337  0  0  0.086707  0  3.983327  0  0  0.093777  0  4.000419  0  0  0.045565  0.08203  0  3.971784  0
C  C54  1  0.68612304  0.97362235  0.97184447  1  0  -0.154772  0  3.714455  0  0  -0.178635  0  3.97561  0  0  -0.185317  0  3.995245  0  0  -0.080331  -0.174151  0  3.962349  0
C  C55  1  0.31387996  0.02637866  0.02815425  1  0  -0.154697  0  3.714491  0  0  -0.178557  0  3.975637  0  0  -0.185238  0  3.995273  0  0  -0.080287  -0.174073  0  3.962378  0
C  C56  1  0.54558456  0.95399819  0.00434993  1  0  0.092799  0  3.748665  0  0  0.102953  0  3.981254  0  0  0.106993  0  4.001938  0  0  0.01379  0.100288  0  3.967349  0
C  C57  1  0.45442028  0.04600181  0.99565083  1  0  0.092813  0  3.748732  0  0  0.102954  0  3.981318  0  0  0.106993  0  4.002002  0  0  0.013785  0.100288  0  3.967413  0
C  C58  1  0.49483392  0.84256410  0.04526408  1  0  -0.141203  0  3.686375  0  0  -0.160987  0  3.937538  0  0  -0.168725  0  3.95941  0  0  -0.077152  -0.156345  0  3.923223  0
C  C59  1  0.50516914  0.15743485  0.95473596  1  0  -0.141276  0  3.686373  0  0  -0.161045  0  3.937526  0  0  -0.168782  0  3.959397  0  0  -0.077171  -0.156397  0  3.923203  0
C  C60  1  0.58355563  0.75840665  0.05384629  1  0  0.135606  0  3.670984  0  0  0.102509  0  3.921399  0  0  0.109451  0  3.938592  0  0  0.048326  0.098031  0  3.909811  0
C  C61  1  0.41644442  0.24159122  0.94615182  1  0  0.135733  0  3.671123  0  0  0.102557  0  3.921549  0  0  0.109499  0  3.938741  0  0  0.048375  0.098078  0  3.90996  0
S  S62  1  0.68926791  0.38554459  0.32691694  1  0  0.029375  0  2.436565  0  0  0.023432  0  2.769862  0  0  0.020894  0  2.770874  0  0  -0.004224  0.025482  0  2.76917  0
S  S63  1  0.31073212  0.61445538  0.67308246  1  0  0.029369  0  2.436517  0  0  0.023433  0  2.769818  0  0  0.020897  0  2.770831  0  0  -0.004232  0.025481  0  2.769126  0
S  S64  1  0.96540295  0.21876805  0.32989254  1  0  0.030511  0  2.406612  0  0  0.029143  0  2.730698  0  0  0.024302  0  2.730703  0  0  0.012883  0.033305  0  2.730691  0
S  S65  1  0.03460364  0.78123725  0.67011326  1  0  0.030516  0  2.406668  0  0  0.02913  0  2.730737  0  0  0.024287  0  2.73074  0  0  0.012854  0.03329  0  2.730727  0
N  N66  1  0.09039858  0.79799731  0.19459567  1  0  -0.310562  0  3.239706  0  0  -0.237255  0  3.502036  0  0  -0.254436  0  3.518121  0  0  -0.312999  -0.225666  0  3.4913  0
N  N67  1  0.90960384  0.20200481  0.80540744  1  0  -0.310454  0  3.239683  0  0  -0.237214  0  3.502063  0  0  -0.254396  0  3.51815  0  0  -0.313002  -0.225625  0  3.491327  0
N  N68  1  0.71644954  0.77760015  0.02082214  1  0  -0.337201  0  3.332203  0  0  -0.255675  0  3.607743  0  0  -0.27466  0  3.623297  0  0  -0.328483  -0.242801  0  3.59698  0
N  N69  1  0.28355226  0.22240087  0.97917710  1  0  -0.337212  0  3.332155  0  0  -0.255672  0  3.607718  0  0  -0.274654  0  3.623266  0  0  -0.328508  -0.242796  0  3.596952  0
O  O70  1  0.88627879  0.50032787  0.09672350  1  0  -0.618612  0  2.044252  0  0  -0.543866  0  2.298336  0  0  -0.573982  0  2.289101  0  0  -0.313292  -0.522847  0  2.304231  0
O  O71  1  0.11371879  0.49967420  0.90327651  1  0  -0.618581  0  2.044205  0  0  -0.543819  0  2.29827  0  0  -0.573927  0  2.28903  0  0  -0.313273  -0.522801  0  2.304166  0
O  O72  1  0.71477246  0.55635917  0.17805376  1  0  -0.645914  0  1.979464  0  0  -0.587887  0  2.212196  0  0  -0.612058  0  2.200451  0  0  -0.322446  -0.570742  0  2.21979  0
O  O73  1  0.28522875  0.44364293  0.82194814  1  0  -0.645895  0  1.979547  0  0  -0.587874  0  2.212276  0  0  -0.612047  0  2.200535  0  0  -0.322426  -0.57073  0  2.219869  0
O  O74  1  0.03926786  0.29942824  0.09243875  1  0  -0.655816  0  2.05246  0  0  -0.592146  0  2.324605  0  0  -0.620978  0  2.311244  0  0  -0.328755  -0.5715  0  2.332969  0
O  O75  1  0.96073392  0.70057490  0.90756265  1  0  -0.655836  0  2.052457  0  0  -0.59217  0  2.324594  0  0  -0.621003  0  2.311234  0  0  -0.328759  -0.57152  0  2.332946  0
O  O76  1  0.22638717  0.48669412  0.29255184  1  0  -0.597879  0  1.944761  0  0  -0.54812  0  2.157424  0  0  -0.573176  0  2.148618  0  0  -0.308005  -0.53055  0  2.16301  0
O  O77  1  0.77361103  0.51330689  0.70744725  1  0  -0.597858  0  1.944733  0  0  -0.548127  0  2.157394  0  0  -0.573183  0  2.148588  0  0  -0.308015  -0.530559  0  2.162978  0
O  O78  1  0.60250547  0.47273456  0.84305095  1  0  -0.845263  0  1.919219  0  0  -0.781171  0  2.123338  0  0  -0.804016  0  2.08706  0  0  -0.583484  -0.765017  0  2.14835  0
O  O79  1  0.39749272  0.52726644  0.15694727  1  0  -0.84519  0  1.91926  0  0  -0.781089  0  2.123388  0  0  -0.803935  0  2.087112  0  0  -0.583428  -0.764932  0  2.1484  0
