# generated using pymatgen
data_CdH22C14(SN4)2
_symmetry_space_group_name_H-M   'P 1'
_cell_length_a   7.66280711
_cell_length_b   8.03210952
_cell_length_c   8.81306887
_cell_angle_alpha   93.01565248
_cell_angle_beta   98.51137903
_cell_angle_gamma   118.53325761
_symmetry_Int_Tables_number   1
_chemical_formula_structural   CdH22C14(SN4)2
_chemical_formula_sum   'Cd1 H22 C14 S2 N8'
_cell_volume   466.52884210
_cell_formula_units_Z   1
loop_
 _symmetry_equiv_pos_site_id
 _symmetry_equiv_pos_as_xyz
  1  'x, y, z'
loop_
 _atom_site_type_symbol
 _atom_site_label
 _atom_site_symmetry_multiplicity
 _atom_site_fract_x
 _atom_site_fract_y
 _atom_site_fract_z
 _atom_site_occupancy
 _atom_site_hle17_bader_spin_density
 _atom_site_hle17_ddec_charge
 _atom_site_hle17_ddec_spin_density
 _atom_site_hle17_ddec_sum_bond_order
 _atom_site_hle17_magmom
 _atom_site_hse06_10hf_bader_spin_density
 _atom_site_hse06_10hf_ddec_charge
 _atom_site_hse06_10hf_ddec_spin_density
 _atom_site_hse06_10hf_ddec_sum_bond_order
 _atom_site_hse06_10hf_magmom
 _atom_site_hse06_bader_spin_density
 _atom_site_hse06_ddec_charge
 _atom_site_hse06_ddec_spin_density
 _atom_site_hse06_ddec_sum_bond_order
 _atom_site_hse06_magmom
 _atom_site_pbe_bader_spin_density
 _atom_site_pbe_cm5_charge
 _atom_site_pbe_ddec_charge
 _atom_site_pbe_ddec_spin_density
 _atom_site_pbe_ddec_sum_bond_order
 _atom_site_pbe_magmom
Cd  Cd0  1  0.49999785  0.00000062  0.49999866  1  0  1.034126  0  1.830267  0  0  0.849927  0  2.275237  0  0  0.894598  0  2.23831  0  0  0.781796  0.818902  0  2.299997  0
H  H1  1  0.72087577  0.32174067  0.81919291  1  0  0.051013  0  0.915234  0  0  0.074443  0  0.968909  0  0  0.074005  0  0.970395  0  0  0.09719  0.074675  0  0.967979  0
H  H2  1  0.27912430  0.67825215  0.18081022  1  0  0.05098  0  0.915249  0  0  0.074397  0  0.968946  0  0  0.073952  0  0.970432  0  0  0.097166  0.074631  0  0.968013  0
H  H3  1  0.62646187  0.44766081  0.70724154  1  0  0.050628  0  0.970437  0  0  0.063654  0  1.041328  0  0  0.063614  0  1.042769  0  0  0.091367  0.063591  0  1.040423  0
H  H4  1  0.37353074  0.55232766  0.29276275  1  0  0.050638  0  0.970382  0  0  0.063639  0  1.041314  0  0  0.063598  0  1.042753  0  0  0.091347  0.063577  0  1.040409  0
H  H5  1  0.07315319  0.57854942  0.84081041  1  0  0.072295  0  0.950623  0  0  0.093049  0  1.009331  0  0  0.093686  0  1.009898  0  0  0.088022  0.09252  0  1.009058  0
H  H6  1  0.92684184  0.42145181  0.15918570  1  0  0.07221  0  0.950642  0  0  0.092967  0  1.009347  0  0  0.093601  0  1.009913  0  0  0.088008  0.092442  0  1.00907  0
H  H7  1  0.00108813  0.69243149  0.70002864  1  0  0.082126  0  0.94993  0  0  0.096576  0  1.01781  0  0  0.097609  0  1.017815  0  0  0.09197  0.095754  0  1.017931  0
H  H8  1  0.99890269  0.30756402  0.29996896  1  0  0.08214  0  0.949835  0  0  0.096488  0  1.017832  0  0  0.097519  0  1.017836  0  0  0.091947  0.095666  0  1.017953  0
H  H9  1  0.88089832  0.65076636  0.02110255  1  0  0.068766  0  0.952973  0  0  0.081185  0  1.023226  0  0  0.082286  0  1.022718  0  0  0.10143  0.080317  0  1.02365  0
H  H10  1  0.11910281  0.34923640  0.97889778  1  0  0.068745  0  0.95298  0  0  0.081173  0  1.023233  0  0  0.082277  0  1.022716  0  0  0.101418  0.080307  0  1.023658  0
H  H11  1  0.08044504  0.85602799  0.97029172  1  0  0.069512  0  0.951181  0  0  0.081999  0  1.020141  0  0  0.081911  0  1.021602  0  0  0.103109  0.081911  0  1.019301  0
H  H12  1  0.91955995  0.14397198  0.02970894  1  0  0.069541  0  0.95121  0  0  0.082006  0  1.020188  0  0  0.081916  0  1.021652  0  0  0.103129  0.081921  0  1.019349  0
H  H13  1  0.61440531  0.72505228  0.05245376  1  0  0.108813  0  0.996904  0  0  0.114655  0  1.066919  0  0  0.117103  0  1.06615  0  0  0.111323  0.112887  0  1.067518  0
H  H14  1  0.38559204  0.27494047  0.94754450  1  0  0.108833  0  0.996862  0  0  0.114656  0  1.066899  0  0  0.117107  0  1.066128  0  0  0.111345  0.11289  0  1.067496  0
H  H15  1  0.41000980  0.87942785  0.87018225  1  0  0.098449  0  0.971326  0  0  0.107251  0  1.0359  0  0  0.109285  0  1.03558  0  0  0.111405  0.105778  0  1.03625  0
H  H16  1  0.58999410  0.12056216  0.12981894  1  0  0.098426  0  0.971202  0  0  0.107219  0  1.035816  0  0  0.109255  0  1.035491  0  0  0.111386  0.105745  0  1.036166  0
H  H17  1  0.87629623  0.89794740  0.65892119  1  0  0.094021  0  0.979772  0  0  0.100609  0  1.049646  0  0  0.101979  0  1.048432  0  0  0.128291  0.099559  0  1.050535  0
H  H18  1  0.12371433  0.10205833  0.34108042  1  0  0.093927  0  0.979829  0  0  0.100547  0  1.049685  0  0  0.101917  0  1.04847  0  0  0.128267  0.099497  0  1.050575  0
H  H19  1  0.88774147  0.30918709  0.60117248  1  0  0.263184  0  0.967606  0  0  0.249587  0  1.038239  0  0  0.255196  0  1.035119  0  0  0.260706  0.245576  0  1.040523  0
H  H20  1  0.11225530  0.69080708  0.39882691  1  0  0.26318  0  0.967622  0  0  0.249588  0  1.038247  0  0  0.255197  0  1.035127  0  0  0.260696  0.245577  0  1.04053  0
H  H21  1  0.76301020  0.40138934  0.50083012  1  0  0.271379  0  0.943567  0  0  0.262415  0  1.004076  0  0  0.267865  0  1.000971  0  0  0.26845  0.258538  0  1.006312  0
H  H22  1  0.23698056  0.59860334  0.49917075  1  0  0.271362  0  0.943579  0  0  0.262405  0  1.004079  0  0  0.267854  0  1.000976  0  0  0.268407  0.258528  0  1.006316  0
C  C23  1  0.75439474  0.42011799  0.73179058  1  0  0.085894  0  3.657063  0  0  0.030136  0  3.922769  0  0  0.034555  0  3.935906  0  0  -0.081957  0.027185  0  3.913704  0
C  C24  1  0.24560089  0.57987905  0.26821335  1  0  0.085968  0  3.657028  0  0  0.030242  0  3.922702  0  0  0.034673  0  3.935818  0  0  -0.081896  0.02729  0  3.913638  0
C  C25  1  0.95050631  0.60789988  0.79484015  1  0  -0.171631  0  3.680274  0  0  -0.210951  0  3.937856  0  0  -0.212986  0  3.950601  0  0  -0.170014  -0.209418  0  3.929078  0
C  C26  1  0.04948731  0.39209851  0.20515793  1  0  -0.171517  0  3.680153  0  0  -0.210782  0  3.937772  0  0  -0.212808  0  3.950501  0  0  -0.169968  -0.209249  0  3.928999  0
C  C27  1  0.93203332  0.72941914  0.92390890  1  0  0.012422  0  3.609179  0  0  -0.047916  0  3.86418  0  0  -0.043533  0  3.875046  0  0  -0.05449  -0.050674  0  3.856712  0
C  C28  1  0.06796299  0.27057930  0.07609177  1  0  0.01245  0  3.609247  0  0  -0.047875  0  3.864232  0  0  -0.043492  0  3.875095  0  0  -0.054495  -0.050643  0  3.856776  0
C  C29  1  0.63560998  0.78449462  0.94472423  1  0  -0.076233  0  3.69902  0  0  -0.11772  0  3.960912  0  0  -0.115572  0  3.978322  0  0  -0.007394  -0.119085  0  3.949241  0
C  C30  1  0.36438985  0.21549252  0.05527974  1  0  -0.076145  0  3.699381  0  0  -0.117633  0  3.961275  0  0  -0.115489  0  3.978685  0  0  -0.007369  -0.118998  0  3.949601  0
C  C31  1  0.53709292  0.86032580  0.85371751  1  0  -0.017785  0  3.790648  0  0  -0.04993  0  4.060754  0  0  -0.048008  0  4.079459  0  0  -0.013967  -0.05123  0  4.048119  0
C  C32  1  0.46289097  0.13966390  0.14627672  1  0  -0.017754  0  3.791051  0  0  -0.049891  0  4.061128  0  0  -0.047969  0  4.079838  0  0  -0.013954  -0.051191  0  4.04849  0
C  C33  1  0.77476447  0.87233538  0.73924662  1  0  0.158487  0  3.654759  0  0  0.09681  0  3.921404  0  0  0.110077  0  3.935558  0  0  0.134862  0.088258  0  3.911551  0
C  C34  1  0.22524481  0.12767036  0.26075823  1  0  0.158661  0  3.654518  0  0  0.096962  0  3.921107  0  0  0.11023  0  3.935261  0  0  0.134874  0.088407  0  3.911259  0
C  C35  1  0.24351949  0.17427947  0.64790973  1  0  0.280228  0  4.060546  0  0  0.262053  0  4.366894  0  0  0.282769  0  4.380974  0  0  0.134401  0.248059  0  4.357011  0
C  C36  1  0.75648126  0.82574878  0.35207927  1  0  0.280247  0  4.061081  0  0  0.262065  0  4.367413  0  0  0.282779  0  4.381496  0  0  0.134333  0.248073  0  4.357531  0
S  S37  1  0.23212981  0.36895572  0.68383976  1  0  -0.377542  0  2.102318  0  0  -0.353539  0  2.409763  0  0  -0.367069  0  2.404675  0  0  -0.147128  -0.344026  0  2.41312  0
S  S38  1  0.76788214  0.63106846  0.31615607  1  0  -0.377583  0  2.101985  0  0  -0.353579  0  2.409435  0  0  -0.367101  0  2.404328  0  0  -0.147144  -0.344064  0  2.412792  0
N  N39  1  0.75818168  0.32053886  0.58818357  1  0  -0.62859  0  3.117958  0  0  -0.572366  0  3.356977  0  0  -0.592227  0  3.357948  0  0  -0.634096  -0.558409  0  3.356013  0
N  N40  1  0.24181329  0.67945956  0.41181694  1  0  -0.628647  0  3.118034  0  0  -0.572413  0  3.357007  0  0  -0.592275  0  3.357974  0  0  -0.634077  -0.558458  0  3.356044  0
N  N41  1  0.78579278  0.79303232  0.87038581  1  0  -0.065501  0  3.552851  0  0  0.033061  0  3.766035  0  0  0.018267  0  3.791929  0  0  -0.245071  0.042822  0  3.748393  0
N  N42  1  0.21420811  0.20696476  0.12961535  1  0  -0.065704  0  3.552857  0  0  0.032881  0  3.766017  0  0  0.018086  0  3.79191  0  0  -0.245084  0.042645  0  3.74838  0
N  N43  1  0.62489856  0.91388553  0.72598611  1  0  -0.386971  0  3.249522  0  0  -0.313341  0  3.530219  0  0  -0.332867  0  3.548285  0  0  -0.358928  -0.300007  0  3.517532  0
N  N44  1  0.37511042  0.08611449  0.27401503  1  0  -0.387034  0  3.249381  0  0  -0.313405  0  3.530097  0  0  -0.332935  0  3.548166  0  0  -0.358942  -0.30007  0  3.517413  0
N  N45  1  0.25695401  0.03357973  0.62613462  1  0  -0.560019  0  2.764778  0  0  -0.506673  0  3.029693  0  0  -0.525239  0  3.036031  0  0  -0.400368  -0.494023  0  3.025279  0
N  N46  1  0.74307117  0.96644460  0.37385941  1  0  -0.559993  0  2.765455  0  0  -0.506632  0  3.030317  0  0  -0.525194  0  3.036656  0  0  -0.400299  -0.493986  0  3.025904  0
