# generated using pymatgen
data_CuH8C13NO4
_symmetry_space_group_name_H-M   'P 1'
_cell_length_a   10.90743487
_cell_length_b   14.02578751
_cell_length_c   21.85427442
_cell_angle_alpha   87.34543909
_cell_angle_beta   86.44889638
_cell_angle_gamma   88.06368753
_symmetry_Int_Tables_number   1
_chemical_formula_structural   CuH8C13NO4
_chemical_formula_sum   'Cu8 H64 C104 N8 O32'
_cell_volume   3331.78043531
_cell_formula_units_Z   8
loop_
 _symmetry_equiv_pos_site_id
 _symmetry_equiv_pos_as_xyz
  1  'x, y, z'
loop_
 _atom_site_type_symbol
 _atom_site_label
 _atom_site_symmetry_multiplicity
 _atom_site_fract_x
 _atom_site_fract_y
 _atom_site_fract_z
 _atom_site_occupancy
 _atom_site_pbe_bader_charge
 _atom_site_pbe_bader_spin_density
 _atom_site_pbe_cm5_charge
 _atom_site_pbe_ddec_charge
 _atom_site_pbe_ddec_spin_density
 _atom_site_pbe_ddec_sum_bond_order
 _atom_site_pbe_magmom
Cu  Cu0  1  0.22912656  0.30298678  0.66755412  1  1.081217  0.556148  0.685075  0.765298  0.708948  2.409431  0.553
Cu  Cu1  1  0.23747795  0.11750471  0.67273805  1  1.076839  -0.55739  0.686324  0.763057  -0.724754  2.397996  -0.555
Cu  Cu2  1  0.19863355  0.30029968  0.16838082  1  1.065266  0.587802  0.689235  0.771099  0.754655  2.413551  0.589
Cu  Cu3  1  0.20684497  0.11592962  0.17397836  1  1.09721  0.588872  0.690126  0.769972  0.754291  2.396036  0.589
Cu  Cu4  1  0.77087051  0.69700896  0.33244706  1  1.081231  -0.556057  0.685076  0.765234  -0.721649  2.409344  -0.553
Cu  Cu5  1  0.76252233  0.88250245  0.32726317  1  1.076822  0.557697  0.686333  0.763196  0.712293  2.397835  0.555
Cu  Cu6  1  0.80144474  0.69906772  0.83161524  1  1.056484  -0.55551  0.685991  0.765979  -0.721051  2.412423  -0.553
Cu  Cu7  1  0.79320923  0.88470454  0.82599233  1  1.089028  0.557075  0.686295  0.763775  0.710325  2.395101  0.554
H  H8  1  0.20436953  0.36401222  0.85886344  1  0.1022  0.00058  0.103902  0.111366  0.000397  1.000382  0.0
H  H9  1  0.19312947  0.36386774  0.97419067  1  0.098343  0.000232  0.107734  0.116198  0.000227  0.992137  0.0
H  H10  1  0.24807313  0.05906110  0.98248872  1  0.074929  0.000566  0.111239  0.121578  0.000383  0.984203  0.0
H  H11  1  0.25852467  0.05887222  0.86764847  1  0.077406  -2.1e-05  0.103706  0.106794  -0.000139  1.037635  0.0
H  H12  1  0.85344066  0.05764630  0.68358880  1  0.11268  -3.1e-05  0.106834  0.113044  -0.000104  1.017486  0.0
H  H13  1  0.62534714  0.05631850  0.67892140  1  0.122687  -0.000132  0.106687  0.111399  -0.00019  1.00836  0.0
H  H14  1  0.61125240  0.36261547  0.66013775  1  0.099035  0.00011  0.105598  0.110929  0.000155  1.001679  0.0
H  H15  1  0.84067075  0.36421555  0.66420750  1  0.096433  0.000116  0.105312  0.111095  0.000155  0.999315  0.0
H  H16  1  0.26141024  0.06154241  0.48092672  1  0.098962  -6e-05  0.11069  0.120167  -0.00014  0.986523  0.0
H  H17  1  0.24731090  0.06046185  0.36693843  1  0.075576  0.000493  0.103848  0.107058  0.000318  1.035751  0.0
H  H18  1  0.16708783  0.36265741  0.36103244  1  0.088136  0.000182  0.104417  0.112221  0.000177  0.99815  0.0
H  H19  1  0.18004971  0.36351972  0.47545281  1  0.095919  0.000594  0.107714  0.116686  0.000415  0.990946  0.0
H  H20  1  0.82354314  0.05509772  0.18568837  1  0.112181  0.000589  0.106846  0.112116  0.000411  1.020369  0.0
H  H21  1  0.59519042  0.05319128  0.18316030  1  0.092576  0.000617  0.107501  0.112378  0.000418  1.004559  0.0
H  H22  1  0.58074875  0.35911162  0.15914910  1  0.100358  0.000604  0.105163  0.110298  0.000403  1.002072  0.0
H  H23  1  0.81075502  0.36094808  0.16014262  1  0.10244  0.000607  0.104948  0.110671  0.0004  0.998901  0.0
H  H24  1  0.39539584  0.46222006  0.61212563  1  0.091029  -7e-05  0.121029  0.093739  -4.5e-05  0.981192  0.0
H  H25  1  0.40524365  0.64037182  0.60943217  1  0.074714  -2.4e-05  0.111638  0.117824  -1e-05  0.996525  0.0
H  H26  1  0.06169444  0.64406499  0.71984655  1  0.111439  -5.1e-05  0.107487  0.119287  -3.2e-05  1.031283  0.0
H  H27  1  0.06394766  0.46635394  0.71349850  1  0.112216  -6.8e-05  0.114815  0.081539  -5.6e-05  1.026908  0.0
H  H28  1  0.42742012  0.95056462  0.66531917  1  0.123846  6.6e-05  0.11918  0.093359  3.3e-05  0.993638  0.0
H  H29  1  0.43525465  0.77281820  0.66238644  1  0.106519  2.5e-05  0.110276  0.115962  1e-05  0.997085  0.0
H  H30  1  0.03780479  0.78495393  0.67019500  1  0.088843  3.1e-05  0.10505  0.110124  2e-05  1.03696  0.0
H  H31  1  0.04770810  0.96148355  0.67586218  1  0.126067  6.3e-05  0.119627  0.097716  3.4e-05  1.000703  0.0
H  H32  1  0.39754179  0.94795292  0.16879315  1  0.096953  -6e-05  0.119443  0.094072  -1.6e-05  0.991721  0.0
H  H33  1  0.40520458  0.77039740  0.16424402  1  0.071931  -2.2e-05  0.110435  0.116043  -7e-06  0.997337  0.0
H  H34  1  0.00835488  0.78395327  0.16416827  1  0.087124  -1e-05  0.104326  0.108984  5e-06  1.039995  0.0
H  H35  1  0.01820984  0.95997366  0.17217642  1  0.138265  -3.6e-05  0.118753  0.095973  9e-06  1.003189  0.0
H  H36  1  0.36995989  0.45921217  0.11503046  1  0.102494  -7.4e-05  0.120492  0.092735  -3.6e-05  0.982198  0.0
H  H37  1  0.38044264  0.63729341  0.11176282  1  0.054297  -2.9e-05  0.111481  0.117009  -1.2e-05  0.996478  0.0
H  H38  1  0.02598960  0.64330661  0.21250108  1  0.119709  -4.6e-05  0.108184  0.119649  -2.7e-05  1.027927  0.0
H  H39  1  0.02789363  0.46565780  0.20636734  1  0.108721  -6.1e-05  0.115247  0.082554  -3.7e-05  1.024928  0.0
H  H40  1  0.79562369  0.63601216  0.14110821  1  0.102132  -0.000122  0.104023  0.111554  -0.000162  1.000082  0.0
H  H41  1  0.80687156  0.63612087  0.02580831  1  0.098423  -0.000171  0.107726  0.116552  -0.000209  0.992225  0.0
H  H42  1  0.75192731  0.94094250  0.01750573  1  0.074812  0.000129  0.111257  0.121937  0.000165  0.98458  0.0
H  H43  1  0.74148066  0.94110219  0.13232058  1  0.091399  8.2e-05  0.103712  0.106673  0.00012  1.037978  0.0
H  H44  1  0.14656074  0.94235586  0.31641252  1  0.112688  8.9e-05  0.106842  0.11307  0.000166  1.017435  0.0
H  H45  1  0.37464970  0.94368295  0.32108054  1  0.122667  0.000129  0.106657  0.111322  0.000176  1.008383  0.0
H  H46  1  0.38874547  0.63738312  0.33986332  1  0.099039  -0.00011  0.10565  0.110978  -0.00016  1.001696  0.0
H  H47  1  0.15932901  0.63578162  0.33579356  1  0.096411  -0.000115  0.105347  0.111148  -0.000159  0.999252  0.0
H  H48  1  0.73859586  0.93843253  0.51910590  1  0.104831  0.000131  0.110834  0.120317  0.000167  0.986213  0.0
H  H49  1  0.75270040  0.93954531  0.63306382  1  0.074811  7e-05  0.103898  0.10714  0.000147  1.03603  0.0
H  H50  1  0.83291254  0.63732476  0.63896537  1  0.088381  -0.000121  0.104553  0.112568  -0.000159  0.998229  0.0
H  H51  1  0.81993810  0.63649951  0.52457178  1  0.0968  -0.000167  0.107883  0.116964  -0.000199  0.990847  0.0
H  H52  1  0.17648936  0.94488443  0.81431990  1  0.112974  3.1e-05  0.106885  0.112259  0.0001  1.020632  0.0
H  H53  1  0.40477627  0.94678303  0.81684424  1  0.092464  0.000128  0.107536  0.112555  0.000175  1.004941  0.0
H  H54  1  0.41921508  0.64091125  0.84085232  1  0.101121  -0.00011  0.105112  0.110386  -0.000159  1.002643  0.0
H  H55  1  0.18927505  0.63907268  0.83984769  1  0.102894  -0.000108  0.104936  0.110889  -0.000155  0.999125  0.0
H  H56  1  0.60460289  0.53777997  0.38787446  1  0.091088  7.1e-05  0.121055  0.093771  4.5e-05  0.981155  0.0
H  H57  1  0.59475508  0.35962821  0.39056792  1  0.074748  2.3e-05  0.111672  0.117853  1e-05  0.996471  0.0
H  H58  1  0.93831263  0.35593288  0.28015747  1  0.111486  1.9e-05  0.107518  0.119402  1.7e-05  1.03107  0.0
H  H59  1  0.93605297  0.53364466  0.28650204  1  0.112387  6.9e-05  0.11482  0.081591  5.5e-05  1.02693  0.0
H  H60  1  0.57257767  0.04943611  0.33468184  1  0.123794  -7.1e-05  0.119166  0.093314  -3.9e-05  0.993665  0.0
H  H61  1  0.56474603  0.22717896  0.33761505  1  0.106525  -3.3e-05  0.110302  0.116064  -1.7e-05  0.997056  0.0
H  H62  1  0.96220141  0.21504324  0.32980449  1  0.089109  -5.9e-05  0.10513  0.110355  -4.5e-05  1.036556  0.0
H  H63  1  0.95229422  0.03851861  0.32413957  1  0.126267  -6.3e-05  0.119638  0.097748  -2.5e-05  1.00071  0.0
H  H64  1  0.60246409  0.05205210  0.83120567  1  0.097099  -6.5e-05  0.119522  0.094194  -3.2e-05  0.991711  0.0
H  H65  1  0.59479208  0.22960834  0.83575643  1  0.071576  -2.3e-05  0.110456  0.116016  -1e-05  0.997416  0.0
H  H66  1  0.99164907  0.21605389  0.83583283  1  0.086812  -3.6e-05  0.104288  0.108835  -2.6e-05  1.040143  0.0
H  H67  1  0.98178559  0.04003993  0.82782293  1  0.138432  -6.1e-05  0.11881  0.095971  -3e-05  1.003232  0.0
H  H68  1  0.63004072  0.54078714  0.88496730  1  0.102967  6.3e-05  0.12057  0.092862  4e-05  0.982281  0.0
H  H69  1  0.61955630  0.36270161  0.88823603  1  0.054183  2.2e-05  0.111469  0.11699  9e-06  0.996574  0.0
H  H70  1  0.97400933  0.35668841  0.78749914  1  0.119604  4.5e-05  0.108209  0.119655  2.7e-05  1.027952  0.0
H  H71  1  0.97210622  0.53433722  0.79363561  1  0.108925  6.3e-05  0.115306  0.082505  5.2e-05  1.024977  0.0
C  C72  1  0.23330167  0.21053371  0.78791645  1  1.535931  -4.5e-05  0.207732  0.561945  3.9e-05  4.186107  0.0
C  C73  1  0.99756587  0.21194383  0.67531464  1  1.511471  -5.6e-05  0.212928  0.567653  -0.000198  4.17336  0.0
C  C74  1  0.22987271  0.21299177  0.55286754  1  1.528452  -0.000127  0.212001  0.572704  -0.000171  4.168176  0.0
C  C75  1  0.46838820  0.20836075  0.66612561  1  1.53783  0.00022  0.213722  0.572924  0.000127  4.16631  0.0
C  C76  1  0.19988156  0.21022595  0.28919993  1  1.542788  -0.001811  0.207296  0.561315  0.000744  4.18809  -0.004
C  C77  1  0.96734692  0.20915249  0.17333743  1  1.52758  -0.001282  0.214131  0.570101  0.001045  4.16785  -0.004
C  C78  1  0.21286575  0.21111601  0.05329167  1  1.576438  -0.002261  0.211367  0.573794  0.000622  4.169271  -0.005
C  C79  1  0.43796952  0.20537014  0.16951657  1  1.536281  -0.001355  0.21377  0.572851  0.001049  4.162667  -0.004
C  C80  1  0.23173728  0.21135184  0.85652149  1  0.003003  -0.001185  -0.017437  -0.028919  -0.000865  3.974051  -0.001
C  C81  1  0.21402878  0.29771057  0.88636423  1  -0.084036  0.00012  -0.087562  -0.105649  7e-05  3.989921  0.0
C  C82  1  0.20793172  0.29772187  0.95014314  1  -0.018052  -0.000207  -0.083274  -0.095759  -6.9e-05  3.973119  0.0
C  C83  1  0.22003506  0.21149488  0.98467085  1  -0.114809  0.017541  -0.010801  -0.015545  0.012005  3.951353  0.014
C  C84  1  0.23881512  0.12532366  0.95492284  1  0.075218  0.000991  -0.079133  -0.087297  0.000816  3.955104  0.001
C  C85  1  0.24459535  0.12535360  0.89120822  1  -0.074878  0.002067  -0.08474  -0.09884  0.00125  3.970218  0.002
C  C86  1  0.86071062  0.21109286  0.67349183  1  0.030237  -8.3e-05  -0.011644  -0.018455  -6.6e-05  3.952193  0.0
C  C87  1  0.80034062  0.12415491  0.67752459  1  -0.064017  0.001842  -0.081012  -0.09216  0.001191  3.961026  0.002
C  C88  1  0.67340642  0.12333589  0.67494587  1  -0.036006  0.001586  -0.082166  -0.096854  0.001035  3.970579  0.001
C  C89  1  0.60524636  0.20931176  0.66817518  1  -0.0161  -2.3e-05  -0.012463  -0.017834  -6.5e-05  3.957496  0.0
C  C90  1  0.66553215  0.29633330  0.66463540  1  -0.057232  -0.0017  -0.084228  -0.097337  -0.001135  3.976441  -0.002
C  C91  1  0.79253801  0.29724524  0.66718275  1  -0.077754  -0.001572  -0.085074  -0.095993  -0.001044  3.976823  -0.001
C  C92  1  0.22244990  0.21276554  0.48457912  1  0.032244  -0.001043  -0.008743  -0.012528  -0.000738  3.947578  -0.001
C  C93  1  0.24110247  0.12705294  0.45424580  1  0.029116  0.002  -0.079814  -0.088139  0.001247  3.959753  0.002
C  C94  1  0.23319302  0.12648979  0.39102066  1  -0.061305  0.001379  -0.084858  -0.098304  0.001019  3.970228  0.001
C  C95  1  0.20689535  0.21145151  0.35734414  1  -0.077042  0.016322  -0.018442  -0.0303  0.011293  3.975906  0.013
C  C96  1  0.18787489  0.29719684  0.38772159  1  -0.060125  -0.000147  -0.087315  -0.10349  -4.4e-05  3.98343  0.0
C  C97  1  0.19538759  0.29777759  0.45103747  1  -0.038246  -9e-06  -0.083238  -0.097271  -4e-06  3.972152  0.0
C  C98  1  0.83065198  0.20812272  0.17212479  1  -0.018774  0.014521  -0.013465  -0.023182  0.01029  3.959948  0.012
C  C99  1  0.77024885  0.12127646  0.17860170  1  -0.068171  0.001647  -0.081033  -0.091997  0.00111  3.960613  0.001
C  C100  1  0.64306561  0.12023057  0.17748573  1  0.011956  0.001401  -0.081213  -0.094144  0.001003  3.965737  0.001
C  C101  1  0.57486255  0.20604824  0.17009353  1  -0.019818  0.014999  -0.01385  -0.021503  0.010581  3.961492  0.012
C  C102  1  0.63522948  0.29301657  0.16413816  1  -0.076815  0.001532  -0.084232  -0.096148  0.001026  3.975834  0.001
C  C103  1  0.76248611  0.29405615  0.16496061  1  -0.024732  0.001791  -0.084338  -0.095214  0.00123  3.978418  0.001
C  C104  1  0.32321339  0.50591059  0.63495073  1  0.475719  -0.000713  0.050808  0.103499  -0.000475  3.95636  0.0
C  C105  1  0.32866394  0.60491186  0.63433503  1  -0.009159  0.000347  -0.080587  -0.177316  0.00023  3.948255  0.0
C  C106  1  0.23411074  0.65796142  0.66482646  1  0.001209  -0.000674  0.013131  0.107216  -0.000431  3.981601  0.0
C  C107  1  0.13673980  0.60726743  0.69428486  1  -0.060491  0.00034  -0.081778  -0.175607  0.000211  3.933368  0.0
C  C108  1  0.13839553  0.50836861  0.69193403  1  0.49888  -0.000703  0.046444  0.096695  -0.000472  3.956413  0.0
C  C109  1  0.34327094  0.91045949  0.66647122  1  0.448486  0.000591  0.050568  0.102349  0.000385  3.955324  0.0
C  C110  1  0.34680845  0.81147492  0.66413099  1  -0.010926  -0.000316  -0.079731  -0.172572  -0.000215  3.946064  0.0
C  C111  1  0.23616928  0.76294462  0.66607921  1  -0.022372  0.000605  0.011257  0.100202  0.000386  3.98664  0.0
C  C112  1  0.12657612  0.81816273  0.66987751  1  -0.06658  -0.000323  -0.080392  -0.16503  -0.00022  3.930066  0.0
C  C113  1  0.13131631  0.91675126  0.67233948  1  0.513913  0.000563  0.052026  0.108741  0.000365  3.930278  0.0
C  C114  1  0.31344299  0.90817084  0.16804967  1  0.526078  -0.000536  0.051116  0.102925  -0.000371  3.953601  0.0
C  C115  1  0.31694804  0.80928611  0.16473522  1  -0.02561  0.000143  -0.080113  -0.172434  9.4e-05  3.946566  0.0
C  C116  1  0.20639396  0.76111574  0.16411272  1  -0.005957  -0.000569  0.011794  0.1001  -0.000368  3.988769  0.0
C  C117  1  0.09698991  0.81667147  0.16616919  1  0.004568  0.000163  -0.080949  -0.166382  0.000107  3.929846  0.0
C  C118  1  0.10174757  0.91506152  0.16989692  1  0.445595  -0.00048  0.051971  0.110403  -0.000326  3.927285  0.0
C  C119  1  0.29552008  0.50339255  0.13556658  1  0.516604  -0.000688  0.05088  0.103925  -0.000462  3.956741  0.0
C  C120  1  0.30121877  0.60242828  0.13462844  1  0.019762  0.000171  -0.080966  -0.177464  0.000114  3.947589  0.0
C  C121  1  0.20396171  0.65617381  0.16240345  1  -0.083194  -0.000608  0.013463  0.108298  -0.000392  3.978972  0.0
C  C122  1  0.10339318  0.60605316  0.18908706  1  -0.034548  0.000223  -0.081136  -0.175317  0.000133  3.933399  0.0
C  C123  1  0.10488777  0.50712708  0.18703523  1  0.468351  -0.000715  0.046589  0.096681  -0.000485  3.956592  0.0
C  C124  1  0.76669802  0.78946561  0.21207905  1  1.536377  -1.4e-05  0.20761  0.561552  -0.000165  4.185956  0.0
C  C125  1  0.00243473  0.78805548  0.32468404  1  1.511472  5.7e-05  0.212938  0.567645  0.0001  4.173303  0.0
C  C126  1  0.77012604  0.78700753  0.44713486  1  1.528613  8.9e-05  0.212054  0.572882  5e-05  4.167719  0.0
C  C127  1  0.53161053  0.79163928  0.33387311  1  1.537836  -0.00022  0.213695  0.572931  -0.000228  4.166313  0.0
C  C128  1  0.80013429  0.78979488  0.71102006  1  1.54129  -7.7e-05  0.207376  0.560345  -0.000135  4.187761  0.0
C  C129  1  0.03242296  0.79082826  0.82666194  1  1.524676  4.4e-05  0.2139  0.56983  0.000103  4.171379  0.0
C  C130  1  0.78714999  0.78890684  0.94646382  1  1.567882  -4.5e-05  0.212127  0.572868  -3e-05  4.169384  0.0
C  C131  1  0.56228141  0.79463913  0.83049480  1  1.533569  -0.000175  0.213315  0.572489  -0.000218  4.166589  0.0
C  C132  1  0.76826143  0.78864966  0.14346026  1  0.003521  -0.000136  -0.017411  -0.028854  -5.4e-05  3.974162  0.0
C  C133  1  0.78597000  0.70231313  0.11359675  1  -0.082652  0.001624  -0.087366  -0.105119  0.001044  3.98876  0.001
C  C134  1  0.79207825  0.70229830  0.04980204  1  -0.021092  0.001543  -0.083686  -0.097519  0.001021  3.97328  0.001
C  C135  1  0.78000812  0.78850189  0.01521313  1  -0.106994  0.000163  -0.008747  -0.011408  2.8e-05  3.946079  0.0
C  C136  1  0.76120027  0.87465296  0.04501976  1  0.076245  -0.001613  -0.079478  -0.089093  -0.001103  3.955165  -0.002
C  C137  1  0.75540638  0.87461941  0.10875046  1  -0.087204  -0.0017  -0.084634  -0.098074  -0.001131  3.969591  -0.002
C  C138  1  0.13928906  0.78890645  0.32650734  1  0.030243  9.2e-05  -0.011633  -0.018508  2.8e-05  3.952252  0.0
C  C139  1  0.19965995  0.87584512  0.32247315  1  -0.063938  -0.001767  -0.081004  -0.092062  -0.001166  3.960974  -0.002
C  C140  1  0.32659234  0.87666343  0.32505150  1  -0.035929  -0.00159  -0.082138  -0.096817  -0.001069  3.970623  -0.001
C  C141  1  0.39475241  0.79068755  0.33182264  1  -0.016205  1.9e-05  -0.01245  -0.017858  2e-05  3.957493  0.0
C  C142  1  0.33446664  0.70366530  0.33536336  1  -0.057206  0.001696  -0.084283  -0.097353  0.001107  3.976582  0.002
C  C143  1  0.20746259  0.70275408  0.33281593  1  -0.077745  0.001571  -0.085059  -0.095994  0.001017  3.976905  0.001
C  C144  1  0.77754513  0.78723444  0.51543664  1  0.032099  0.000259  -0.008787  -0.01266  0.000164  3.947488  0.0
C  C145  1  0.75888719  0.87291911  0.54579838  1  -0.053245  -0.001719  -0.079834  -0.088006  -0.001144  3.95893  -0.002
C  C146  1  0.76684982  0.87348438  0.60903237  1  0.015641  -0.001521  -0.084837  -0.098685  -0.001047  3.969859  -0.001
C  C147  1  0.79322706  0.78855180  0.64275687  1  -0.074978  -0.000109  -0.016681  -0.027248  -0.000109  3.970607  0.0
C  C148  1  0.81215720  0.70281662  0.61232515  1  -0.05725  0.001723  -0.087514  -0.104477  0.001115  3.983498  0.002
C  C149  1  0.80461855  0.70224233  0.54899569  1  -0.03948  0.001534  -0.083137  -0.097211  0.001003  3.971566  0.001
C  C150  1  0.16927698  0.79187812  0.82783622  1  -0.016082  0.000213  -0.012693  -0.021277  8.6e-05  3.957284  0.0
C  C151  1  0.22974159  0.87870144  0.82139195  1  -0.068913  -0.001794  -0.081312  -0.092473  -0.001185  3.960892  -0.002
C  C152  1  0.35694800  0.87974233  0.82251194  1  0.013779  -0.00158  -0.081588  -0.095417  -0.001058  3.966334  -0.001
C  C153  1  0.42521344  0.79394890  0.82991482  1  -0.017537  6e-05  -0.012222  -0.017913  7.4e-05  3.957669  0.0
C  C154  1  0.36477563  0.70700699  0.83587251  1  -0.076391  0.001731  -0.084659  -0.097168  0.001121  3.976606  0.002
C  C155  1  0.23749983  0.70596605  0.83502460  1  -0.024144  0.001555  -0.08444  -0.095672  0.001032  3.978717  0.001
C  C156  1  0.67678634  0.49408729  0.36504939  1  0.475668  0.000716  0.050809  0.103526  0.000469  3.956423  0.0
C  C157  1  0.67133569  0.39508888  0.36566410  1  -0.009212  -0.000353  -0.080611  -0.177307  -0.000237  3.948316  0.0
C  C158  1  0.76588621  0.34203718  0.33517281  1  0.001343  0.000672  0.013131  0.107146  0.000423  3.981697  0.0
C  C159  1  0.86325897  0.39273189  0.30571159  1  -0.060582  -0.000383  -0.081795  -0.175636  -0.000241  3.933333  0.0
C  C160  1  0.86160321  0.49163142  0.30806377  1  0.49868  0.000703  0.046469  0.096674  0.000464  3.956488  0.0
C  C161  1  0.65672966  0.08953982  0.33352838  1  0.448485  -0.000643  0.050552  0.102353  -0.000445  3.955578  0.0
C  C162  1  0.65318753  0.18852511  0.33586873  1  -0.01084  0.000298  -0.079768  -0.172676  0.000187  3.945945  0.0
C  C163  1  0.76383405  0.23705541  0.33391937  1  -0.022289  -0.00064  0.011331  0.100226  -0.000414  3.986523  0.0
C  C164  1  0.87342720  0.18183729  0.33012198  1  -0.066973  0.000274  -0.08038  -0.164972  0.000169  3.92968  0.0
C  C165  1  0.86868604  0.08325019  0.32766046  1  0.513756  -0.00058  0.051999  0.10871  -0.000387  3.930253  0.0
C  C166  1  0.68654367  0.09185560  0.83195004  1  0.525793  -0.00059  0.051018  0.10256  -0.000388  3.953569  0.0
C  C167  1  0.68304739  0.19072747  0.83526778  1  -0.025702  0.000352  -0.080003  -0.172168  0.000236  3.946846  0.0
C  C168  1  0.79360541  0.23889142  0.83588897  1  -0.005973  -0.000634  0.01179  0.09996  -0.000412  3.988992  0.0
C  C169  1  0.90301454  0.18334639  0.83383388  1  0.004715  0.000355  -0.080944  -0.166193  0.000237  3.930003  0.0
C  C170  1  0.89827020  0.08496778  0.83010176  1  0.444938  -0.000556  0.052059  0.110361  -0.000366  3.927409  0.0
C  C171  1  0.70446753  0.49658675  0.86444176  1  0.516027  0.000698  0.050923  0.104001  0.000457  3.956411  0.0
C  C172  1  0.69877757  0.39756245  0.86537427  1  0.019489  -0.000338  -0.080988  -0.177514  -0.000229  3.9479  0.0
C  C173  1  0.79603711  0.34382407  0.83759670  1  -0.08323  0.000661  0.013451  0.108262  0.000415  3.979044  0.0
C  C174  1  0.89660874  0.39393616  0.81090957  1  -0.034444  -0.000333  -0.08101  -0.175099  -0.00021  3.933785  0.0
C  C175  1  0.89512483  0.49284796  0.81295967  1  0.468053  0.000692  0.046256  0.096385  0.000457  3.95656  0.0
N  N176  1  0.22984246  0.45795365  0.66330138  1  -1.226333  -0.001565  -0.333777  -0.230122  -0.000684  3.501785  0.0
N  N177  1  0.23772946  0.96266769  0.67086175  1  -1.217988  0.00112  -0.332615  -0.237945  0.000375  3.501466  0.0
N  N178  1  0.20797685  0.96060196  0.17111647  1  -1.219388  -0.00045  -0.331543  -0.238755  0.000316  3.494625  0.001
N  N179  1  0.19930634  0.45598503  0.16151991  1  -1.216593  -0.001516  -0.332395  -0.230452  -0.000414  3.49597  0.0
N  N180  1  0.77015630  0.54204567  0.33669782  1  -1.226316  0.001582  -0.333801  -0.230175  0.00068  3.501747  0.0
N  N181  1  0.76227019  0.03733234  0.32913694  1  -1.218082  -0.001097  -0.33262  -0.237988  -0.000381  3.501699  0.0
N  N182  1  0.79202452  0.03944736  0.82887390  1  -1.218995  -0.000686  -0.332728  -0.238411  -0.000108  3.499318  0.001
N  N183  1  0.80069789  0.54396929  0.83848315  1  -1.21471  0.001493  -0.333289  -0.230242  0.000669  3.50015  0.0
O  O184  1  0.23125220  0.29177425  0.75908482  1  -1.107752  0.082135  -0.317603  -0.526036  0.053087  2.365085  0.074
O  O185  1  0.23453378  0.12898881  0.76433186  1  -1.10635  -0.080507  -0.311389  -0.51607  -0.05304  2.350661  -0.073
O  O186  1  0.04604383  0.29345000  0.67607223  1  -1.11064  0.085019  -0.312236  -0.522962  0.05505  2.373429  0.077
O  O187  1  0.05462205  0.13109370  0.67542561  1  -1.099166  -0.08295  -0.307328  -0.516013  -0.054648  2.390894  -0.075
O  O188  1  0.22318051  0.29426963  0.57699249  1  -1.098274  0.089165  -0.314788  -0.517174  0.057528  2.344164  0.08
O  O189  1  0.24138638  0.13186255  0.58090732  1  -1.105541  -0.086606  -0.310979  -0.513642  -0.057006  2.346813  -0.078
O  O190  1  0.41218598  0.28927538  0.66089803  1  -1.108574  0.08407  -0.31269  -0.522861  0.054386  2.373445  0.076
O  O191  1  0.41933167  0.12681182  0.67050709  1  -1.100973  -0.088485  -0.310649  -0.513312  -0.058349  2.36801  -0.08
O  O192  1  0.19520296  0.29125956  0.26007673  1  -1.112844  0.092792  -0.319095  -0.527313  0.059662  2.358259  0.085
O  O193  1  0.19897961  0.12861427  0.26575862  1  -1.103684  0.08819  -0.311766  -0.519342  0.056623  2.348419  0.08
O  O194  1  0.01600413  0.29068777  0.17389610  1  -1.111983  0.093849  -0.312434  -0.523776  0.060415  2.375684  0.085
O  O195  1  0.02488672  0.12843570  0.17376574  1  -1.109065  0.093951  -0.307346  -0.515123  0.060412  2.392637  0.086
O  O196  1  0.20157430  0.29220777  0.07760174  1  -1.097277  0.100943  -0.314912  -0.517888  0.064434  2.348069  0.091
O  O197  1  0.21866624  0.12998696  0.08181010  1  -1.106045  0.095122  -0.311565  -0.516421  0.060889  2.343915  0.086
O  O198  1  0.38158851  0.28630365  0.16468924  1  -1.111462  0.092223  -0.312869  -0.52253  0.05922  2.37283  0.084
O  O199  1  0.38823062  0.12400800  0.17425987  1  -1.105624  0.099581  -0.30971  -0.511781  0.063958  2.365916  0.09
O  O200  1  0.76875025  0.70822507  0.24091106  1  -1.10788  -0.082174  -0.317564  -0.5259  -0.054083  2.364912  -0.074
O  O201  1  0.76546484  0.87101408  0.23566587  1  -1.106363  0.080411  -0.311443  -0.516121  0.052005  2.350505  0.073
O  O202  1  0.95395399  0.70655003  0.32392560  1  -1.110632  -0.085009  -0.312229  -0.52293  -0.056055  2.373427  -0.077
O  O203  1  0.94537671  0.86890561  0.32457221  1  -1.099159  0.082975  -0.307365  -0.51606  0.053673  2.390783  0.075
O  O204  1  0.77682654  0.70572896  0.42301105  1  -1.098179  -0.089148  -0.314776  -0.517194  -0.058573  2.344066  -0.08
O  O205  1  0.75861517  0.86813604  0.41909456  1  -1.105307  0.086568  -0.31097  -0.51367  0.055955  2.34662  0.078
O  O206  1  0.58781453  0.71072607  0.33910105  1  -1.108561  -0.084049  -0.312698  -0.52285  -0.055374  2.373532  -0.076
O  O207  1  0.58066885  0.87318964  0.32949108  1  -1.100984  0.088492  -0.310639  -0.513355  0.057302  2.367996  0.08
O  O208  1  0.80464191  0.70867953  0.74000894  1  -1.110964  -0.083035  -0.317545  -0.525077  -0.054751  2.360325  -0.075
O  O209  1  0.80083365  0.87149628  0.73429521  1  -1.101556  0.079555  -0.311402  -0.517885  0.051533  2.351036  0.072
O  O210  1  0.98418438  0.70918144  0.82615366  1  -1.111409  -0.084191  -0.312064  -0.523896  -0.055602  2.377465  -0.076
O  O211  1  0.97520105  0.87160841  0.82630131  1  -1.109073  0.083628  -0.307119  -0.515075  0.054162  2.395504  0.076
O  O212  1  0.79838986  0.70769531  0.92233811  1  -1.094453  -0.090125  -0.314483  -0.516931  -0.059036  2.349844  -0.081
O  O213  1  0.78126493  0.87011959  0.91814188  1  -1.103828  0.085558  -0.311001  -0.514607  0.055226  2.346153  0.077
O  O214  1  0.61828340  0.71360564  0.83532874  1  -1.111633  -0.082981  -0.312902  -0.523208  -0.054696  2.373701  -0.075
O  O215  1  0.61160725  0.87608776  0.82571950  1  -1.10626  0.088946  -0.309489  -0.512136  0.057518  2.367974  0.08
