# generated using pymatgen
data_NiH32C36(NO4)2
_symmetry_space_group_name_H-M   'P 1'
_cell_length_a   10.99429734
_cell_length_b   11.87457862
_cell_length_c   14.82577312
_cell_angle_alpha   103.53932298
_cell_angle_beta   110.62881044
_cell_angle_gamma   103.40536656
_symmetry_Int_Tables_number   1
_chemical_formula_structural   NiH32C36(NO4)2
_chemical_formula_sum   'Ni2 H64 C72 N4 O16'
_cell_volume   1652.67965356
_cell_formula_units_Z   2
loop_
 _symmetry_equiv_pos_site_id
 _symmetry_equiv_pos_as_xyz
  1  'x, y, z'
loop_
 _atom_site_type_symbol
 _atom_site_label
 _atom_site_symmetry_multiplicity
 _atom_site_fract_x
 _atom_site_fract_y
 _atom_site_fract_z
 _atom_site_occupancy
 _atom_site_pbe_bader_charge
 _atom_site_pbe_bader_spin_density
 _atom_site_pbe_cm5_charge
 _atom_site_pbe_ddec_charge
 _atom_site_pbe_ddec_spin_density
 _atom_site_pbe_ddec_sum_bond_order
 _atom_site_pbe_magmom
Ni  Ni0  1  0.86212680  0.80253061  0.74723004  1  1.123404  -0.000877  0.613253  0.736495  0.00058  2.421198  -0.001
Ni  Ni1  1  0.13787705  0.19748188  0.25277015  1  1.123442  0.000877  0.613207  0.736357  -0.000576  2.421257  0.001
H  H2  1  0.96492588  0.65952912  0.84316400  1  0.62205  -0.000478  0.314701  0.387193  -0.000699  0.903028  -0.001
H  H3  1  0.03507080  0.34049058  0.15683104  1  0.621764  0.000478  0.314641  0.387126  0.000699  0.903225  0.001
H  H4  1  0.08268459  0.78606068  0.86221438  1  0.644606  -0.000209  0.28551  0.366422  -0.000416  0.994044  0.0
H  H5  1  0.91731558  0.21396278  0.13778419  1  0.644697  0.000208  0.285443  0.366274  0.000416  0.994203  0.0
H  H6  1  0.79439169  0.90601460  0.87921195  1  0.649384  -1.6e-05  0.284668  0.366641  0.000437  0.987758  0.0
H  H7  1  0.20561542  0.09400206  0.12080394  1  0.64985  1.5e-05  0.284728  0.36672  -0.000437  0.98766  0.0
H  H8  1  0.94919723  0.91145164  0.93352806  1  0.616957  -0.000668  0.311335  0.396248  -0.000389  0.892125  0.0
H  H9  1  0.05080460  0.08853167  0.06647657  1  0.617492  0.000667  0.311282  0.396078  0.000389  0.89219  0.0
H  H10  1  0.07468566  0.00034881  0.68868961  1  0.637851  7e-06  0.295568  0.3386  3.4e-05  1.010723  0.0
H  H11  1  0.92532190  0.99965545  0.31131202  1  0.63823  -7e-06  0.295536  0.338527  -3.4e-05  1.010854  0.0
H  H12  1  0.60899157  0.55031622  0.70069286  1  0.628738  -6e-05  0.294588  0.339563  -0.00013  1.009635  0.0
H  H13  1  0.39101819  0.44969487  0.29932131  1  0.629041  6e-05  0.294561  0.33952  0.00013  1.009745  0.0
H  H14  1  0.57675074  0.42416711  0.42494963  1  0.076843  0.000913  0.107577  0.112848  0.000555  1.044459  0.0
H  H15  1  0.42323769  0.57582445  0.57505193  1  0.077307  -0.000912  0.107624  0.1129  -0.000554  1.044526  0.0
H  H16  1  0.03874961  0.65922186  0.70550829  1  0.127165  0.002174  0.117577  0.081797  0.001367  1.046262  0.001
H  H17  1  0.96124207  0.34077604  0.29449180  1  0.127498  -0.002173  0.117571  0.081772  -0.001366  1.046248  -0.001
H  H18  1  0.86396736  0.84194446  0.56249997  1  0.094767  -0.002028  0.121162  0.085853  -0.001184  1.001959  -0.001
H  H19  1  0.13602874  0.15804777  0.43749611  1  0.094512  0.00203  0.12116  0.085819  0.001185  1.00199  0.001
H  H20  1  0.22134979  0.21946037  0.61835097  1  0.067275  4.8e-05  0.096806  0.098708  4.7e-05  1.017461  0.0
H  H21  1  0.77866441  0.78054380  0.38164952  1  0.067337  -4.8e-05  0.096813  0.098742  -4.7e-05  1.017419  0.0
H  H22  1  0.39009999  0.26552333  0.62590680  1  0.076413  -2.2e-05  0.095272  0.100649  -2.9e-05  1.009929  0.0
H  H23  1  0.60991680  0.73447723  0.37409569  1  0.076265  2.2e-05  0.095249  0.100689  2.9e-05  1.009835  0.0
H  H24  1  0.63112346  0.63072456  0.54834964  1  0.114753  0.002219  0.120591  0.087975  0.001311  1.001526  0.001
H  H25  1  0.36886766  0.36927230  0.45164676  1  0.114804  -0.002218  0.120567  0.087977  -0.00131  1.001525  -0.001
H  H26  1  0.45444620  0.97001244  0.89881279  1  0.097215  3e-06  0.110421  0.118508  -4e-06  1.009606  0.0
H  H27  1  0.54555594  0.02997793  0.10118372  1  0.097292  -3e-06  0.110396  0.118494  4e-06  1.00969  0.0
H  H28  1  0.43101281  0.74429217  0.88294515  1  0.126624  -1.6e-05  0.108815  0.118559  -4e-06  1.006638  0.0
H  H29  1  0.56896967  0.25571361  0.11704201  1  0.126627  1.6e-05  0.108815  0.118598  4e-06  1.006705  0.0
H  H30  1  0.66623233  0.94559294  0.74272921  1  0.151916  -0.001996  0.119289  0.091547  -0.001274  1.029979  -0.001
H  H31  1  0.33377197  0.05440695  0.25727829  1  0.15189  0.001996  0.119252  0.091481  0.001275  1.029964  0.001
H  H32  1  0.70055506  0.06627134  0.94879408  1  0.105768  0.000184  0.105007  0.117107  0.000181  1.01187  0.0
H  H33  1  0.29944785  0.93372362  0.05120276  1  0.106113  -0.000184  0.104993  0.117106  -0.000181  1.011867  0.0
H  H34  1  0.82530300  0.99501885  0.47913758  1  0.113704  -0.000744  0.109301  0.121049  -0.000465  1.042959  0.0
H  H35  1  0.17468984  0.00497048  0.52085316  1  0.113565  0.000745  0.109278  0.120971  0.000466  1.04303  0.0
H  H36  1  0.00148029  0.45484582  0.58893497  1  0.059273  0.001056  0.110166  0.121334  0.000654  0.99968  0.001
H  H37  1  0.99850905  0.54514497  0.41107140  1  0.059094  -0.001056  0.110189  0.121324  -0.000653  0.999715  -0.001
H  H38  1  0.61640901  0.10302375  0.66552922  1  0.11336  -0.000908  0.106411  0.117184  -0.000576  1.031031  0.0
H  H39  1  0.38359443  0.89697223  0.33447062  1  0.113302  0.000908  0.106486  0.117291  0.000576  1.031044  0.0
H  H40  1  0.89627112  0.23368907  0.52286704  1  0.017131  5.2e-05  0.090903  0.08604  4.2e-05  0.985757  0.0
H  H41  1  0.10372989  0.76631386  0.47714832  1  0.017264  -5.2e-05  0.090854  0.086004  -4.2e-05  0.985625  0.0
H  H42  1  0.77069900  0.11874348  0.40574320  1  0.037611  -5e-05  0.091103  0.08464  -3.8e-05  1.028732  0.0
H  H43  1  0.22932377  0.88126113  0.59427223  1  0.037521  5e-05  0.091135  0.084612  3.8e-05  1.028646  0.0
H  H44  1  0.58503875  0.13215434  0.46535946  1  0.071909  5.4e-05  0.095355  0.098407  2.5e-05  0.998617  0.0
H  H45  1  0.41496439  0.86783677  0.53463203  1  0.072339  -5.4e-05  0.09536  0.098346  -2.5e-05  0.998648  0.0
H  H46  1  0.70862990  0.24606608  0.58256824  1  0.042334  3.8e-05  0.098172  0.103742  1.7e-05  0.973069  0.0
H  H47  1  0.29135384  0.75391888  0.41742698  1  0.042342  -3.9e-05  0.098108  0.103611  -1.7e-05  0.973055  0.0
H  H48  1  0.64608785  0.26132856  0.36236577  1  0.02818  3.2e-05  0.09749  0.102527  2.9e-05  0.983102  0.0
H  H49  1  0.35390742  0.73865832  0.63763456  1  0.028315  -3.2e-05  0.097446  0.102471  -2.9e-05  0.983036  0.0
H  H50  1  0.81700027  0.31098498  0.37613328  1  0.037163  -0.000106  0.098523  0.10344  -7.6e-05  0.995901  0.0
H  H51  1  0.18301008  0.68902246  0.62388173  1  0.037032  0.000106  0.09856  0.10344  7.5e-05  0.996031  0.0
H  H52  1  0.12117882  0.24115098  0.72110721  1  0.14514  1e-06  0.096071  0.105463  -1e-06  1.078691  0.0
H  H53  1  0.87882364  0.75884843  0.27888559  1  0.145165  -1e-06  0.096053  0.105427  1e-06  1.078771  0.0
H  H54  1  0.60385347  0.35755744  0.76314509  1  0.128643  4e-06  0.095918  0.106697  4e-06  1.090148  0.0
H  H55  1  0.39614567  0.64243831  0.23684694  1  0.128708  -4e-06  0.095943  0.106759  -4e-06  1.090163  0.0
H  H56  1  0.23721125  0.68045907  0.92504645  1  0.102541  -0.000136  0.099205  0.104444  -0.000125  1.05094  0.0
H  H57  1  0.76277810  0.31954404  0.07494457  1  0.102671  0.000136  0.099216  0.104409  0.000125  1.050885  0.0
H  H58  1  0.84141467  0.37508830  0.86098281  1  0.040817  1e-06  0.092322  0.082704  -3e-06  1.043196  0.0
H  H59  1  0.15858310  0.62490305  0.13901487  1  0.040733  -1e-06  0.09234  0.082696  3e-06  1.043247  0.0
H  H60  1  0.03563324  0.51757647  0.91058822  1  0.023089  -0.000141  0.090793  0.081575  -0.00011  1.039596  0.0
H  H61  1  0.96436241  0.48242293  0.08940297  1  0.022993  0.000141  0.090773  0.081599  0.00011  1.039618  0.0
H  H62  1  0.97524664  0.29748750  0.80184279  1  0.048093  -2e-06  0.095562  0.093445  -5e-06  1.023583  0.0
H  H63  1  0.02475573  0.70251186  0.19814864  1  0.048162  2e-06  0.095598  0.09349  5e-06  1.023652  0.0
H  H64  1  0.89442190  0.22493066  0.94994693  1  0.054938  0.000406  0.095238  0.099619  0.000381  1.019746  0.0
H  H65  1  0.10558528  0.77506723  0.05005618  1  0.055051  -0.000405  0.095234  0.099635  -0.000381  1.019634  0.0
C  C66  1  0.35467327  0.39771846  0.72922804  1  0.030886  -9e-05  -0.028895  -0.056712  -7.3e-05  3.91382  0.0
C  C67  1  0.64533780  0.60229228  0.27077626  1  0.030902  8.9e-05  -0.028915  -0.056754  7.3e-05  3.913857  0.0
C  C68  1  0.36867817  0.18527591  0.73743910  1  0.078939  4.6e-05  -0.027067  -0.057116  4e-05  3.907353  0.0
C  C69  1  0.63132781  0.81472927  0.26256232  1  0.078778  -4.6e-05  -0.027113  -0.057234  -4e-05  3.907429  0.0
C  C70  1  0.26432295  0.08966843  0.73457009  1  0.478267  0.000114  0.079545  0.228579  9.3e-05  4.058865  0.0
C  C71  1  0.73568340  0.91033225  0.26543399  1  0.478268  -0.000114  0.079425  0.228578  -9.2e-05  4.058665  0.0
C  C72  1  0.60867762  0.72151524  0.80062707  1  1.532135  0.00022  0.209059  0.584252  9.9e-05  4.174881  0.0
C  C73  1  0.39133200  0.27849921  0.19937822  1  1.532056  -0.000222  0.209192  0.584456  -0.000102  4.174984  0.0
C  C74  1  0.46098274  0.49346186  0.73432793  1  0.475763  4e-06  0.078248  0.230784  0.0  4.055438  0.0
C  C75  1  0.53902658  0.50655442  0.26567694  1  0.476097  -4e-06  0.078157  0.230813  0.0  4.055384  0.0
C  C76  1  0.50926509  0.20102614  0.79795124  1  -0.091922  5.4e-05  -0.005751  0.046223  3.5e-05  3.979331  0.0
C  C77  1  0.49073379  0.79897145  0.20204106  1  -0.092052  -5.3e-05  -0.005677  0.046369  -3.4e-05  3.979159  0.0
C  C78  1  0.68078716  0.47276094  0.48617167  1  0.010335  0.004345  -0.082161  -0.176717  0.003703  3.929159  0.003
C  C79  1  0.31920151  0.52723075  0.51383403  1  0.010195  -0.004342  -0.082135  -0.176721  -0.003701  3.929134  -0.003
C  C80  1  0.93747841  0.60417444  0.64211509  1  0.436278  0.000684  0.039603  0.075003  0.001393  3.967716  0.0
C  C81  1  0.06251509  0.39582339  0.35788340  1  0.435983  -0.000685  0.039666  0.075114  -0.001392  3.967525  0.0
C  C82  1  0.80884970  0.90145704  0.58280473  1  0.455452  -0.000659  0.047118  0.09531  -0.001191  3.958677  0.0
C  C83  1  0.19114189  0.09853339  0.41719130  1  0.455269  0.00066  0.04714  0.09533  0.00119  3.958667  0.0
C  C84  1  0.18208321  0.92068149  0.80080209  1  1.517138  -0.000612  0.213558  0.591027  -0.000638  4.150924  -0.001
C  C85  1  0.81790987  0.07931611  0.19918951  1  1.517344  0.000609  0.213491  0.590908  0.000635  4.151115  0.001
C  C86  1  0.49023848  0.62019553  0.79128597  1  -0.044008  -0.000818  -0.040964  -0.181133  -0.000704  4.027789  -0.001
C  C87  1  0.50975990  0.37981589  0.20870868  1  -0.044093  0.00081  -0.041057  -0.181431  0.000697  4.028049  0.001
C  C88  1  0.54079853  0.11956203  0.85402878  1  -0.013907  -0.000156  -0.015692  0.052922  -0.000149  4.020784  0.0
C  C89  1  0.45920610  0.88043208  0.14597034  1  -0.014104  0.000155  -0.015716  0.05302  0.000148  4.020912  0.0
C  C90  1  0.29467158  0.55493190  0.83105888  1  -0.02835  -2.6e-05  -0.016218  0.058793  -6e-06  4.015817  0.0
C  C91  1  0.70531681  0.44506922  0.16892750  1  -0.02849  2.5e-05  -0.016213  0.058746  5e-06  4.015825  0.0
C  C92  1  0.26617108  0.42825574  0.77430494  1  -0.003765  2.2e-05  -0.005468  0.049418  2.1e-05  3.974982  0.0
C  C93  1  0.73383204  0.57174748  0.22569207  1  -0.003375  -2.1e-05  -0.005425  0.049483  -2.1e-05  3.975067  0.0
C  C94  1  0.71793217  0.06546795  0.56561875  1  -0.048772  0.001456  0.017434  0.172666  0.001234  3.916273  0.001
C  C95  1  0.28206936  0.93452805  0.43438133  1  -0.04873  -0.001459  0.017514  0.172865  -0.001236  3.916251  -0.001
C  C96  1  0.29502478  0.01422096  0.79669604  1  -0.121282  -0.000212  -0.039261  -0.17426  -0.000211  4.02124  0.0
C  C97  1  0.70497312  0.98576849  0.20329930  1  -0.121685  0.000204  -0.039168  -0.174193  0.000205  4.021178  0.0
C  C98  1  0.33119269  0.26480727  0.67228225  1  -0.047001  2.4e-05  -0.160189  -0.200789  2.7e-05  3.957988  0.0
C  C99  1  0.66881641  0.73520617  0.32772004  1  -0.047021  -2.4e-05  -0.160124  -0.200823  -2.7e-05  3.95774  0.0
C  C100  1  0.71009215  0.58815964  0.55484729  1  0.465744  0.000181  0.050137  0.108658  0.000755  3.92625  0.0
C  C101  1  0.28989438  0.41182996  0.44515010  1  0.465895  -0.00018  0.050102  0.10847  -0.000755  3.926029  0.0
C  C102  1  0.43148236  0.02940773  0.85389148  1  0.045957  -5.8e-05  -0.075103  -0.108323  -7.4e-05  3.955901  0.0
C  C103  1  0.56851534  0.97059101  0.14610750  1  0.045716  5.8e-05  -0.075103  -0.108402  7.3e-05  3.95611  0.0
C  C104  1  0.40822027  0.64829124  0.83928525  1  -0.023336  -3.4e-05  -0.074307  -0.104835  -2.1e-05  3.951252  0.0
C  C105  1  0.59176626  0.35170993  0.16070205  1  -0.023125  3.3e-05  -0.074246  -0.104745  2e-05  3.951395  0.0
C  C106  1  0.78403572  0.42034210  0.49499481  1  0.040513  -0.001861  0.015726  0.167961  -0.001563  3.936247  -0.001
C  C107  1  0.21595202  0.57965776  0.50500807  1  0.040429  0.001858  0.015767  0.168095  0.001561  3.936292  0.001
C  C108  1  0.69861084  0.95877725  0.68332274  1  0.399032  -0.000897  0.046588  0.096583  -0.001355  3.925828  -0.001
C  C109  1  0.30139191  0.04121616  0.31668256  1  0.398729  0.000899  0.046602  0.096677  0.001356  3.925589  0.001
C  C110  1  0.68055858  0.12997211  0.90789862  1  -0.056007  0.000395  -0.087194  -0.11608  0.000392  3.958526  0.0
C  C111  1  0.31944221  0.87002004  0.09209587  1  -0.055974  -0.000395  -0.08714  -0.11607  -0.000392  3.958463  0.0
C  C112  1  0.78631667  0.98817020  0.53641900  1  0.014391  -0.004158  -0.083213  -0.175372  -0.003556  3.914512  -0.003
C  C113  1  0.21368259  0.01181747  0.46357837  1  0.014103  0.004161  -0.083297  -0.175405  0.003559  3.914561  0.003
C  C114  1  0.91552525  0.48950302  0.57598172  1  -0.062654  0.004201  -0.082791  -0.180188  0.003571  3.939681  0.003
C  C115  1  0.08447019  0.51049481  0.42401723  1  -0.062722  -0.004197  -0.08287  -0.180291  -0.003568  3.939692  -0.003
C  C116  1  0.67092880  0.04655312  0.63929439  1  -0.004512  -0.003783  -0.084451  -0.189272  -0.003287  3.941751  -0.003
C  C117  1  0.32907819  0.95343924  0.36070768  1  -0.004286  0.003786  -0.084525  -0.189473  0.003289  3.941693  0.003
C  C118  1  0.78643609  0.20032279  0.46772986  1  -0.0045  -0.000125  -0.162835  -0.134455  -0.000106  3.932455  0.0
C  C119  1  0.21357193  0.79967701  0.53227581  1  -0.004589  0.000125  -0.162823  -0.134417  0.000106  3.932199  0.0
C  C120  1  0.69486133  0.16450100  0.52095183  1  -0.040298  -0.000165  -0.155811  -0.194938  -0.000149  3.935869  0.0
C  C121  1  0.30513746  0.83549038  0.47904677  1  -0.040294  0.000165  -0.155785  -0.194789  0.000149  3.935585  0.0
C  C122  1  0.75482424  0.29710025  0.41943325  1  0.003383  0.000108  -0.155179  -0.198378  0.000102  3.936808  0.0
C  C123  1  0.24516702  0.70289126  0.58056763  1  0.003392  -0.000108  -0.155154  -0.198299  -0.000102  3.937085  0.0
C  C124  1  0.14750395  0.33774120  0.76471007  1  -0.100729  -0.000207  -0.104884  -0.150255  -0.000166  3.977859  0.0
C  C125  1  0.85250034  0.66225743  0.23528708  1  -0.100976  0.000207  -0.104889  -0.150272  0.000166  3.978001  0.0
C  C126  1  0.62272238  0.29363083  0.80368816  1  -0.114423  0.00014  -0.106352  -0.155334  0.000111  3.989486  0.0
C  C127  1  0.37727877  0.70636694  0.19631011  1  -0.114172  -0.000141  -0.106382  -0.155464  -0.000111  3.989592  0.0
C  C128  1  0.20973500  0.58442664  0.87931618  1  -0.098975  -0.000242  -0.091944  -0.12059  -0.000238  3.98356  0.0
C  C129  1  0.79025818  0.41557373  0.12067593  1  -0.098679  0.000242  -0.091941  -0.120449  0.000238  3.983603  0.0
C  C130  1  0.75741337  0.30230468  0.85813593  1  -0.064898  4.1e-05  -0.097338  -0.082191  -4e-06  4.051025  0.0
C  C131  1  0.24258713  0.69769055  0.14186848  1  -0.064903  -4.1e-05  -0.097326  -0.082197  4e-06  4.051093  0.0
C  C132  1  0.09729087  0.49380511  0.87010450  1  -0.069453  -0.000321  -0.113577  -0.130936  -0.000295  4.088509  0.0
C  C133  1  0.90270112  0.50619242  0.12988480  1  -0.069933  0.000322  -0.113558  -0.131043  0.000295  4.088621  0.0
C  C134  1  0.06506733  0.36970933  0.81071616  1  -0.045338  6.1e-05  -0.09848  -0.075769  6.1e-05  4.037368  0.0
C  C135  1  0.93493462  0.63029179  0.18927277  1  -0.045448  -6.1e-05  -0.098475  -0.075733  -6.1e-05  4.037242  0.0
C  C136  1  0.78772661  0.21877515  0.90908371  1  -0.008266  0.000601  -0.104918  -0.107575  0.000635  4.042743  0.0
C  C137  1  0.21227970  0.78122080  0.09091614  1  -0.00833  -0.000601  -0.104949  -0.107595  -0.000635  4.042631  0.0
N  N138  1  0.83630048  0.65326160  0.63285754  1  -1.225394  0.073398  -0.335021  -0.239543  0.061305  3.617587  0.06
N  N139  1  0.16368690  0.34673263  0.36714156  1  -1.225577  -0.07334  -0.335043  -0.239459  -0.061257  3.617417  -0.06
N  N140  1  0.76964545  0.88830808  0.65720911  1  -1.228814  -0.067228  -0.336503  -0.232827  -0.055942  3.615747  -0.054
N  N141  1  0.23034975  0.11168618  0.34279252  1  -1.228144  0.067277  -0.336416  -0.232759  0.055987  3.61563  0.054
O  O142  1  0.98551760  0.74821756  0.86022842  1  -1.231468  -0.043779  -0.559282  -0.73544  -0.036224  2.188277  -0.036
O  O143  1  0.01448679  0.25180284  0.13976184  1  -1.231364  0.043814  -0.559179  -0.735245  0.036254  2.188433  0.036
O  O144  1  0.67402001  0.68913350  0.74628223  1  -1.167528  -0.008254  -0.32083  -0.579111  -0.00679  2.369797  -0.008
O  O145  1  0.32599841  0.31088225  0.25373618  1  -1.16766  0.008167  -0.320854  -0.579096  0.006719  2.369675  0.008
O  O146  1  0.89157251  0.94018530  0.88331977  1  -1.211991  0.056507  -0.560958  -0.70834  0.0463  2.073231  0.047
O  O147  1  0.10844195  0.05983167  0.11670669  1  -1.21289  -0.056463  -0.56094  -0.708168  -0.046267  2.073277  -0.047
O  O148  1  0.05601391  0.91007883  0.74525567  1  -1.158618  -0.007751  -0.311385  -0.561941  -0.006376  2.340201  -0.007
O  O149  1  0.94397934  0.08991741  0.25474990  1  -1.158193  0.007666  -0.31139  -0.561929  0.006306  2.340095  0.007
O  O150  1  0.13026493  0.06545969  0.67010810  1  -1.177347  -9.2e-05  -0.357438  -0.461104  -8.2e-05  2.386651  0.0
O  O151  1  0.86974468  0.93453919  0.32989779  1  -1.177928  8.8e-05  -0.35739  -0.461081  7.9e-05  2.3863  0.0
O  O152  1  0.53844455  0.46614225  0.68390130  1  -1.165204  -0.000789  -0.360944  -0.462935  -0.000618  2.369798  -0.001
O  O153  1  0.46156223  0.53386953  0.31610553  1  -1.16565  0.000785  -0.3609  -0.462949  0.000615  2.369848  0.001
O  O154  1  0.21132964  0.85634478  0.85703062  1  -1.169633  3.6e-05  -0.30904  -0.53115  0.000131  2.216639  0.0
O  O155  1  0.78866480  0.14365575  0.14296655  1  -1.169736  -3.6e-05  -0.309022  -0.531054  -0.00013  2.216985  0.0
O  O156  1  0.64117746  0.83087488  0.85782304  1  -1.18152  -0.000308  -0.310248  -0.531578  -0.000296  2.178796  0.0
O  O157  1  0.35882883  0.16914061  0.14218502  1  -1.1814  0.000306  -0.310322  -0.531662  0.000295  2.178808  0.0
