# generated using pymatgen
data_Zn2H90C77N4O19
_symmetry_space_group_name_H-M   'P 1'
_cell_length_a   9.97899463
_cell_length_b   10.88688045
_cell_length_c   23.44633745
_cell_angle_alpha   90.43846675
_cell_angle_beta   90.13427817
_cell_angle_gamma   90.80703656
_symmetry_Int_Tables_number   1
_chemical_formula_structural   Zn2H90C77N4O19
_chemical_formula_sum   'Zn2 H90 C77 N4 O19'
_cell_volume   2546.87803813
_cell_formula_units_Z   1
loop_
 _symmetry_equiv_pos_site_id
 _symmetry_equiv_pos_as_xyz
  1  'x, y, z'
loop_
 _atom_site_type_symbol
 _atom_site_label
 _atom_site_symmetry_multiplicity
 _atom_site_fract_x
 _atom_site_fract_y
 _atom_site_fract_z
 _atom_site_occupancy
 _atom_site_pbe_bader_charge
 _atom_site_pbe_bader_spin_density
 _atom_site_pbe_cm5_charge
 _atom_site_pbe_ddec_charge
 _atom_site_pbe_ddec_spin_density
 _atom_site_pbe_ddec_sum_bond_order
 _atom_site_pbe_magmom
Zn  Zn0  1  0.63237835  0.51567702  0.50321446  1  1.296244  0  0.68217  0.850934  0  2.389812  0
Zn  Zn1  1  0.34188222  0.51024254  0.49777649  1  1.29885  0  0.678243  0.85765  0  2.35027  0
H  H2  1  0.55730588  0.78755678  0.93421838  1  0.124715  0  0.114563  0.118528  0  0.992247  0
H  H3  1  0.65111751  0.36698252  0.66834317  1  0.065076  0  0.108112  0.112814  0  1.002284  0
H  H4  1  0.67449251  0.35032277  0.77477643  1  0.077451  0  0.108706  0.117854  0  0.981339  0
H  H5  1  0.28140960  0.89183625  0.49347334  1  0.145351  0  0.105318  0.11109  0  1.032841  0
H  H6  1  0.28174116  0.12131983  0.48432123  1  0.073367  0  0.101171  0.100788  0  1.024126  0
H  H7  1  0.78422065  0.12963040  0.56176623  1  0.072279  0  0.10298  0.058969  0  0.981175  0
H  H8  1  0.81256128  0.90862499  0.48158241  1  0.067525  0  0.098851  0.081147  0  0.994696  0
H  H9  1  0.52816321  0.80876605  0.04146571  1  0.107595  0  0.111796  0.112108  0  1.013274  0
H  H10  1  0.85322737  0.72823015  0.41661669  1  0.085388  0  0.117628  0.080288  0  0.995076  0
H  H11  1  0.12945797  0.64718959  0.37665663  1  0.105077  0  0.110527  0.077556  0  0.994045  0
H  H12  1  0.36433410  0.38423045  0.31369967  1  0.057773  0  0.102808  0.109533  0  1.001713  0
H  H13  1  0.34376433  0.79198977  0.71285019  1  0.027417  0  0.083947  0.109305  0  1.007919  0
H  H14  1  0.40455078  0.75076476  0.64429639  1  0.045821  0  0.086813  0.121183  0  1.01247  0
H  H15  1  0.23671825  0.79901928  0.65193935  1  0.021915  0  0.085019  0.114098  0  1.012564  0
H  H16  1  0.24333428  0.57061980  0.64065575  1  0.084896  0  0.094013  0.103853  0  1.023736  0
H  H17  1  0.18141959  0.61020717  0.70834973  1  0.012637  0  0.087713  0.079719  0  1.028923  0
H  H18  1  0.88284886  0.24550795  0.41000940  1  0.022004  0  0.094363  0.059752  0  0.996358  0
H  H19  1  0.71731057  0.25235364  0.43708587  1  0.069867  0  0.093793  0.065319  0  1.032633  0
H  H20  1  0.84350657  0.04511041  0.36697297  1  0.004787  0  0.081595  0.067054  0  1.022261  0
H  H21  1  0.69426069  0.02183706  0.40586804  1  0.026475  0  0.088254  0.081029  0  1.02613  0
H  H22  1  0.58221081  0.19173800  0.35376250  1  0.024024  0  0.085159  0.116016  0  1.003668  0
H  H23  1  0.64266443  0.08064803  0.30462831  1  0.031135  0  0.085519  0.113766  0  1.012596  0
H  H24  1  0.72977354  0.22222377  0.31435439  1  0.022869  0  0.084911  0.112904  0  1.025583  0
H  H25  1  0.76417951  0.00842259  0.63960253  1  0.015738  0  0.081203  0.10225  0  1.021075  0
H  H26  1  0.63986112  0.89297114  0.62755260  1  0.037988  0  0.085593  0.115381  0  1.01037  0
H  H27  1  0.78958493  0.85699716  0.66412061  1  0.015578  0  0.084445  0.110809  0  1.009156  0
H  H28  1  0.79971691  0.77671925  0.56455992  1  0.032914  0  0.086077  0.084253  0  1.002683  0
H  H29  1  0.92383149  0.89198995  0.57493857  1  0.013935  0  0.085053  0.073323  0  1.001408  0
H  H30  1  0.26193247  0.26643009  0.57996112  1  0.059322  0  0.106713  0.086537  0  0.993158  0
H  H31  1  0.11787376  0.23334528  0.53640749  1  0.058849  0  0.104448  0.070497  0  0.989416  0
H  H32  1  0.11287272  0.24267167  0.66709514  1  0.01723  0  0.09653  0.09349  0  0.968248  0
H  H33  1  0.97951364  0.19487858  0.62184592  1  -0.003297  0  0.09047  0.082735  0  0.995112  0
H  H34  1  0.12379776  0.01538369  0.58733360  1  0.037958  0  0.086232  0.112665  0  1.014548  0
H  H35  1  0.09271124  0.01087012  0.66178770  1  0.012405  0  0.089006  0.115484  0  1.003447  0
H  H36  1  0.25054165  0.06322354  0.63605488  1  0.014664  0  0.090037  0.119401  0  0.996983  0
H  H37  1  0.76976208  0.57197855  0.63895100  1  0.125396  0  0.107508  0.090487  0  1.019619  0
H  H38  1  0.94074326  0.59940915  0.61971948  1  0.034478  0  0.104233  0.067342  0  0.981428  0
H  H39  1  0.85608189  0.39762242  0.70283169  1  0.025129  0  0.093507  0.088996  0  0.996109  0
H  H40  1  0.02066600  0.45169107  0.68908234  1  0.045298  0  0.089988  0.079505  0  1.023038  0
H  H41  1  0.95481616  0.66346139  0.72720434  1  0.015771  0  0.084756  0.109733  0  1.008235  0
H  H42  1  0.93246472  0.54857799  0.77964073  1  0.045241  0  0.086193  0.1156  0  1.021122  0
H  H43  1  0.79183155  0.60451677  0.74206723  1  0.064698  0  0.089228  0.125277  0  1.010474  0
H  H44  1  0.79627006  0.46280472  0.30455544  1  0.06235  0  0.104789  0.077449  0  0.990698  0
H  H45  1  0.84799701  0.42028632  0.37370580  1  0.028028  0  0.093046  0.051785  0  1.037293  0
H  H46  1  0.04351113  0.51728891  0.28314675  1  0.021877  0  0.089725  0.082225  0  0.995248  0
H  H47  1  0.08748319  0.43954976  0.34616997  1  0.008369  0  0.085558  0.078902  0  0.999499  0
H  H48  1  0.96628220  0.24694154  0.30805116  1  0.026991  0  0.084996  0.110126  0  1.034276  0
H  H49  1  0.09947509  0.29409398  0.26328708  1  -0.00838  0  0.085395  0.113696  0  1.027246  0
H  H50  1  0.93115617  0.32635964  0.24411480  1  0.041998  0  0.087635  0.118679  0  1.006022  0
H  H51  1  0.05714438  0.96105946  0.43842480  1  0.032809  0  0.104215  0.076932  0  0.973523  0
H  H52  1  0.97166647  0.87235557  0.38573940  1  0.040053  0  0.094488  0.050081  0  1.015019  0
H  H53  1  0.27338578  0.92792580  0.38742530  1  0.053651  0  0.092004  0.088415  0  1.015367  0
H  H54  1  0.18994109  0.84017741  0.33418181  1  0.00573  0  0.092517  0.086812  0  0.979317  0
H  H55  1  0.05382184  0.02540774  0.30716594  1  0.034831  0  0.083904  0.10698  0  1.012931  0
H  H56  1  0.22817883  0.05735868  0.30217284  1  0.038892  0  0.08921  0.117797  0  1.000453  0
H  H57  1  0.13623525  0.11297981  0.36139391  1  0.030226  0  0.086621  0.114403  0  1.002208  0
H  H58  1  0.80352587  0.18613614  0.07843913  1  0.064085  0  0.097877  0.060423  0  0.981547  0
H  H59  1  0.73868150  0.08074332  0.02535205  1  0.061523  0  0.096296  0.059304  0  0.991691  0
H  H60  1  0.71374277  0.05419137  0.15527802  1  0.05024  0  0.099708  0.101227  0  0.958922  0
H  H61  1  0.64686069  0.94856690  0.10473569  1  0.033848  0  0.09123  0.084974  0  0.991721  0
H  H62  1  0.88089713  0.90628384  0.06806287  1  0.041576  0  0.083201  0.104859  0  1.011223  0
H  H63  1  0.86929567  0.87605934  0.14206531  1  0.041924  0  0.08984  0.123154  0  1.023772  0
H  H64  1  0.94834876  0.01322830  0.11847458  1  0.022279  0  0.085871  0.109844  0  1.003867  0
H  H65  1  0.43818579  0.00986269  0.92100714  1  0.056189  0  0.111382  0.085335  0  0.9537  0
H  H66  1  0.36018996  0.15495139  0.92036050  1  0.084369  0  0.10129  0.071609  0  1.006244  0
H  H67  1  0.39635978  0.99566757  0.02739591  1  0.042694  0  0.092315  0.089145  0  0.987406  0
H  H68  1  0.31507061  0.13823969  0.02570360  1  0.03621  0  0.089908  0.084621  0  0.975842  0
H  H69  1  0.14165261  0.04895157  0.95659687  1  0.018729  0  0.086055  0.110059  0  1.002811  0
H  H70  1  0.14533425  0.96641601  0.02159467  1  0.044838  0  0.089604  0.118631  0  1.007185  0
H  H71  1  0.22247762  0.90495201  0.95974722  1  0.016426  0  0.085474  0.109335  0  1.005596  0
H  H72  1  0.18322261  0.47145344  0.19868618  1  0.027039  0  0.087143  0.118491  0  1.013175  0
H  H73  1  0.28479486  0.49198538  0.13768431  1  0.016135  0  0.080792  0.108076  0  1.025382  0
H  H74  1  0.18500826  0.35625588  0.14454225  1  0.009694  0  0.08394  0.110006  0  1.003216  0
H  H75  1  0.32134008  0.28938183  0.22777426  1  0.035261  0  0.093133  0.085326  0  0.989298  0
H  H76  1  0.42378666  0.30836555  0.16801203  1  0.034607  0  0.091757  0.090067  0  1.004499  0
H  H77  1  0.48735086  0.86817090  0.29261755  1  0.001114  0  0.084986  0.114711  0  0.997273  0
H  H78  1  0.41083807  0.79169966  0.35087337  1  0.037006  0  0.084831  0.112988  0  1.035648  0
H  H79  1  0.52617642  0.91413521  0.36404856  1  0.030684  0  0.0844  0.114499  0  1.025605  0
H  H80  1  0.63313702  0.71315821  0.38246360  1  0.041369  0  0.092668  0.095123  0  1.023911  0
H  H81  1  0.71203094  0.78398729  0.32429850  1  0.02718  0  0.088084  0.081267  0  1.024089  0
H  H82  1  0.85218803  0.54444323  0.20688501  1  0.016036  0  0.087806  0.121712  0  1.019069  0
H  H83  1  0.80465693  0.61040569  0.14134159  1  0.022351  0  0.076764  0.097597  0  1.036248  0
H  H84  1  0.92295311  0.68710357  0.18552108  1  0.031902  0  0.085076  0.110421  0  1.009595  0
H  H85  1  0.67327116  0.76929695  0.18930797  1  0.069869  0  0.092961  0.094793  0  1.004395  0
H  H86  1  0.76641306  0.75374740  0.25224907  1  0.038673  0  0.093521  0.090665  0  1.012615  0
H  H87  1  0.13643197  0.43508869  0.78916046  1  0.040601  0  0.087399  0.117778  0  1.011674  0
H  H88  1  0.23844674  0.40191873  0.84870117  1  0.013117  0  0.082512  0.11209  0  1.01922  0
H  H89  1  0.11069164  0.51398385  0.85497630  1  0.000413  0  0.084516  0.109923  0  1.005969  0
H  H90  1  0.33425762  0.61867571  0.84592550  1  0.028661  0  0.089921  0.080819  0  1.015976  0
H  H91  1  0.23390174  0.65164234  0.78721554  1  0.026628  0  0.096311  0.092926  0  0.996599  0
C  C92  1  0.49507456  0.74581096  0.50632042  1  1.612945  0  0.218547  0.599026  0  4.176686  0
C  C93  1  0.55290479  0.70755242  0.96186901  1  -0.126611  0  -0.069704  -0.078845  0  3.951658  0
C  C94  1  0.54105741  0.71947894  0.02106150  1  0.015672  0  -0.070952  -0.077865  0  3.958304  0
C  C95  1  0.54585871  0.61555908  0.05506547  1  -0.045804  0  -0.007063  -0.062655  0  3.994391  0
C  C96  1  0.56052263  0.49769283  0.03029239  1  0.006816  0  -0.0023  0.03513  0  4.030002  0
C  C97  1  0.58421356  0.39403900  0.06496188  1  0.065798  0  -0.012238  -0.158419  0  3.98853  0
C  C98  1  0.58265475  0.27723394  0.04021624  1  0.519849  0  0.102533  0.159249  0  4.020495  0
C  C99  1  0.55296500  0.26135283  0.98018314  1  0.605423  0  0.10681  0.170484  0  3.990698  0
C  C100  1  0.52306248  0.62655514  0.11718660  1  1.364548  0  0.243841  0.434415  0  4.10822  0
C  C101  1  0.61381590  0.41553054  0.12641446  1  1.360297  0  0.249481  0.455471  0  4.078012  0
C  C102  1  0.44791703  0.44713286  0.23431234  1  0.086599  0  -0.010249  0.053913  0  3.96907  0
C  C103  1  0.48266149  0.52981716  0.39024388  1  1.57043  0  0.220213  0.612775  0  4.159404  0
C  C104  1  0.43106780  0.45090026  0.29329853  1  -0.073883  0  -0.093849  -0.16882  0  4.005413  0
C  C105  1  0.49657993  0.53957642  0.32668728  1  -0.017999  0  -0.013244  -0.065893  0  3.966279  0
C  C106  1  0.57964597  0.63035858  0.30215029  1  0.034477  0  0.002883  0.062745  0  3.877445  0
C  C107  1  0.61051028  0.62021261  0.24349653  1  -0.041691  0  0.00035  0.010289  0  3.871806  0
C  C108  1  0.54122138  0.53037302  0.21089380  1  0.329663  0  0.08089  0.073493  0  3.948678  0
C  C109  1  0.39232804  0.52588393  0.76822388  1  0.026478  0  -0.001428  0.006393  0  3.871568  0
C  C110  1  0.38042835  0.53653669  0.70841059  1  0.017706  0  0.00197  0.065631  0  3.864923  0
C  C111  1  0.47813713  0.48170623  0.67354474  1  0.017579  0  -0.011892  -0.071761  0  3.937135  0
C  C112  1  0.58047818  0.41150029  0.69691078  1  -0.049517  0  -0.088611  -0.099985  0  4.018576  0
C  C113  1  0.59325704  0.40176855  0.75564040  1  -0.012398  0  -0.089141  -0.152352  0  4.032212  0
C  C114  1  0.48897715  0.27970878  0.49611027  1  1.578306  0  0.213362  0.587076  0  4.200503  0
C  C115  1  0.50200262  0.46178944  0.79040825  1  0.291013  0  0.082921  0.131553  0  4.004432  0
C  C116  1  0.61138590  0.95176177  0.51100990  1  -0.034276  0  -0.004436  0.031981  0  3.909561  0
C  C117  1  0.49385026  0.88185754  0.50657925  1  -0.057521  0  -0.011004  -0.062157  0  3.971101  0
C  C118  1  0.37404854  0.94553557  0.49764545  1  -0.072571  0  -0.081292  -0.097056  0  3.970502  0
C  C119  1  0.37456248  0.07292214  0.49264926  1  -0.053181  0  -0.086024  -0.10557  0  3.984333  0
C  C120  1  0.49335644  0.14356491  0.49809430  1  -0.073898  0  -0.01248  -0.055775  0  3.973382  0
C  C121  1  0.61159587  0.07943172  0.50763816  1  0.023991  0  -0.009769  -0.02367  0  3.885071  0
C  C122  1  0.76274549  0.08925594  0.51943508  1  0.443037  0  0.01291  0.115746  0  3.811639  0
C  C123  1  0.76169607  0.94300686  0.52000447  1  0.017234  0  -0.083136  -0.084771  0  3.82298  0
C  C124  1  0.05669705  0.56639444  0.45982663  1  0.549029  0  0.122048  0.1259  0  3.908065  0
C  C125  1  0.48058402  0.49802538  0.61001396  1  1.586881  0  0.220649  0.605074  0  4.165586  0
C  C126  1  0.05735750  0.45416343  0.54040099  1  1.186903  0  0.237678  0.276071  0  4.039932  0
C  C127  1  0.91353127  0.46414398  0.54236205  1  1.216044  0  0.236599  0.280839  0  4.033398  0
C  C128  1  0.91878665  0.55751024  0.45673392  1  0.449973  0  0.119391  0.105086  0  3.900432  0
C  C129  1  0.90862146  0.64456850  0.40583867  1  0.525437  0  0.018094  0.045061  0  3.86499  0
C  C130  1  0.06758050  0.66531689  0.41448322  1  0.482629  0  0.011675  0.043591  0  3.823088  0
C  C131  1  0.51752441  0.35443138  0.88230318  1  1.318857  0  0.242955  0.452018  0  4.080357  0
C  C132  1  0.56112198  0.58134984  0.87402805  1  1.30818  0  0.23989  0.433451  0  4.12922  0
C  C133  1  0.55503835  0.59137975  0.93663159  1  0.007944  0  -0.008954  -0.065076  0  4.003208  0
C  C134  1  0.55223757  0.48380479  0.97007247  1  -0.01162  0  -0.001142  0.038511  0  4.019033  0
C  C135  1  0.54210479  0.36445783  0.94479532  1  0.033748  0  -0.016471  -0.1689  0  3.960971  0
C  C136  1  0.27156405  0.61252794  0.68165621  1  -0.041884  0  -0.170465  -0.163122  0  3.974543  0
C  C137  1  0.31661337  0.74643376  0.67234318  1  -0.068568  0  -0.243484  -0.346188  0  3.945821  0
C  C138  1  0.80049120  0.18990478  0.42799727  1  0.423383  0  -0.081483  0.024649  0  3.923123  0
C  C139  1  0.75564171  0.09219847  0.38448099  1  -0.023304  0  -0.177109  -0.148879  0  3.979685  0
C  C140  1  0.67345248  0.14969714  0.33663016  1  -0.062628  0  -0.245805  -0.352362  0  3.959938  0
C  C141  1  0.81467544  0.87582713  0.57230633  1  -0.002856  0  -0.166741  -0.114748  0  3.961366  0
C  C142  1  0.74852606  0.91077278  0.62883268  1  -0.064335  0  -0.246187  -0.349536  0  3.972414  0
C  C143  1  0.15211536  0.26743898  0.57830378  1  0.388586  0  -0.054691  0.050504  0  3.786599  0
C  C144  1  0.08923665  0.19524909  0.62659914  1  0.050151  0  -0.165843  -0.13035  0  3.971595  0
C  C145  1  0.14200529  0.06400515  0.62795648  1  -0.04255  0  -0.240781  -0.354378  0  3.970199  0
C  C146  1  0.86886302  0.53005468  0.63561609  1  0.324968  0  -0.062506  0.032044  0  3.799451  0
C  C147  1  0.91561915  0.47984764  0.69209067  1  -0.010704  0  -0.171694  -0.148497  0  3.997193  0
C  C148  1  0.89765497  0.57949758  0.73780171  1  -0.100203  0  -0.244465  -0.358718  0  3.959991  0
C  C149  1  0.87486227  0.47788508  0.33691862  1  0.428597  0  -0.073636  0.021416  0  3.898907  0
C  C150  1  0.01095423  0.44384103  0.31229534  1  -0.00636  0  -0.175611  -0.152479  0  3.995813  0
C  C151  1  0.00165287  0.32118952  0.28015580  1  -0.049146  0  -0.244445  -0.358896  0  3.961858  0
C  C152  1  0.06920736  0.88548952  0.40747413  1  0.413551  0  -0.072456  0.023818  0  3.910372  0
C  C153  1  0.17790053  0.91695901  0.36447531  1  -0.004196  0  -0.173102  -0.144931  0  3.978932  0
C  C154  1  0.14709152  0.03443531  0.33203873  1  -0.103171  0  -0.242288  -0.349377  0  3.977906  0
C  C155  1  0.72530037  0.11628423  0.06909782  1  0.342314  0  -0.063624  0.0408  0  3.872656  0
C  C156  1  0.72984361  0.01433030  0.11261948  1  0.007062  0  -0.164865  -0.128751  0  3.969497  0
C  C157  1  0.86439647  0.94893743  0.11012495  1  -0.098097  0  -0.241787  -0.353408  0  3.971045  0
C  C158  1  0.41498477  0.09062902  0.94736335  1  0.395427  0  -0.061331  0.037787  0  3.853715  0
C  C159  1  0.33561434  0.05520340  0.00020686  1  -0.055037  0  -0.170953  -0.141201  0  3.990328  0
C  C160  1  0.20400441  0.99042028  0.98361823  1  -0.05509  0  -0.241451  -0.349317  0  3.978454  0
C  C161  1  0.36293497  0.35941006  0.19893010  1  -0.006779  0  -0.16066  -0.140522  0  3.974588  0
C  C162  1  0.24757220  0.42338641  0.16810479  1  -0.051064  0  -0.244301  -0.347581  0  3.955591  0
C  C163  1  0.61768507  0.74121343  0.33813908  1  0.016482  0  -0.168032  -0.157956  0  3.982298  0
C  C164  1  0.50432847  0.83478421  0.33616748  1  -0.063245  0  -0.246618  -0.352187  0  3.940101  0
C  C165  1  0.71881738  0.70117609  0.21756320  1  -0.026475  0  -0.164  -0.142998  0  3.952154  0
C  C166  1  0.83011731  0.63167757  0.18591202  1  -0.060745  0  -0.24741  -0.351232  0  3.950884  0
C  C167  1  0.28741367  0.57686007  0.80797059  1  -0.000806  0  -0.162802  -0.139503  0  3.980685  0
C  C168  1  0.18732000  0.47636571  0.82639611  1  -0.04469  0  -0.243204  -0.35109  0  3.955524  0
N  N169  1  0.52546389  0.46522410  0.85124454  1  -1.165165  0  -0.233205  -0.219918  0  3.595625  0
N  N170  1  0.55928598  0.52459622  0.14984951  1  -1.194358  0  -0.231674  -0.211291  0  3.606595  0
N  N171  1  0.13085225  0.51135651  0.50009518  1  -1.192201  0  -0.285382  -0.251451  0  3.410712  0
N  N172  1  0.84257662  0.50971605  0.49883072  1  -1.208329  0  -0.28685  -0.250239  0  3.431468  0
O  O173  1  0.60780746  0.69788416  0.49430598  1  -1.161752  0  -0.31207  -0.540764  0  2.350676  0
O  O174  1  0.59015486  0.66843403  0.84311929  1  -1.101027  0  -0.274017  -0.433988  0  2.077814  0
O  O175  1  0.47469225  0.71922191  0.13887756  1  -1.105022  0  -0.274303  -0.440514  0  2.095233  0
O  O176  1  0.67907496  0.34585453  0.15611590  1  -1.097435  0  -0.256512  -0.418059  0  2.110712  0
O  O177  1  0.38563856  0.68918170  0.51656694  1  -1.167517  0  -0.312743  -0.542524  0  2.340525  0
O  O178  1  0.58848388  0.49954454  0.41668395  1  -1.179189  0  -0.312877  -0.552029  0  2.324891  0
O  O179  1  0.36779386  0.54795439  0.41214261  1  -1.163063  0  -0.315799  -0.547696  0  2.28192  0
O  O180  1  0.59586426  0.33529011  0.51248009  1  -1.165199  0  -0.312011  -0.53867  0  2.3834  0
O  O181  1  0.38079437  0.32910483  0.47967140  1  -1.1679  0  -0.319845  -0.554891  0  2.335566  0
O  O182  1  0.58849225  0.54162079  0.58920007  1  -1.171564  0  -0.308114  -0.546831  0  2.363378  0
O  O183  1  0.37736990  0.46529010  0.58178543  1  -1.173243  0  -0.307694  -0.551251  0  2.415585  0
O  O184  1  0.49090627  0.25765615  0.85711323  1  -1.101182  0  -0.266336  -0.429449  0  2.130114  0
O  O185  1  0.85444161  0.14602575  0.48080000  1  -1.063088  0  -0.242935  -0.277503  0  2.457436  0
O  O186  1  0.11560191  0.39764817  0.58374747  1  -1.085158  0  -0.174607  -0.218041  0  2.609563  0
O  O187  1  0.85108530  0.43358634  0.59080203  1  -1.058838  0  -0.179863  -0.224352  0  2.496373  0
O  O188  1  0.86226816  0.60493772  0.35244517  1  -1.061596  0  -0.214268  -0.219272  0  2.560373  0
O  O189  1  0.09846464  0.77933087  0.44158868  1  -1.03621  0  -0.223518  -0.239196  0  2.457313  0
O  O190  1  0.59576529  0.17574186  0.07280717  1  -1.060639  0  -0.189712  -0.215844  0  2.563871  0
O  O191  1  0.54610349  0.14327681  0.96166619  1  -1.071964  0  -0.190014  -0.213541  0  2.555734  0
