# generated using pymatgen
data_GdH13(CO)7
_symmetry_space_group_name_H-M   'P 1'
_cell_length_a   7.58990263
_cell_length_b   11.80290152
_cell_length_c   12.00443991
_cell_angle_alpha   90.00001725
_cell_angle_beta   90.00025150
_cell_angle_gamma   90.09635214
_symmetry_Int_Tables_number   1
_chemical_formula_structural   GdH13(CO)7
_chemical_formula_sum   'Gd4 H52 C28 O28'
_cell_volume   1075.39069831
_cell_formula_units_Z   4
loop_
 _symmetry_equiv_pos_site_id
 _symmetry_equiv_pos_as_xyz
  1  'x, y, z'
loop_
 _atom_site_type_symbol
 _atom_site_label
 _atom_site_symmetry_multiplicity
 _atom_site_fract_x
 _atom_site_fract_y
 _atom_site_fract_z
 _atom_site_occupancy
 _atom_site_hle17_bader_spin_density
 _atom_site_hle17_ddec_charge
 _atom_site_hle17_ddec_spin_density
 _atom_site_hle17_ddec_sum_bond_order
 _atom_site_hle17_magmom
 _atom_site_hse06_10hf_bader_spin_density
 _atom_site_hse06_10hf_ddec_charge
 _atom_site_hse06_10hf_ddec_spin_density
 _atom_site_hse06_10hf_ddec_sum_bond_order
 _atom_site_hse06_10hf_magmom
 _atom_site_hse06_bader_spin_density
 _atom_site_hse06_ddec_charge
 _atom_site_hse06_ddec_spin_density
 _atom_site_hse06_ddec_sum_bond_order
 _atom_site_hse06_magmom
 _atom_site_pbe_bader_spin_density
 _atom_site_pbe_cm5_charge
 _atom_site_pbe_ddec_charge
 _atom_site_pbe_ddec_spin_density
 _atom_site_pbe_ddec_sum_bond_order
 _atom_site_pbe_magmom
Gd  Gd0  1  0.18718941  0.24317993  0.69500482  1  0  2.171622  0  1.79491  0  0  2.076669  0  2.143662  0  0  2.134225  0  2.088641  0  0  1.476191  2.033111  0  2.186292  0
Gd  Gd1  1  0.31280905  0.75682223  0.19500340  1  0  2.171617  0  1.794787  0  0  2.076673  0  2.14355  0  0  2.134296  0  2.088412  0  0  1.476249  2.033125  0  2.186145  0
Gd  Gd2  1  0.81281084  0.75681827  0.30499340  1  0  2.171654  0  1.794881  0  0  2.076738  0  2.143606  0  0  2.134263  0  2.088633  0  0  1.476177  2.033176  0  2.186232  0
Gd  Gd3  1  0.68718991  0.24317767  0.80499565  1  0  2.171625  0  1.794738  0  0  2.076704  0  2.143479  0  0  2.134341  0  2.088319  0  0  1.476248  2.033152  0  2.186079  0
H  H4  1  0.87177513  0.25660188  0.55178126  1  0  0.381046  0  0.908756  0  0  0.357393  0  0.976287  0  0  0.368263  0  0.964969  0  0  0.304503  0.349711  0  0.984158  0
H  H5  1  0.62822654  0.74339820  0.05178099  1  0  0.38104  0  0.908749  0  0  0.357403  0  0.976263  0  0  0.368273  0  0.964948  0  0  0.304505  0.349719  0  0.984141  0
H  H6  1  0.12823041  0.74339884  0.44821862  1  0  0.381001  0  0.908802  0  0  0.357382  0  0.976271  0  0  0.368249  0  0.96496  0  0  0.304504  0.349697  0  0.984151  0
H  H7  1  0.37177240  0.25660000  0.94821806  1  0  0.381088  0  0.908787  0  0  0.357474  0  0.976246  0  0  0.368342  0  0.964935  0  0  0.304531  0.349788  0  0.984132  0
H  H8  1  0.60208542  0.55988690  0.72989253  1  0  0.141484  0  0.948317  0  0  0.160704  0  1.007588  0  0  0.162873  0  1.007298  0  0  0.103667  0.159113  0  1.0079  0
H  H9  1  0.89790957  0.44011242  0.22989126  1  0  0.14151  0  0.948253  0  0  0.160717  0  1.007546  0  0  0.162887  0  1.007253  0  0  0.103662  0.159126  0  1.007858  0
H  H10  1  0.39790560  0.44011048  0.27010485  1  0  0.141462  0  0.948214  0  0  0.160671  0  1.007501  0  0  0.162842  0  1.007204  0  0  0.103658  0.159077  0  1.007816  0
H  H11  1  0.10208674  0.55988664  0.77010696  1  0  0.141475  0  0.948292  0  0  0.160696  0  1.00757  0  0  0.162865  0  1.007279  0  0  0.103663  0.159105  0  1.007884  0
H  H12  1  0.49485055  0.59361951  0.59979303  1  0  0.136608  0  0.95669  0  0  0.15728  0  1.013267  0  0  0.158922  0  1.013497  0  0  0.09932  0.156054  0  1.013191  0
H  H13  1  0.00514722  0.40638008  0.09979231  1  0  0.136637  0  0.956671  0  0  0.157295  0  1.013264  0  0  0.158933  0  1.013493  0  0  0.09934  0.156074  0  1.013186  0
H  H14  1  0.50514310  0.40637701  0.40020519  1  0  0.136601  0  0.956696  0  0  0.157228  0  1.013327  0  0  0.158864  0  1.013556  0  0  0.099326  0.156003  0  1.013252  0
H  H15  1  0.99484644  0.59361814  0.90020674  1  0  0.1366  0  0.956713  0  0  0.157299  0  1.013254  0  0  0.15894  0  1.013483  0  0  0.099334  0.156074  0  1.01318  0
H  H16  1  0.65573821  0.48446882  0.60716301  1  0  0.156065  0  0.922184  0  0  0.174399  0  0.981553  0  0  0.177502  0  0.980058  0  0  0.113995  0.172167  0  0.982705  0
H  H17  1  0.84425858  0.51553130  0.10716160  1  0  0.156059  0  0.922167  0  0  0.174397  0  0.981529  0  0  0.177501  0  0.980032  0  0  0.113983  0.172164  0  0.982685  0
H  H18  1  0.34424886  0.51552772  0.39283771  1  0  0.156125  0  0.921945  0  0  0.174404  0  0.981399  0  0  0.177506  0  0.979907  0  0  0.11398  0.172173  0  0.982551  0
H  H19  1  0.15573641  0.48446776  0.89283661  1  0  0.156058  0  0.922222  0  0  0.174395  0  0.981591  0  0  0.177498  0  0.980096  0  0  0.113999  0.172166  0  0.982744  0
H  H20  1  0.49862717  0.16560022  0.35849891  1  0  0.133707  0  0.951135  0  0  0.15469  0  1.007798  0  0  0.156765  0  1.007306  0  0  0.097971  0.153167  0  1.00821  0
H  H21  1  0.00137639  0.83440283  0.85849666  1  0  0.133666  0  0.951097  0  0  0.154671  0  1.007738  0  0  0.156744  0  1.007244  0  0  0.097998  0.153152  0  1.008149  0
H  H22  1  0.50138103  0.83440219  0.64150097  1  0  0.133732  0  0.951101  0  0  0.154742  0  1.007749  0  0  0.156815  0  1.007256  0  0  0.098005  0.153219  0  1.008163  0
H  H23  1  0.99862523  0.16559961  0.14150323  1  0  0.133678  0  0.951124  0  0  0.154684  0  1.007771  0  0  0.156757  0  1.007278  0  0  0.098009  0.153164  0  1.008179  0
H  H24  1  0.68603769  0.09801297  0.42062368  1  0  0.169286  0  0.939122  0  0  0.187137  0  0.996224  0  0  0.190923  0  0.993962  0  0  0.110104  0.18442  0  0.997887  0
H  H25  1  0.81396259  0.90198808  0.92062231  1  0  0.169232  0  0.939118  0  0  0.187087  0  0.99622  0  0  0.190871  0  0.99396  0  0  0.110094  0.184368  0  0.997884  0
H  H26  1  0.31397314  0.90198943  0.57937537  1  0  0.169265  0  0.93914  0  0  0.187142  0  0.996203  0  0  0.190927  0  0.99394  0  0  0.110121  0.184425  0  0.997871  0
H  H27  1  0.18603637  0.09801266  0.07937924  1  0  0.169212  0  0.9391  0  0  0.187072  0  0.996205  0  0  0.190855  0  0.993945  0  0  0.110081  0.184353  0  0.997871  0
H  H28  1  0.70160498  0.24065132  0.37806946  1  0  0.128483  0  0.956603  0  0  0.148649  0  1.01726  0  0  0.150776  0  1.016523  0  0  0.09822  0.147096  0  1.017869  0
H  H29  1  0.79839632  0.75934973  0.87806718  1  0  0.128496  0  0.956584  0  0  0.148655  0  1.017251  0  0  0.150782  0  1.016514  0  0  0.098237  0.147103  0  1.01786  0
H  H30  1  0.29840454  0.75935109  0.62192959  1  0  0.128452  0  0.956701  0  0  0.148651  0  1.017334  0  0  0.150777  0  1.016599  0  0  0.098228  0.147113  0  1.017928  0
H  H31  1  0.20160131  0.24065018  0.12193270  1  0  0.12847  0  0.956645  0  0  0.14863  0  1.017313  0  0  0.150758  0  1.016575  0  0  0.098228  0.147084  0  1.01792  0
H  H32  1  0.80066092  0.91082563  0.71699097  1  0  0.136456  0  0.95512  0  0  0.157154  0  1.016437  0  0  0.158808  0  1.016437  0  0  0.102706  0.155948  0  1.016506  0
H  H33  1  0.69934192  0.08917790  0.21699737  1  0  0.136329  0  0.955302  0  0  0.157062  0  1.016589  0  0  0.158714  0  1.016596  0  0  0.102631  0.155842  0  1.016669  0
H  H34  1  0.19934330  0.08917425  0.28300891  1  0  0.136386  0  0.955146  0  0  0.157068  0  1.016498  0  0  0.158721  0  1.016499  0  0  0.102669  0.15587  0  1.016559  0
H  H35  1  0.30065441  0.91082370  0.78300751  1  0  0.136357  0  0.955268  0  0  0.157079  0  1.01657  0  0  0.158735  0  1.016571  0  0  0.102646  0.155869  0  1.016646  0
H  H36  1  0.88081004  0.90171125  0.57588579  1  0  0.156573  0  0.964409  0  0  0.170285  0  1.02801  0  0  0.173587  0  1.026343  0  0  0.105022  0.167852  0  1.029353  0
H  H37  1  0.61918920  0.09829309  0.07589280  1  0  0.156476  0  0.964529  0  0  0.170168  0  1.028158  0  0  0.173495  0  1.026471  0  0  0.104961  0.167736  0  1.029489  0
H  H38  1  0.11919155  0.09828864  0.42411326  1  0  0.156574  0  0.964411  0  0  0.170284  0  1.028018  0  0  0.173585  0  1.026351  0  0  0.105038  0.167853  0  1.029359  0
H  H39  1  0.38080451  0.90171021  0.92411208  1  0  0.156453  0  0.964527  0  0  0.170159  0  1.02814  0  0  0.173474  0  1.026464  0  0  0.104962  0.167728  0  1.029475  0
H  H40  1  0.71108598  0.99924989  0.61353997  1  0  0.146157  0  0.927149  0  0  0.167372  0  0.981753  0  0  0.169559  0  0.981208  0  0  0.109998  0.165792  0  0.982202  0
H  H41  1  0.78892148  0.00075952  0.11354325  1  0  0.146158  0  0.927132  0  0  0.167364  0  0.981757  0  0  0.16955  0  0.981218  0  0  0.109926  0.165787  0  0.982197  0
H  H42  1  0.28891693  0.00075085  0.38646158  1  0  0.146131  0  0.927129  0  0  0.167347  0  0.981735  0  0  0.169534  0  0.98119  0  0  0.109979  0.165769  0  0.982182  0
H  H43  1  0.21107621  0.99924546  0.88645913  1  0  0.146163  0  0.927089  0  0  0.167349  0  0.981753  0  0  0.169535  0  0.981214  0  0  0.109924  0.165776  0  0.982193  0
H  H44  1  0.98311932  0.28777939  0.36130606  1  0  0.054491  0  0.952209  0  0  0.072387  0  1.020303  0  0  0.07253  0  1.020216  0  0  0.087445  0.072151  0  1.020475  0
H  H45  1  0.51688316  0.71221995  0.86130881  1  0  0.054509  0  0.952225  0  0  0.072427  0  1.020295  0  0  0.07257  0  1.020209  0  0  0.087468  0.07219  0  1.020466  0
H  H46  1  0.01688094  0.71221966  0.63869132  1  0  0.05451  0  0.952227  0  0  0.072424  0  1.020307  0  0  0.072569  0  1.020218  0  0  0.087462  0.072186  0  1.020477  0
H  H47  1  0.48311579  0.28777995  0.13869107  1  0  0.05452  0  0.952208  0  0  0.072438  0  1.020279  0  0  0.072581  0  1.020192  0  0  0.087473  0.072203  0  1.02045  0
H  H48  1  0.17239938  0.34454181  0.42978544  1  0  0.086704  0  0.957794  0  0  0.104499  0  1.02424  0  0  0.104979  0  1.02455  0  0  0.105319  0.104061  0  1.02407  0
H  H49  1  0.32760462  0.65545702  0.92978737  1  0  0.086761  0  0.957776  0  0  0.104543  0  1.024242  0  0  0.10502  0  1.02456  0  0  0.105334  0.104102  0  1.024069  0
H  H50  1  0.82760352  0.65545807  0.57021194  1  0  0.086739  0  0.957789  0  0  0.104537  0  1.024234  0  0  0.105015  0  1.024551  0  0  0.105329  0.104095  0  1.02406  0
H  H51  1  0.67239432  0.34454118  0.07021168  1  0  0.086753  0  0.957805  0  0  0.104518  0  1.024276  0  0  0.104995  0  1.024594  0  0  0.105329  0.104079  0  1.024102  0
H  H52  1  0.96353526  0.41341229  0.44513254  1  0  0.088187  0  0.93949  0  0  0.105636  0  1.003073  0  0  0.107297  0  1.001542  0  0  0.100626  0.104293  0  1.004374  0
H  H53  1  0.53646782  0.58658792  0.94513281  1  0  0.088163  0  0.93955  0  0  0.105626  0  1.003113  0  0  0.107289  0  1.001581  0  0  0.100611  0.104279  0  1.004419  0
H  H54  1  0.03646501  0.58658760  0.55486817  1  0  0.088177  0  0.939541  0  0  0.105632  0  1.003122  0  0  0.107294  0  1.00159  0  0  0.100618  0.104287  0  1.004422  0
H  H55  1  0.46353245  0.41341197  0.05486541  1  0  0.088149  0  0.939581  0  0  0.105607  0  1.003154  0  0  0.107269  0  1.001622  0  0  0.100611  0.104271  0  1.004449  0
C  C56  1  0.40881715  0.43886666  0.67715093  1  0  0.770633  0  3.822557  0  0  0.733693  0  4.119701  0  0  0.767364  0  4.110783  0  0  0.209654  0.710802  0  4.124765  0
C  C57  1  0.09117982  0.56113127  0.17715217  1  0  0.770729  0  3.822489  0  0  0.733816  0  4.119568  0  0  0.767485  0  4.110654  0  0  0.20968  0.710919  0  4.124642  0
C  C58  1  0.59117124  0.56113073  0.32284562  1  0  0.770649  0  3.82293  0  0  0.733817  0  4.11987  0  0  0.76749  0  4.110947  0  0  0.209725  0.710926  0  4.124933  0
C  C59  1  0.90881911  0.43886694  0.82284605  1  0  0.770678  0  3.822629  0  0  0.733832  0  4.119631  0  0  0.767503  0  4.110718  0  0  0.209673  0.710944  0  4.124691  0
C  C60  1  0.54744217  0.52602241  0.65218954  1  0  -0.453876  0  3.627773  0  0  -0.529111  0  3.855563  0  0  -0.53601  0  3.857987  0  0  -0.238177  -0.524255  0  3.853934  0
C  C61  1  0.95255627  0.47398026  0.15218925  1  0  -0.453914  0  3.627736  0  0  -0.529139  0  3.855523  0  0  -0.536034  0  3.857942  0  0  -0.238162  -0.524284  0  3.853901  0
C  C62  1  0.45255681  0.47398003  0.34780701  1  0  -0.453875  0  3.627633  0  0  -0.529064  0  3.855482  0  0  -0.535956  0  3.857898  0  0  -0.238165  -0.524206  0  3.853856  0
C  C63  1  0.04744138  0.52602134  0.84780979  1  0  -0.453823  0  3.627859  0  0  -0.529122  0  3.855661  0  0  -0.53602  0  3.858084  0  0  -0.238175  -0.524271  0  3.854038  0
C  C64  1  0.55036915  0.21490735  0.52792214  1  0  0.799788  0  3.780318  0  0  0.761261  0  4.076562  0  0  0.795516  0  4.066613  0  0  0.236408  0.737874  0  4.082614  0
C  C65  1  0.94964947  0.78509183  0.02791778  1  0  0.799986  0  3.780708  0  0  0.761425  0  4.07699  0  0  0.795677  0  4.067042  0  0  0.236502  0.738031  0  4.083048  0
C  C66  1  0.44963507  0.78509254  0.47207858  1  0  0.799907  0  3.780379  0  0  0.761391  0  4.076612  0  0  0.795644  0  4.066661  0  0  0.236504  0.737997  0  4.082675  0
C  C67  1  0.05034947  0.21490722  0.97208294  1  0  0.799859  0  3.780933  0  0  0.761363  0  4.077108  0  0  0.795617  0  4.06716  0  0  0.236493  0.737971  0  4.083166  0
C  C68  1  0.61137606  0.17766510  0.41397771  1  0  -0.478684  0  3.646298  0  0  -0.554591  0  3.873696  0  0  -0.56179  0  3.875019  0  0  -0.246877  -0.549494  0  3.872851  0
C  C69  1  0.88862549  0.82233595  0.91397736  1  0  -0.478604  0  3.646172  0  0  -0.554509  0  3.87359  0  0  -0.561704  0  3.874915  0  0  -0.246861  -0.549415  0  3.872748  0
C  C70  1  0.38863477  0.82233730  0.58602217  1  0  -0.478669  0  3.646352  0  0  -0.554649  0  3.873781  0  0  -0.561845  0  3.875104  0  0  -0.2469  -0.549565  0  3.87293  0
C  C71  1  0.11137479  0.17766479  0.08602585  1  0  -0.478524  0  3.646198  0  0  -0.554447  0  3.873587  0  0  -0.561641  0  3.874913  0  0  -0.246851  -0.549358  0  3.87274  0
C  C72  1  0.96699560  0.04725891  0.66913045  1  0  0.787962  0  3.787786  0  0  0.751379  0  4.082997  0  0  0.785374  0  4.073433  0  0  0.217799  0.728232  0  4.088575  0
C  C73  1  0.53297660  0.95274300  0.16912248  1  0  0.787844  0  3.788551  0  0  0.751516  0  4.083382  0  0  0.785489  0  4.073844  0  0  0.217731  0.72837  0  4.088965  0
C  C74  1  0.03301257  0.95274011  0.33087027  1  0  0.787767  0  3.788209  0  0  0.751368  0  4.083167  0  0  0.78534  0  4.073625  0  0  0.217759  0.728206  0  4.088765  0
C  C75  1  0.46702104  0.04725775  0.83087907  1  0  0.787727  0  3.788478  0  0  0.751395  0  4.083332  0  0  0.785371  0  4.073792  0  0  0.217733  0.728251  0  4.088913  0
C  C76  1  0.83320189  0.95833637  0.64111576  1  0  -0.454427  0  3.622159  0  0  -0.532784  0  3.854422  0  0  -0.539375  0  3.855967  0  0  -0.238566  -0.528138  0  3.853471  0
C  C77  1  0.66680703  0.04166796  0.14112205  1  0  -0.454262  0  3.622082  0  0  -0.532699  0  3.854277  0  0  -0.539287  0  3.855748  0  0  -0.238445  -0.52805  0  3.853349  0
C  C78  1  0.16680102  0.04166351  0.35888495  1  0  -0.454257  0  3.622338  0  0  -0.532626  0  3.854519  0  0  -0.539211  0  3.856074  0  0  -0.238477  -0.527981  0  3.853561  0
C  C79  1  0.33319062  0.95833364  0.85888199  1  0  -0.454248  0  3.62202  0  0  -0.532672  0  3.854233  0  0  -0.539251  0  3.855715  0  0  -0.238449  -0.528028  0  3.853287  0
C  C80  1  0.03016774  0.33114988  0.43708004  1  0  -0.009099  0  3.649082  0  0  -0.102497  0  3.920372  0  0  -0.096036  0  3.924145  0  0  -0.144022  -0.106743  0  3.917778  0
C  C81  1  0.46983499  0.66884811  0.93707987  1  0  -0.009136  0  3.649125  0  0  -0.102555  0  3.920405  0  0  -0.096098  0  3.924183  0  0  -0.144038  -0.106792  0  3.917811  0
C  C82  1  0.96983383  0.66884832  0.56291901  1  0  -0.009148  0  3.649151  0  0  -0.102577  0  3.920448  0  0  -0.09612  0  3.924218  0  0  -0.144067  -0.106818  0  3.917846  0
C  C83  1  0.53016396  0.33115094  0.06291751  1  0  -0.009111  0  3.649192  0  0  -0.102506  0  3.920492  0  0  -0.096049  0  3.924271  0  0  -0.144037  -0.106758  0  3.917895  0
O  O84  1  0.44024638  0.36268156  0.75237979  1  0  -0.824147  0  2.106818  0  0  -0.781171  0  2.359865  0  0  -0.808727  0  2.350037  0  0  -0.441745  -0.761292  0  2.366019  0
O  O85  1  0.05975113  0.63731723  0.25237930  1  0  -0.824202  0  2.106807  0  0  -0.781262  0  2.359896  0  0  -0.80881  0  2.350069  0  0  -0.441779  -0.76138  0  2.36605  0
O  O86  1  0.55975123  0.63731580  0.24762176  1  0  -0.824088  0  2.10702  0  0  -0.781184  0  2.360094  0  0  -0.808735  0  2.350265  0  0  -0.441746  -0.761306  0  2.366249  0
O  O87  1  0.94024912  0.36268097  0.74761975  1  0  -0.824105  0  2.106937  0  0  -0.781181  0  2.360001  0  0  -0.808734  0  2.350177  0  0  -0.441719  -0.761305  0  2.366153  0
O  O88  1  0.26430732  0.43646052  0.62490839  1  0  -0.672905  0  1.938396  0  0  -0.632566  0  2.170426  0  0  -0.657749  0  2.163104  0  0  -0.35264  -0.614882  0  2.174913  0
O  O89  1  0.23569063  0.56353908  0.12491086  1  0  -0.672963  0  1.93831  0  0  -0.632609  0  2.17031  0  0  -0.657801  0  2.162989  0  0  -0.352617  -0.614922  0  2.174798  0
O  O90  1  0.73568503  0.56353771  0.37508899  1  0  -0.672995  0  1.938427  0  0  -0.632675  0  2.170393  0  0  -0.657856  0  2.163073  0  0  -0.352679  -0.614993  0  2.174886  0
O  O91  1  0.76430175  0.43646168  0.87508819  1  0  -0.672988  0  1.938159  0  0  -0.632697  0  2.170164  0  0  -0.657891  0  2.162842  0  0  -0.352654  -0.615016  0  2.174649  0
O  O92  1  0.38705218  0.21614313  0.54760380  1  0  -0.702604  0  2.027069  0  0  -0.65771  0  2.27102  0  0  -0.684228  0  2.262667  0  0  -0.380859  -0.639002  0  2.276418  0
O  O93  1  0.11293466  0.78385393  0.04760100  1  0  -0.702413  0  2.028043  0  0  -0.657556  0  2.272067  0  0  -0.684076  0  2.263704  0  0  -0.380773  -0.638839  0  2.277445  0
O  O94  1  0.61295594  0.78385165  0.45239609  1  0  -0.702633  0  2.027117  0  0  -0.657783  0  2.271108  0  0  -0.684297  0  2.262758  0  0  -0.380945  -0.63905  0  2.276466  0
O  O95  1  0.88706694  0.21614765  0.95239972  1  0  -0.702371  0  2.028181  0  0  -0.657557  0  2.272213  0  0  -0.684079  0  2.263848  0  0  -0.38077  -0.638837  0  2.277582  0
O  O96  1  0.66997661  0.24277579  0.59923009  1  0  -0.738468  0  2.044049  0  0  -0.686068  0  2.280131  0  0  -0.713879  0  2.271891  0  0  -0.361836  -0.666385  0  2.285338  0
O  O97  1  0.83001483  0.75722265  0.09923039  1  0  -0.738806  0  2.043542  0  0  -0.686371  0  2.279582  0  0  -0.714172  0  2.271343  0  0  -0.362016  -0.666686  0  2.284792  0
O  O98  1  0.33003028  0.75722747  0.40077062  1  0  -0.738504  0  2.044079  0  0  -0.68613  0  2.280209  0  0  -0.713938  0  2.271969  0  0  -0.36189  -0.666449  0  2.285418  0
O  O99  1  0.16998410  0.24277471  0.90076866  1  0  -0.738734  0  2.043531  0  0  -0.686377  0  2.279643  0  0  -0.714182  0  2.271405  0  0  -0.362034  -0.666691  0  2.28485  0
O  O100  1  0.12345622  0.04369565  0.63373820  1  0  -0.661357  0  1.940076  0  0  -0.617098  0  2.16484  0  0  -0.642392  0  2.157712  0  0  -0.343239  -0.599414  0  2.169317  0
O  O101  1  0.37658000  0.95630384  0.13374618  1  0  -0.661007  0  1.941891  0  0  -0.616881  0  2.166573  0  0  -0.642168  0  2.159443  0  0  -0.343014  -0.599212  0  2.171072  0
O  O102  1  0.87654668  0.95630339  0.36626418  1  0  -0.661283  0  1.940044  0  0  -0.617131  0  2.164752  0  0  -0.642414  0  2.15763  0  0  -0.343262  -0.599444  0  2.169238  0
O  O103  1  0.62342159  0.04369605  0.86625620  1  0  -0.660933  0  1.941716  0  0  -0.616811  0  2.166405  0  0  -0.642104  0  2.159283  0  0  -0.34303  -0.599133  0  2.170885  0
O  O104  1  0.92075756  0.13230821  0.73142068  1  0  -0.84402  0  2.150558  0  0  -0.80082  0  2.410073  0  0  -0.829457  0  2.400747  0  0  -0.464546  -0.78013  0  2.415864  0
O  O105  1  0.57925587  0.86768851  0.23142198  1  0  -0.844187  0  2.149931  0  0  -0.80107  0  2.409352  0  0  -0.829701  0  2.400038  0  0  -0.464658  -0.780375  0  2.415147  0
O  O106  1  0.07924534  0.86769083  0.26858003  1  0  -0.843971  0  2.15076  0  0  -0.800842  0  2.410216  0  0  -0.829462  0  2.400898  0  0  -0.464527  -0.780141  0  2.416006  0
O  O107  1  0.42074572  0.13231138  0.76857790  1  0  -0.844174  0  2.150024  0  0  -0.801064  0  2.409468  0  0  -0.829702  0  2.400153  0  0  -0.464666  -0.780371  0  2.415264  0
O  O108  1  0.00118363  0.26122406  0.53289287  1  0  -0.605713  0  2.235405  0  0  -0.546165  0  2.483237  0  0  -0.565643  0  2.473451  0  0  -0.466482  -0.532111  0  2.489769  0
O  O109  1  0.49881763  0.73877465  0.03289530  1  0  -0.605722  0  2.235306  0  0  -0.546184  0  2.483133  0  0  -0.565675  0  2.473355  0  0  -0.4665  -0.532129  0  2.489664  0
O  O110  1  0.99881925  0.73877328  0.46710451  1  0  -0.605688  0  2.235429  0  0  -0.546164  0  2.483275  0  0  -0.565636  0  2.473494  0  0  -0.466459  -0.532108  0  2.489809  0
O  O111  1  0.50117868  0.26122441  0.96710458  1  0  -0.605824  0  2.235463  0  0  -0.546279  0  2.483244  0  0  -0.565771  0  2.473466  0  0  -0.466527  -0.532222  0  2.489788  0
