# generated using pymatgen
data_NiH18C26(NO)4
_symmetry_space_group_name_H-M   'P 1'
_cell_length_a   8.98874386
_cell_length_b   11.53352950
_cell_length_c   11.71740817
_cell_angle_alpha   98.52506565
_cell_angle_beta   99.88807733
_cell_angle_gamma   103.19859528
_symmetry_Int_Tables_number   1
_chemical_formula_structural   NiH18C26(NO)4
_chemical_formula_sum   'Ni2 H36 C52 N8 O8'
_cell_volume   1142.64073318
_cell_formula_units_Z   2
loop_
 _symmetry_equiv_pos_site_id
 _symmetry_equiv_pos_as_xyz
  1  'x, y, z'
loop_
 _atom_site_type_symbol
 _atom_site_label
 _atom_site_symmetry_multiplicity
 _atom_site_fract_x
 _atom_site_fract_y
 _atom_site_fract_z
 _atom_site_occupancy
 _atom_site_pbe_cm5_charge
 _atom_site_pbe_ddec_charge
 _atom_site_pbe_ddec_spin_density
 _atom_site_pbe_ddec_sum_bond_order
 _atom_site_pbe_magmom
Ni  Ni0  1  0.89677020  0.90153096  0.10718191  1  0.651951  0.767682  -1.772449  2.492365  -1.539
Ni  Ni1  1  0.10322668  0.09846778  0.89281617  1  0.651977  0.7678  -1.772447  2.492251  -1.539
H  H2  1  0.02979317  0.04033201  0.35282388  1  0.118252  0.093977  -0.000607  1.011184  -0.001
H  H3  1  0.97019746  0.95966490  0.64717311  1  0.118272  0.093993  -0.000607  1.011203  -0.001
H  H4  1  0.20962568  0.02522403  0.53342833  1  0.107715  0.118142  -0.000469  1.021079  0.0
H  H5  1  0.79036240  0.97477196  0.46657074  1  0.107731  0.118169  -0.000469  1.021052  0.0
H  H6  1  0.28439930  0.70660229  0.32907285  1  0.099884  0.105942  -0.000426  1.04983  0.0
H  H7  1  0.71559562  0.29339736  0.67092510  1  0.099896  0.105957  -0.000426  1.049843  0.0
H  H8  1  0.09999870  0.73682782  0.15780718  1  0.115687  0.086896  -0.000632  1.027507  -0.001
H  H9  1  0.89999879  0.26317274  0.84219039  1  0.115685  0.08691  -0.000632  1.027511  -0.001
H  H10  1  0.42002608  0.76808412  0.53266748  1  0.100224  0.099413  -8e-05  1.022518  0.0
H  H11  1  0.57996425  0.23191188  0.46732933  1  0.100222  0.099422  -8e-05  1.022573  0.0
H  H12  1  0.37482219  0.00526383  0.66687270  1  0.103565  0.113916  -0.000316  1.039853  0.0
H  H13  1  0.62518780  0.99474041  0.33312279  1  0.103576  0.113859  -0.000316  1.039924  0.0
H  H14  1  0.51519375  0.08414658  0.85591536  1  0.107605  0.120515  -0.000415  1.015306  -0.001
H  H15  1  0.48480766  0.91585219  0.14408075  1  0.107635  0.12056  -0.000415  1.015266  -0.001
H  H16  1  0.69181995  0.06863528  0.03815093  1  0.117915  0.085075  -0.00074  1.012518  -0.001
H  H17  1  0.30817664  0.93136256  0.96184697  1  0.117918  0.085065  -0.00074  1.012469  -0.001
H  H18  1  0.73779116  0.73701795  0.88189692  1  0.113295  0.082777  -0.000565  1.039499  -0.001
H  H19  1  0.26221085  0.26298263  0.11810295  1  0.113312  0.082796  -0.000565  1.039511  -0.001
H  H20  1  0.56289340  0.73619360  0.69377471  1  0.102367  0.10559  -0.00041  1.044255  0.0
H  H21  1  0.43711456  0.26380791  0.30622096  1  0.102371  0.105555  -0.00041  1.044312  0.0
H  H22  1  0.12043419  0.64998557  0.99196343  1  0.101642  0.100384  -0.000139  1.027599  0.0
H  H23  1  0.87956269  0.35001318  0.00803379  1  0.101671  0.100436  -0.000139  1.027531  0.0
H  H24  1  0.15311441  0.45337707  0.88854317  1  0.099611  0.109164  -0.000434  1.03912  0.0
H  H25  1  0.84688873  0.54662352  0.11145515  1  0.099627  0.109196  -0.000434  1.039018  0.0
H  H26  1  0.09384123  0.40388745  0.66882547  1  0.10174  0.098303  6.5e-05  1.044188  0.0
H  H27  1  0.90616816  0.59611497  0.33117223  1  0.101738  0.098331  6.5e-05  1.044222  0.0
H  H28  1  0.00132543  0.75212317  0.65602537  1  0.108503  0.115096  -0.000134  1.010619  0.0
H  H29  1  0.99867003  0.24787466  0.34397239  1  0.108446  0.115009  -0.000134  1.010634  0.0
H  H30  1  0.43133415  0.59882074  0.04267056  1  0.107624  0.111078  -4.6e-05  0.996302  0.0
H  H31  1  0.56868000  0.40117898  0.95733676  1  0.107666  0.111173  -4.6e-05  0.996251  0.0
H  H32  1  0.23147410  0.45043138  0.10779293  1  0.104655  0.108729  -3.9e-05  1.010973  0.0
H  H33  1  0.76853470  0.54956923  0.89221040  1  0.10469  0.108803  -3.9e-05  1.010948  0.0
H  H34  1  0.27573270  0.42285159  0.31793702  1  0.102472  0.102566  2.2e-05  1.049505  0.0
H  H35  1  0.72426711  0.57715261  0.68206737  1  0.102475  0.102543  2.2e-05  1.049529  0.0
H  H36  1  0.69919610  0.71163752  0.40173814  1  0.11129  0.119686  -4e-05  0.993443  0.0
H  H37  1  0.30081126  0.28836217  0.59827169  1  0.11129  0.119632  -4e-05  0.993487  0.0
C  C38  1  0.08977910  0.96828653  0.35239486  1  0.042188  0.088855  0.00353  3.950657  0.002
C  C39  1  0.91021552  0.03171220  0.64760377  1  0.042222  0.088872  0.00353  3.95056  0.002
C  C40  1  0.19077350  0.95906456  0.45214812  1  -0.082838  -0.17969  -0.00276  3.923007  -0.004
C  C41  1  0.80921909  0.04093145  0.54784985  1  -0.08285  -0.179699  -0.00276  3.922881  -0.004
C  C42  1  0.26623867  0.86426341  0.44732519  1  0.006126  0.147357  0.006163  4.023156  0.004
C  C43  1  0.73375452  0.13573442  0.55267398  1  0.006146  0.147439  0.006162  4.023065  0.004
C  C44  1  0.23170838  0.78272457  0.33873396  1  -0.085949  -0.176321  -0.002666  3.928241  -0.004
C  C45  1  0.76828398  0.21727416  0.66126437  1  -0.086028  -0.176438  -0.002666  3.928334  -0.004
C  C46  1  0.12903233  0.79842141  0.24290673  1  0.044731  0.094868  0.004714  3.944181  0.003
C  C47  1  0.87096260  0.20157824  0.75709122  1  0.044858  0.094977  0.004714  3.944224  0.003
C  C48  1  0.37452945  0.84804206  0.54756515  1  -0.080831  -0.114855  0.002559  3.939008  0.001
C  C49  1  0.62546660  0.15195759  0.45243295  1  -0.080822  -0.114971  0.00256  3.939037  0.001
C  C50  1  0.42011021  0.92517970  0.65334484  1  -0.077938  -0.108502  0.002637  3.929537  0.001
C  C51  1  0.57989263  0.07481998  0.34664989  1  -0.077946  -0.10835  0.002637  3.929525  0.001
C  C52  1  0.52583093  0.91344732  0.75704779  1  0.00876  0.152734  0.005727  4.009044  0.003
C  C53  1  0.47417251  0.08655417  0.24294985  1  0.008774  0.15272  0.005727  4.009164  0.003
C  C54  1  0.56534894  0.00676507  0.85745139  1  -0.080832  -0.170068  -0.002255  3.913123  -0.003
C  C55  1  0.43465276  0.99323460  0.14254576  1  -0.080888  -0.170211  -0.002255  3.913135  -0.003
C  C56  1  0.66431220  0.99873936  0.95889608  1  0.046292  0.105453  0.004484  3.961949  0.003
C  C57  1  0.33568581  0.00125939  0.04110215  1  0.046297  0.105515  0.004484  3.961748  0.003
C  C58  1  0.68825151  0.81329131  0.87112834  1  0.041997  0.098615  0.004234  3.945567  0.003
C  C59  1  0.31174854  0.18671016  0.12886971  1  0.041979  0.098605  0.004235  3.945538  0.003
C  C60  1  0.58964139  0.81362441  0.76658136  1  -0.084471  -0.171018  -0.002357  3.910609  -0.003
C  C61  1  0.41036401  0.18637618  0.23341555  1  -0.084467  -0.170956  -0.002356  3.910646  -0.003
C  C62  1  0.03838304  0.83054128  0.89425821  1  0.210364  0.559865  0.000263  4.223979  0.001
C  C63  1  0.96161355  0.16945656  0.10573885  1  0.210334  0.559787  0.000264  4.224255  0.001
C  C64  1  0.05877117  0.71366908  0.83129039  1  -0.022153  -0.036803  -0.007887  3.983626  -0.01
C  C65  1  0.94122798  0.28632968  0.16870884  1  -0.022177  -0.036769  -0.007887  3.983668  -0.01
C  C66  1  0.10066960  0.62866836  0.89597384  1  -0.079775  -0.084143  0.001238  3.949289  0.0
C  C67  1  0.89933121  0.37132858  0.10402620  1  -0.079813  -0.084255  0.001238  3.949334  0.0
C  C68  1  0.11704498  0.51857697  0.83846235  1  -0.09226  -0.085566  -0.000502  4.002074  -0.001
C  C69  1  0.88295673  0.48142270  0.16153564  1  -0.092284  -0.085546  -0.000502  4.00194  -0.001
C  C70  1  0.08608492  0.49039721  0.71571529  1  -0.078029  -0.122899  0.002227  3.925958  0.001
C  C71  1  0.91391769  0.50960519  0.28428152  1  -0.078035  -0.123022  0.002226  3.926004  0.001
C  C72  1  0.04232126  0.57451232  0.64998005  1  0.081188  0.157028  -0.000421  4.048075  -0.001
C  C73  1  0.95767849  0.42548825  0.35001782  1  0.081211  0.15714  -0.000421  4.048033  -0.001
C  C74  1  0.03293557  0.68709657  0.70801386  1  -0.072766  -0.148536  0.000672  3.911072  0.0
C  C75  1  0.96706221  0.31290491  0.29198473  1  -0.072712  -0.148487  0.000671  3.911021  0.0
C  C76  1  0.69582108  0.75569052  0.17843728  1  0.198706  0.546501  0.005036  4.215731  0.006
C  C77  1  0.30418326  0.24431370  0.82157026  1  0.198667  0.546455  0.005036  4.215924  0.006
C  C78  1  0.57707832  0.66560690  0.21767045  1  -0.010494  -0.00528  -0.001756  3.982671  -0.002
C  C79  1  0.42292542  0.33439550  0.78233845  1  -0.010506  -0.005253  -0.001755  3.982712  -0.002
C  C80  1  0.44637791  0.59030323  0.13518010  1  -0.07635  -0.092291  -0.002445  3.931973  -0.003
C  C81  1  0.55363201  0.40969738  0.86482679  1  -0.07643  -0.092504  -0.002446  3.932074  -0.003
C  C82  1  0.33565221  0.50563383  0.17172791  1  -0.08486  -0.069623  0.000785  3.999478  0.001
C  C83  1  0.66435350  0.49436767  0.82827685  1  -0.084881  -0.069627  0.000785  3.99954  0.001
C  C84  1  0.35961480  0.48967626  0.28840305  1  -0.083799  -0.149323  -0.00234  3.945649  -0.002
C  C85  1  0.64038841  0.51032795  0.71160263  1  -0.08388  -0.149373  -0.00234  3.945607  -0.002
C  C86  1  0.49381341  0.56231088  0.37021022  1  0.08198  0.155357  0.000545  4.067152  0.0
C  C87  1  0.50618943  0.43768879  0.62979561  1  0.081992  0.155296  0.000545  4.067148  0.0
C  C88  1  0.59839631  0.65392751  0.33598596  1  -0.074924  -0.16751  -0.002437  3.917377  -0.003
C  C89  1  0.40160856  0.34607489  0.66402139  1  -0.074851  -0.167348  -0.002437  3.917224  -0.003
N  N90  1  0.05884782  0.88969723  0.24843152  1  -0.327103  -0.21322  -0.04043  3.561759  -0.062
N  N91  1  0.94114740  0.11030333  0.75156575  1  -0.327249  -0.213358  -0.04043  3.561715  -0.062
N  N92  1  0.72817431  0.90478671  0.96631124  1  -0.331508  -0.238416  -0.0365  3.581475  -0.056
N  N93  1  0.27182341  0.09521114  0.03368681  1  -0.331536  -0.238463  -0.0365  3.581303  -0.056
N  N94  1  0.00343864  0.55338647  0.52514850  1  -0.150575  -0.134581  -2.3e-05  3.280124  0.0
N  N95  1  0.99656194  0.44661320  0.47484934  1  -0.150458  -0.134511  -2.3e-05  3.280097  0.0
N  N96  1  0.53096739  0.55146113  0.48994282  1  -0.142936  -0.126595  -0.000202  3.282358  0.0
N  N97  1  0.46903462  0.44853945  0.51006303  1  -0.14288  -0.126474  -0.000202  3.282331  0.0
O  O98  1  0.72739107  0.86815622  0.22449756  1  -0.303667  -0.534462  -0.041708  2.212708  -0.067
O  O99  1  0.27260957  0.13184707  0.77550680  1  -0.303611  -0.534409  -0.041712  2.212679  -0.067
O  O100  1  0.76311138  0.71706294  0.09892905  1  -0.299092  -0.518515  -0.044511  2.236944  -0.071
O  O101  1  0.23688867  0.28293853  0.90107667  1  -0.299124  -0.518579  -0.044511  2.237048  -0.071
O  O102  1  0.02450533  0.83386148  0.00074835  1  -0.308345  -0.559407  -0.036854  2.487227  -0.061
O  O103  1  0.97549043  0.16613726  0.99924873  1  -0.308355  -0.559428  -0.036853  2.4874  -0.061
O  O104  1  0.03831690  0.91581459  0.83665681  1  -0.306886  -0.544007  -0.038905  2.423704  -0.064
O  O105  1  0.96167998  0.08418416  0.16333956  1  -0.306847  -0.543917  -0.038906  2.423728  -0.064
