# generated using pymatgen
data_MnZn2H68C104(N2O3)4
_symmetry_space_group_name_H-M   'P 1'
_cell_length_a   13.35001717
_cell_length_b   14.15865790
_cell_length_c   16.86120255
_cell_angle_alpha   67.28114533
_cell_angle_beta   66.10602332
_cell_angle_gamma   73.62332419
_symmetry_Int_Tables_number   1
_chemical_formula_structural   MnZn2H68C104(N2O3)4
_chemical_formula_sum   'Mn1 Zn2 H68 C104 N8 O12'
_cell_volume   2657.90799513
_cell_formula_units_Z   1
loop_
 _symmetry_equiv_pos_site_id
 _symmetry_equiv_pos_as_xyz
  1  'x, y, z'
loop_
 _atom_site_type_symbol
 _atom_site_label
 _atom_site_symmetry_multiplicity
 _atom_site_fract_x
 _atom_site_fract_y
 _atom_site_fract_z
 _atom_site_occupancy
 _atom_site_pbe_bader_charge
 _atom_site_pbe_bader_spin_density
 _atom_site_pbe_cm5_charge
 _atom_site_pbe_ddec_charge
 _atom_site_pbe_ddec_spin_density
 _atom_site_pbe_ddec_sum_bond_order
 _atom_site_pbe_magmom
Mn  Mn0  1  0.49999766  0.00000385  0.49999903  1  1.45166  3.428367  0.768461  0.757996  3.540151  2.886339  3.348
Zn  Zn1  1  0.91612729  0.43195860  0.04319897  1  1.308038  4e-06  0.679677  0.844609  6e-06  2.391415  0.0
Zn  Zn2  1  0.08387210  0.56803913  0.95680495  1  1.307658  4e-06  0.679625  0.844505  6e-06  2.391313  0.0
H  H3  1  0.01806843  0.21669002  0.28497440  1  0.098322  1.6e-05  0.10744  0.112296  2.4e-05  0.99292  0.0
H  H4  1  0.98192933  0.78330303  0.71503147  1  0.09834  1.6e-05  0.107438  0.112314  2.4e-05  0.992953  0.0
H  H5  1  0.12518455  0.11932733  0.39274752  1  0.070806  -5.8e-05  0.102142  0.105619  -8.3e-05  0.991594  0.0
H  H6  1  0.87481350  0.88067350  0.60725526  1  0.070864  -5.8e-05  0.102133  0.105651  -8.3e-05  0.991602  0.0
H  H7  1  0.40661919  0.26927067  0.19738391  1  0.068769  -7.6e-05  0.09945  0.103627  -0.000108  1.008179  0.0
H  H8  1  0.59338046  0.73072638  0.80261540  1  0.068788  -7.5e-05  0.099438  0.103609  -0.000109  1.008218  0.0
H  H9  1  0.29888827  0.36781156  0.09225737  1  0.124776  -0.000108  0.107711  0.118652  -8.9e-05  1.005127  0.0
H  H10  1  0.70110887  0.63218164  0.90774093  1  0.125103  -0.000108  0.107702  0.118648  -8.9e-05  1.005149  0.0
H  H11  1  0.39223183  0.05193709  0.21755594  1  0.089591  0.000145  0.105213  0.122813  2e-05  1.023535  0.0
H  H12  1  0.60776894  0.94806222  0.78244648  1  0.089558  0.000145  0.105207  0.122859  2e-05  1.02348  0.0
H  H13  1  0.55715735  0.88842617  0.21995647  1  0.108732  -0.000542  0.10392  0.121025  -0.000648  1.037236  0.0
H  H14  1  0.44284728  0.11157567  0.78003687  1  0.108845  -0.000542  0.103889  0.120995  -0.000648  1.037222  0.0
H  H15  1  0.80260329  0.68736640  0.42789101  1  0.109522  3.6e-05  0.112057  0.131648  5.6e-05  0.997371  0.0
H  H16  1  0.19739814  0.31263835  0.57211012  1  0.109708  3.7e-05  0.112017  0.131619  5.6e-05  0.99735  0.0
H  H17  1  0.81647465  0.70331715  0.57851894  1  0.104379  3e-06  0.11037  0.128983  2.7e-05  0.999108  0.0
H  H18  1  0.18351987  0.29668519  0.42148386  1  0.104352  3e-06  0.110384  0.128995  2.7e-05  0.999084  0.0
H  H19  1  0.56763607  0.67856085  0.36053117  1  0.063611  -3.7e-05  0.096193  0.0956  -5.7e-05  1.025116  0.0
H  H20  1  0.43236201  0.32143446  0.63947746  1  0.063023  -3.7e-05  0.096229  0.095652  -5.7e-05  1.02502  0.0
H  H21  1  0.66970445  0.57080670  0.25542308  1  0.099571  -3e-05  0.102306  0.108583  -2.3e-05  1.016188  0.0
H  H22  1  0.33029057  0.42918785  0.74458376  1  0.099569  -3e-05  0.102335  0.108612  -2.3e-05  1.016186  0.0
H  H23  1  0.93744721  0.74838690  0.12995882  1  0.096851  -2.7e-05  0.104316  0.108026  -1.1e-05  1.015712  0.0
H  H24  1  0.06254165  0.25161075  0.87004478  1  0.096769  -2.7e-05  0.104334  0.10805  -1.1e-05  1.015627  0.0
H  H25  1  0.83809086  0.85381446  0.23718997  1  0.074692  -7.7e-05  0.100516  0.102545  -0.000131  1.023563  0.0
H  H26  1  0.16190772  0.14618968  0.76280153  1  0.074648  -7.7e-05  0.100543  0.102598  -0.000131  1.023478  0.0
H  H27  1  0.81041848  0.44110528  0.92026216  1  0.147032  9e-06  0.123491  0.101489  1.2e-05  1.005021  0.0
H  H28  1  0.18958257  0.55889248  0.07974066  1  0.146587  9e-06  0.123494  0.101564  1.2e-05  1.004945  0.0
H  H29  1  0.70470595  0.33106128  0.90482216  1  0.104684  -6.9e-05  0.118175  0.1341  -7.5e-05  0.986379  0.0
H  H30  1  0.29529976  0.66893901  0.09517192  1  0.104691  -6.9e-05  0.118194  0.13414  -7.5e-05  0.986403  0.0
H  H31  1  0.70102488  0.12562471  0.17227172  1  0.120105  -9.6e-05  0.117339  0.136494  -0.000181  0.993171  0.0
H  H32  1  0.29896101  0.87438533  0.82772836  1  0.120295  -9.6e-05  0.117389  0.136551  -0.000181  0.993208  0.0
H  H33  1  0.80733365  0.24352260  0.17665108  1  0.118527  0.000149  0.126157  0.101078  5.8e-05  0.981161  0.0
H  H34  1  0.19266386  0.75647202  0.82335380  1  0.118606  0.000149  0.126121  0.10101  5.8e-05  0.981143  0.0
H  H35  1  0.73729258  0.84827848  0.06472708  1  0.134335  -0.000218  0.110669  0.115713  -0.00017  1.017564  0.0
H  H36  1  0.26272688  0.15171725  0.93526955  1  0.133921  -0.000218  0.110679  0.115695  -0.00017  1.017635  0.0
H  H37  1  0.35782098  0.26269682  0.96033378  1  0.115905  -0.000441  0.115143  0.125796  -0.000274  0.983379  0.0
H  H38  1  0.64218664  0.73728799  0.03966392  1  0.115962  -0.000441  0.115108  0.125737  -0.000274  0.98322  0.0
H  H39  1  0.92344779  0.20625534  0.83328741  1  0.05035  0.0  0.092458  0.086843  1e-05  1.028965  0.0
H  H40  1  0.07653280  0.79374210  0.16672294  1  0.050744  0.0  0.092427  0.086852  1e-05  1.028923  0.0
H  H41  1  0.04468433  0.06025316  0.90829300  1  0.076857  1.1e-05  0.102638  0.10736  1.9e-05  1.020729  0.0
H  H42  1  0.95530329  0.93975434  0.09171921  1  0.076314  1.1e-05  0.102609  0.107299  1.9e-05  1.020827  0.0
H  H43  1  0.03291509  0.87942640  0.93199819  1  0.086431  2e-06  0.096958  0.094512  1e-05  1.01796  0.0
H  H44  1  0.96708829  0.12057685  0.06800162  1  0.086403  2e-06  0.096987  0.094555  1e-05  1.017962  0.0
H  H45  1  0.90491225  0.84292515  0.87759312  1  0.071538  -0.000161  0.096517  0.09954  -0.000184  1.036683  0.0
H  H46  1  0.09508790  0.15707254  0.12241296  1  0.071481  -0.000161  0.096505  0.099539  -0.000184  1.036683  0.0
H  H47  1  0.78250606  0.98685260  0.80482719  1  0.045803  -2e-06  0.094535  0.092895  7e-06  1.019753  0.0
H  H48  1  0.21749128  0.01314277  0.19517869  1  0.04552  -2e-06  0.094549  0.092904  7e-06  1.01985  0.0
H  H49  1  0.79228135  0.27096896  0.75527699  1  0.036162  7e-06  0.094928  0.087478  1.8e-05  0.9997  0.0
H  H50  1  0.20772658  0.72902741  0.24472119  1  0.035933  7e-06  0.094923  0.087477  1.8e-05  0.999656  0.0
H  H51  1  0.64239384  0.11731229  0.79199134  1  0.055857  1.8e-05  0.087757  0.12807  4.7e-05  1.044456  0.0
H  H52  1  0.35761562  0.88268490  0.20800493  1  0.056155  1.8e-05  0.087736  0.127976  4.7e-05  1.044559  0.0
H  H53  1  0.62131376  0.25989054  0.74182260  1  0.051593  -6.4e-05  0.088627  0.125622  -5.3e-05  1.043203  0.0
H  H54  1  0.37869418  0.74010584  0.25817497  1  0.051643  -6.4e-05  0.088612  0.125564  -5.3e-05  1.043146  0.0
H  H55  1  0.54598341  0.36787315  0.47748954  1  0.068038  8e-06  0.099654  0.092124  -2.4e-05  1.022001  0.0
H  H56  1  0.45401478  0.63212867  0.52250221  1  0.067964  8e-06  0.099641  0.092112  -2.4e-05  1.021839  0.0
H  H57  1  0.66073765  0.20315255  0.53222452  1  0.060313  -3e-06  0.103076  0.101684  -0.000129  0.989204  0.0
H  H58  1  0.33925376  0.79685452  0.46777183  1  0.059905  -3e-06  0.103085  0.101735  -0.000129  0.989287  0.0
H  H59  1  0.72668291  0.07121550  0.45069199  1  0.094301  0.000129  0.105119  0.103328  -0.000142  0.998801  0.0
H  H60  1  0.27330788  0.92879461  0.54930657  1  0.094135  0.000129  0.105136  0.103289  -0.000142  0.99882  0.0
H  H61  1  0.67247460  0.10454387  0.31643729  1  0.083608  0.000127  0.103422  0.098824  -0.0001  1.013056  0.0
H  H62  1  0.32752117  0.89546083  0.68356381  1  0.083608  0.000128  0.103472  0.098861  -0.0001  1.01296  0.0
H  H63  1  0.55478503  0.26944129  0.26260741  1  0.061895  -4.7e-05  0.097552  0.092059  -0.000168  1.026348  0.0
H  H64  1  0.44521572  0.73055977  0.73738499  1  0.062113  -4.7e-05  0.097535  0.09203  -0.000168  1.026397  0.0
H  H65  1  0.46970725  0.44037278  0.26447937  1  0.070953  -2.5e-05  0.10313  0.100696  -5.8e-05  0.979827  0.0
H  H66  1  0.53029547  0.55963611  0.73550762  1  0.070742  -2.5e-05  0.103034  0.100624  -5.8e-05  0.980005  0.0
H  H67  1  0.40812949  0.48660280  0.44474056  1  0.033195  0.0  0.091866  0.127269  -2.5e-05  1.030134  0.0
H  H68  1  0.59186662  0.51339664  0.55525375  1  0.033019  0.0  0.091822  0.127153  -2.5e-05  1.030273  0.0
H  H69  1  0.36339478  0.56601212  0.34460888  1  0.031932  3.3e-05  0.093302  0.132163  6e-06  1.033745  0.0
H  H70  1  0.63660138  0.43399113  0.65538779  1  0.032097  3.3e-05  0.09335  0.132243  6e-06  1.033743  0.0
C  C71  1  0.08712610  0.36231081  0.12000813  1  1.580277  -2.5e-05  0.213816  0.585535  -4e-05  4.184124  0.0
C  C72  1  0.91287015  0.63770006  0.87999327  1  1.579233  -2.5e-05  0.213934  0.585589  -4e-05  4.183985  0.0
C  C73  1  0.15127286  0.29932382  0.18326492  1  -0.046772  -0.00012  -0.019376  -0.041393  -9.4e-05  3.978577  0.0
C  C74  1  0.84872231  0.70067929  0.81673862  1  -0.047053  -0.00012  -0.019309  -0.04127  -9.4e-05  3.97845  0.0
C  C75  1  0.10279253  0.22825741  0.26727093  1  -0.059949  -0.000275  -0.081971  -0.084757  -0.000213  3.984431  0.0
C  C76  1  0.89720610  0.77174500  0.73272999  1  -0.059722  -0.000275  -0.081942  -0.084745  -0.000213  3.984426  0.0
C  C77  1  0.16253465  0.17435114  0.32689928  1  -0.056738  -0.000633  -0.092058  -0.144584  -0.000704  3.99121  0.0
C  C78  1  0.83746677  0.82564516  0.67309972  1  -0.056742  -0.000633  -0.092006  -0.144564  -0.000704  3.991291  0.0
C  C79  1  0.27193150  0.18941297  0.30232626  1  0.016612  0.000435  -0.005529  0.084778  0.000147  4.029596  0.001
C  C80  1  0.72806753  0.81058246  0.69767671  1  0.016797  0.000435  -0.005653  0.084589  0.000147  4.029722  0.001
C  C81  1  0.32090877  0.25878906  0.21721989  1  -0.021392  -0.000943  -0.093504  -0.139892  -0.001047  3.989701  -0.001
C  C82  1  0.67909298  0.74120108  0.78277854  1  -0.021676  -0.000944  -0.09346  -0.139756  -0.001047  3.989819  -0.001
C  C83  1  0.26083137  0.31395083  0.15835905  1  -0.092617  -0.000267  -0.083514  -0.086849  -0.00026  3.979185  0.0
C  C84  1  0.73917296  0.68603856  0.84163942  1  -0.092931  -0.000267  -0.083535  -0.086976  -0.00026  3.979369  0.0
C  C85  1  0.33816046  0.13126306  0.36380207  1  -0.006538  -0.018074  0.00054  -0.080501  -0.01925  3.998902  -0.011
C  C86  1  0.66183329  0.86872999  0.63620206  1  -0.006611  -0.018074  0.000544  -0.080451  -0.019249  3.99886  -0.011
C  C87  1  0.41935743  0.05056440  0.34100679  1  0.425778  0.000142  0.090679  0.179247  1e-05  4.053096  0.002
C  C88  1  0.58064340  0.94943496  0.65899322  1  0.425514  0.000144  0.090674  0.179241  1e-05  4.052874  0.002
C  C89  1  0.43783476  0.01658894  0.26511308  1  -0.089844  0.00358  -0.10224  -0.182388  0.002361  3.976415  0.002
C  C90  1  0.56217113  0.98341439  0.73488356  1  -0.08981  0.00358  -0.102285  -0.182542  0.002361  3.976253  0.002
C  C91  1  0.52083018  0.93434016  0.26625012  1  -0.06039  0.001827  -0.096404  -0.164572  0.000815  3.972057  0.001
C  C92  1  0.47917300  0.06566469  0.73374628  1  -0.060574  0.001829  -0.096339  -0.164456  0.000817  3.971934  0.001
C  C93  1  0.55425148  0.91729838  0.34251166  1  0.404522  -0.003111  0.08885  0.174641  -0.00289  4.059691  0.0
C  C94  1  0.44574953  0.08270401  0.65749091  1  0.40459  -0.003109  0.088807  0.174551  -0.002889  4.05964  0.0
C  C95  1  0.63786074  0.83974782  0.36517279  1  0.053635  -0.016419  0.003335  -0.072804  -0.017552  3.988997  -0.01
C  C96  1  0.36214022  0.16026006  0.63482514  1  0.053214  -0.016426  0.003379  -0.072764  -0.017558  3.98873  -0.01
C  C97  1  0.67096129  0.82447098  0.43848810  1  0.382727  -0.001659  0.093829  0.18471  -0.001999  4.046703  0.001
C  C98  1  0.32904177  0.17553000  0.56150894  1  0.38312  -0.001655  0.09391  0.184807  -0.001995  4.046571  0.001
C  C99  1  0.75559756  0.74379780  0.46358034  1  -0.05054  0.00595  -0.095291  -0.167408  0.003693  3.969862  0.003
C  C100  1  0.24440217  0.25620309  0.53642012  1  -0.050741  0.005952  -0.095271  -0.167424  0.003696  3.96974  0.003
C  C101  1  0.76264618  0.75195203  0.53949170  1  -0.074722  0.002789  -0.094777  -0.168255  0.001015  3.968821  0.001
C  C102  1  0.23734935  0.24804492  0.46051068  1  -0.074729  0.002792  -0.094743  -0.168168  0.001017  3.968752  0.001
C  C103  1  0.68220709  0.83781427  0.56099196  1  0.398622  0.001257  0.092528  0.177624  0.000492  4.061698  0.003
C  C104  1  0.31778763  0.16218269  0.43901007  1  0.398423  0.001258  0.092501  0.177506  0.000492  4.061797  0.003
C  C105  1  0.69731719  0.77215685  0.30593626  1  0.013269  0.000193  -0.003783  0.087603  -8e-06  4.015805  0.001
C  C106  1  0.30267820  0.22785019  0.69406303  1  0.013279  0.000192  -0.003911  0.087472  -8e-06  4.016131  0.001
C  C107  1  0.64954286  0.69275101  0.31073528  1  -0.04123  -0.001124  -0.093128  -0.145092  -0.001226  3.992601  -0.001
C  C108  1  0.35045042  0.30724897  0.68926921  1  -0.040534  -0.001124  -0.093109  -0.145044  -0.001226  3.992702  -0.001
C  C109  1  0.70574694  0.63303783  0.25203713  1  -0.074967  -0.000426  -0.086355  -0.091804  -0.000402  3.979889  0.0
C  C110  1  0.29425026  0.36695830  0.74796855  1  -0.074888  -0.000426  -0.086469  -0.091952  -0.000402  3.979976  0.0
C  C111  1  0.80989907  0.65319005  0.18702262  1  -0.010311  -6.2e-05  -0.018731  -0.035484  -3e-05  3.968711  0.0
C  C112  1  0.19009649  0.34680140  0.81298501  1  -0.010587  -6.2e-05  -0.018627  -0.035286  -3e-05  3.968631  0.0
C  C113  1  0.85736536  0.73268834  0.18210035  1  -0.065881  -0.000399  -0.083976  -0.089792  -0.000313  3.97625  0.0
C  C114  1  0.14262798  0.26730704  0.81790319  1  -0.066029  -0.0004  -0.083996  -0.089852  -0.000313  3.976135  0.0
C  C115  1  0.80200357  0.79111337  0.24158129  1  -0.062779  -0.000649  -0.089054  -0.132083  -0.000742  3.974593  0.0
C  C116  1  0.19799474  0.20889144  0.75841543  1  -0.062683  -0.000649  -0.089042  -0.132106  -0.000742  3.974679  0.0
C  C117  1  0.87132757  0.59168040  0.12178549  1  1.573454  2e-06  0.210663  0.590846  1.5e-05  4.182341  0.0
C  C118  1  0.12867742  0.40831732  0.87822148  1  1.573289  2e-06  0.210539  0.590494  1.5e-05  4.182567  0.0
C  C119  1  0.78392287  0.37052109  0.97410956  1  0.469598  -7.1e-05  0.053809  0.109494  -8.4e-05  3.913539  0.0
C  C120  1  0.21608271  0.62947444  0.02589078  1  0.470146  -7.1e-05  0.053823  0.109411  -8.4e-05  3.913797  0.0
C  C121  1  0.72576152  0.30965424  0.96602374  1  0.018219  0.00041  -0.073282  -0.189693  0.000371  3.944186  0.0
C  C122  1  0.27424113  0.69033975  0.03397560  1  0.018182  0.000411  -0.073301  -0.189632  0.000371  3.944194  0.0
C  C123  1  0.69477576  0.22030260  0.03817740  1  0.290603  -0.000136  0.119108  0.247174  0.000224  3.997913  0.0
C  C124  1  0.30522762  0.77969221  0.96181969  1  0.290685  -0.000136  0.119069  0.247159  0.000224  3.99771  0.0
C  C125  1  0.72313316  0.19524709  0.11565004  1  0.054333  0.000358  -0.07472  -0.199217  0.000278  3.94294  0.0
C  C126  1  0.27686500  0.80475848  0.88434708  1  0.054172  0.000357  -0.07479  -0.19945  0.000278  3.943099  0.0
C  C127  1  0.78200290  0.26029891  0.11816194  1  0.480612  -1.1e-05  0.056784  0.100001  -6.2e-05  3.943147  0.0
C  C128  1  0.21800129  0.73969969  0.88183906  1  0.480447  -1.1e-05  0.056894  0.100296  -6.2e-05  3.943078  0.0
C  C129  1  0.67993718  0.04825860  0.04833598  1  1.286513  -0.017565  0.23794  0.431891  -0.018425  4.097667  -0.008
C  C130  1  0.32007669  0.95173916  0.95167241  1  1.285956  -0.017584  0.237909  0.431971  -0.018445  4.097224  -0.008
C  C131  1  0.53935508  0.20430504  0.00689622  1  1.281431  -0.018507  0.236804  0.430377  -0.019629  4.111986  -0.009
C  C132  1  0.46065093  0.79568996  0.99309288  1  1.281005  -0.018502  0.236816  0.430515  -0.019621  4.111701  -0.009
C  C133  1  0.66351222  0.88065847  0.04484949  1  -0.047959  -0.026404  -0.07222  -0.078353  -0.02699  3.949373  -0.013
C  C134  1  0.33649369  0.11933846  0.95515863  1  -0.047975  -0.026408  -0.072145  -0.078281  -0.026998  3.949616  -0.013
C  C135  1  0.62236886  0.98576374  0.03347729  1  0.030789  -0.03226  -0.010988  -0.077201  -0.033161  4.004383  -0.019
C  C136  1  0.37763805  0.01423246  0.96652896  1  0.031476  -0.032267  -0.010955  -0.077065  -0.03317  4.004514  -0.019
C  C137  1  0.52705641  0.03145968  0.00704866  1  0.018433  0.004699  0.003491  0.033149  0.003971  3.987125  0.005
C  C138  1  0.47295446  0.96853735  0.99295612  1  -0.045423  0.004744  0.00353  0.033198  0.00397  3.987066  0.005
C  C139  1  0.48396283  0.13786441  0.99452985  1  -0.037742  -0.03555  -0.015063  -0.080567  -0.036761  4.018038  -0.021
C  C140  1  0.51604275  0.86213113  0.00547049  1  -0.03754  -0.03552  -0.015079  -0.080718  -0.036732  4.018081  -0.021
C  C141  1  0.38903691  0.18069844  0.96925753  1  -0.016543  -0.024886  -0.069294  -0.076206  -0.025759  3.931491  -0.012
C  C142  1  0.61096704  0.81929707  0.03074332  1  -0.017106  -0.02489  -0.069185  -0.075997  -0.025766  3.931148  -0.012
C  C143  1  0.91893583  0.12631773  0.84351354  1  -0.063684  -0.000592  -0.096882  -0.141109  -0.000575  3.975984  0.0
C  C144  1  0.08105552  0.87367911  0.15649311  1  -0.063942  -0.000592  -0.09695  -0.141285  -0.000575  3.976122  0.0
C  C145  1  0.98694459  0.04514954  0.88528744  1  -0.038975  -7e-06  -0.09434  -0.083482  -5.8e-05  4.01236  0.0
C  C146  1  0.01305370  0.95484972  0.11471694  1  -0.039113  -7e-06  -0.094263  -0.083328  -5.8e-05  4.012341  0.0
C  C147  1  0.98065030  0.94306851  0.89859445  1  -0.061581  -0.002173  -0.090165  -0.072887  -0.002232  3.984302  -0.001
C  C148  1  0.01935415  0.05693319  0.10140611  1  -0.060882  -0.002174  -0.090189  -0.072915  -0.002233  3.984265  -0.001
C  C149  1  0.90742522  0.92268932  0.86890216  1  0.016622  2e-05  -0.095471  -0.084132  -8.3e-05  4.017469  0.0
C  C150  1  0.09258077  0.07730856  0.13109733  1  0.016668  2.1e-05  -0.095543  -0.084283  -8.4e-05  4.017583  0.0
C  C151  1  0.83889956  0.00387322  0.82802061  1  -0.080739  -0.000399  -0.096268  -0.131356  -0.000459  3.964103  0.0
C  C152  1  0.16110306  0.99611986  0.17198554  1  -0.079921  -0.000399  -0.096147  -0.131155  -0.000459  3.964149  0.0
C  C153  1  0.84218782  0.10728593  0.81574259  1  -0.058984  -1e-06  -0.02157  0.092158  -1.8e-05  4.036707  0.0
C  C154  1  0.15781784  0.89270967  0.18425474  1  -0.059501  -1e-06  -0.021604  0.092111  -1.8e-05  4.036829  0.0
C  C155  1  0.76756440  0.19486451  0.77732418  1  -0.094855  -0.000493  -0.099236  -0.076613  -0.000516  4.081226  0.0
C  C156  1  0.23244437  0.80513190  0.22267254  1  -0.094915  -0.000493  -0.099123  -0.076536  -0.000515  4.081089  0.0
C  C157  1  0.67282341  0.19030304  0.76975619  1  -0.076846  -0.000189  -0.191521  -0.318931  -0.000322  3.886693  0.0
C  C158  1  0.32718444  0.80969881  0.23023794  1  -0.077018  -0.000188  -0.191555  -0.318822  -0.000322  3.886565  0.0
C  C159  1  0.57221127  0.30976317  0.44261676  1  -0.036649  0.004218  -0.085089  -0.120788  0.003189  3.943706  0.002
C  C160  1  0.42779304  0.69025037  0.55737008  1  -0.035817  0.004217  -0.085076  -0.120787  0.003188  3.94362  0.002
C  C161  1  0.63762032  0.21758264  0.47301717  1  -0.053321  0.002481  -0.088289  -0.072752  0.001408  4.020563  0.001
C  C162  1  0.36237601  0.78242451  0.52697705  1  -0.053395  0.002479  -0.08831  -0.072803  0.001406  4.020756  0.001
C  C163  1  0.67404834  0.14295468  0.42783744  1  -0.125515  0.010855  -0.090314  -0.094999  0.009874  4.019466  0.005
C  C164  1  0.32594772  0.85705314  0.57216200  1  -0.125112  0.010863  -0.090297  -0.094919  0.009875  4.019607  0.005
C  C165  1  0.64360099  0.16198647  0.35223770  1  -0.097588  0.010796  -0.093433  -0.103021  0.009856  4.053244  0.005
C  C166  1  0.35638999  0.83802291  0.64775865  1  -0.098353  0.010794  -0.093553  -0.103093  0.009858  4.053269  0.005
C  C167  1  0.57780810  0.25476461  0.32191878  1  0.004424  0.003888  -0.085504  -0.128786  0.002781  3.960079  0.002
C  C168  1  0.42219379  0.74524425  0.67806906  1  0.00414  0.003884  -0.085489  -0.128791  0.002779  3.960183  0.002
C  C169  1  0.54054281  0.33017844  0.36659803  1  -0.037552  0.002735  -0.006371  0.113881  0.001936  3.99639  0.001
C  C170  1  0.45945393  0.66983105  0.63339535  1  -0.037407  0.002734  -0.00636  0.11388  0.001936  3.996257  0.001
C  C171  1  0.47193177  0.42667271  0.33230126  1  -0.092475  -0.00053  -0.088738  -0.06376  -0.000602  4.047334  0.0
C  C172  1  0.52806290  0.57333528  0.66768907  1  -0.092553  -0.00053  -0.088557  -0.063601  -0.000602  4.047334  0.0
C  C173  1  0.41233826  0.49668344  0.37596672  1  -0.03792  0.002389  -0.181576  -0.310147  0.001965  3.863376  0.001
C  C174  1  0.58766093  0.50332142  0.62402734  1  -0.037433  0.002389  -0.181628  -0.310165  0.001964  3.863495  0.001
N  N175  1  0.49169107  0.98932320  0.38800619  1  -1.210534  -0.012583  -0.374397  -0.364666  -0.027873  3.474208  -0.034
N  N176  1  0.50830127  0.01067755  0.61199776  1  -1.210043  -0.012593  -0.37434  -0.364565  -0.027873  3.473911  -0.034
N  N177  1  0.62615465  0.88251441  0.49844196  1  -1.23489  -0.002032  -0.372479  -0.356833  -0.019734  3.43339  -0.032
N  N178  1  0.37384475  0.11748886  0.50155490  1  -1.234748  -0.002027  -0.372596  -0.356851  -0.019729  3.43352  -0.032
N  N179  1  0.81160555  0.34634575  0.04891013  1  -1.244577  0.000307  -0.325947  -0.212025  0.000247  3.533051  0.0
N  N180  1  0.18840156  0.65365061  0.95108830  1  -1.244247  0.000307  -0.325979  -0.212111  0.000247  3.533086  0.0
N  N181  1  0.63612005  0.15556999  0.03131855  1  -1.159556  0.00185  -0.233406  -0.233526  0.002585  3.567707  0.004
N  N182  1  0.36387639  0.84442152  0.96868642  1  -1.160205  0.001851  -0.233337  -0.233557  0.002586  3.567739  0.004
O  O183  1  0.99765741  0.33405716  0.13295224  1  -1.160372  -9e-06  -0.31562  -0.537315  5e-06  2.288754  0.0
O  O184  1  0.00231638  0.66597460  0.86707566  1  -1.159626  -9e-06  -0.315688  -0.537377  5e-06  2.288947  0.0
O  O185  1  0.12803054  0.44090228  0.05765408  1  -1.186021  -5.7e-05  -0.313994  -0.564539  -4.5e-05  2.39623  0.0
O  O186  1  0.87199466  0.55908599  0.94233184  1  -1.185601  -5.7e-05  -0.314098  -0.56462  -4.5e-05  2.396112  0.0
O  O187  1  0.96052791  0.62191005  0.06044784  1  -1.185726  -1.7e-05  -0.3205  -0.568307  -1e-05  2.360468  0.0
O  O188  1  0.03948284  0.37808048  0.93957383  1  -1.184858  -1.7e-05  -0.320599  -0.568241  -1e-05  2.360266  0.0
O  O189  1  0.83021560  0.51472135  0.13267944  1  -1.154088  -2.7e-05  -0.321636  -0.536848  -1e-05  2.286182  0.0
O  O190  1  0.16977223  0.48529360  0.86730666  1  -1.154596  -2.7e-05  -0.321508  -0.536693  -1e-05  2.286501  0.0
O  O191  1  0.76195620  0.01299865  0.07282206  1  -1.114452  -0.028471  -0.262844  -0.435601  -0.028253  2.170689  -0.024
O  O192  1  0.23804862  0.98700534  0.92717945  1  -1.113993  -0.028505  -0.262893  -0.435748  -0.028287  2.170016  -0.024
O  O193  1  0.50553021  0.29712531  0.99828540  1  -1.107124  -0.02684  -0.279404  -0.44996  -0.026458  2.114735  -0.022
O  O194  1  0.49448072  0.70286599  0.00169741  1  -1.107035  -0.026825  -0.279391  -0.450047  -0.026445  2.114636  -0.022
