# generated using pymatgen
data_AlH8C13SO5
_symmetry_space_group_name_H-M   'P 1'
_cell_length_a   6.85012850
_cell_length_b   12.75608761
_cell_length_c   17.54183365
_cell_angle_alpha   78.79669125
_cell_angle_beta   82.93345285
_cell_angle_gamma   74.50455067
_symmetry_Int_Tables_number   1
_chemical_formula_structural   AlH8C13SO5
_chemical_formula_sum   'Al2 H16 C26 S2 O10'
_cell_volume   1444.85075774
_cell_formula_units_Z   2
loop_
 _symmetry_equiv_pos_site_id
 _symmetry_equiv_pos_as_xyz
  1  'x, y, z'
loop_
 _atom_site_type_symbol
 _atom_site_label
 _atom_site_symmetry_multiplicity
 _atom_site_fract_x
 _atom_site_fract_y
 _atom_site_fract_z
 _atom_site_occupancy
 _atom_site_pbe_bader_charge
 _atom_site_pbe_bader_spin_density
 _atom_site_pbe_cm5_charge
 _atom_site_pbe_ddec_charge
 _atom_site_pbe_ddec_spin_density
 _atom_site_pbe_ddec_sum_bond_order
 _atom_site_pbe_magmom
Al  Al0  1  0.50011355  0.49998075  0.50000016  1  2.51172  0  0.404325  1.656254  0  2.564199  0
Al  Al1  1  0.00008101  0.50000748  0.50001440  1  2.506901  0  0.40448  1.646014  0  2.54946  0
H  H2  1  0.28267293  0.38318885  0.57519712  1  0.596526  0  0.350209  0.428333  0  0.855116  0
H  H3  1  0.71772945  0.61647291  0.42452861  1  0.597123  0  0.350252  0.428451  0  0.85485  0
H  H4  1  0.65319597  0.49036530  0.28128368  1  0.106883  0  0.11  0.116143  0  1.002984  0
H  H5  1  0.73345791  0.48723921  0.13932478  1  0.078335  0  0.096632  0.092198  0  1.087912  0
H  H6  1  0.03151858  0.50426823  0.25524864  1  0.076706  0  0.107926  0.117517  0  1.000496  0
H  H7  1  0.96781927  0.49740508  0.74462500  1  0.075629  0  0.10779  0.117471  0  1.000539  0
H  H8  1  0.34770476  0.50765310  0.71889015  1  0.072949  0  0.110117  0.11683  0  1.002401  0
H  H9  1  0.26748960  0.50993681  0.86094026  1  0.076613  0  0.09644  0.091181  0  1.090183  0
H  H10  1  0.38262496  0.85134564  0.50308009  1  0.132765  0  0.113332  0.13651  0  1.004399  0
H  H11  1  0.61766408  0.14858002  0.49687680  1  0.135135  0  0.113266  0.136293  0  1.00414  0
H  H12  1  0.01721146  0.42685880  0.11093105  1  0.027698  0  0.099451  0.138794  0  0.983926  0
H  H13  1  0.12452217  0.51355937  0.03580386  1  0.080762  0  0.091622  0.129446  0  1.038137  0
H  H14  1  0.93397570  0.57313895  0.10401077  1  0.037231  0  0.099016  0.138471  0  0.988756  0
H  H15  1  0.06358401  0.42739760  0.89744660  1  0.032083  0  0.099321  0.138263  0  0.987961  0
H  H16  1  0.87292255  0.49083152  0.96394392  1  0.055922  0  0.091205  0.128814  0  1.03919  0
H  H17  1  0.98417561  0.57411888  0.88754564  1  0.058519  0  0.098669  0.137142  0  0.983224  0
C  C18  1  0.84563919  0.30423925  0.50217264  1  1.621393  0  0.259775  0.651939  0  4.136901  0
C  C19  1  0.70727002  0.49744507  0.63851463  1  1.557339  0  0.267794  0.647506  0  4.085002  0
C  C20  1  0.15460524  0.69570003  0.49785727  1  1.621843  0  0.260015  0.652402  0  4.136403  0
C  C21  1  0.29291330  0.50254993  0.36148587  1  1.55917  0  0.26805  0.647414  0  4.083769  0
C  C22  1  0.33655300  0.49842423  0.27652919  1  -0.082264  0  -0.015469  -0.042444  0  3.997015  0
C  C23  1  0.53584302  0.49309285  0.24377254  1  -0.041636  0  -0.085858  -0.09518  0  4.004543  0
C  C24  1  0.58029172  0.49166822  0.16493893  1  0.02685  0  -0.091803  -0.135005  0  4.003799  0
C  C25  1  0.42850287  0.49668173  0.11603998  1  0.051714  0  0.001032  0.083968  0  4.079114  0
C  C26  1  0.22747732  0.50073191  0.14873946  1  0.067484  0  0.000484  0.133082  0  3.931237  0
C  C27  1  0.18526325  0.50113784  0.22874939  1  -0.02756  0  -0.081691  -0.154372  0  3.932212  0
C  C28  1  0.47850863  0.49835743  0.03503470  1  0.101633  0  -0.037849  -0.096744  0  4.11035  0
C  C29  1  0.52149657  0.50106204  0.96503147  1  -0.522144  0  -0.038142  -0.096145  0  4.110935  0
C  C30  1  0.57151586  0.50276132  0.88401978  1  0.053594  0  0.001655  0.082755  0  4.081765  0
C  C31  1  0.77202800  0.50000599  0.85120992  1  0.076302  0  -6.4e-05  0.132822  0  3.929982  0
C  C32  1  0.81439318  0.49965462  0.77119267  1  -0.029396  0  -0.08071  -0.152793  0  3.931175  0
C  C33  1  0.66358779  0.50139172  0.72349539  1  -0.070736  0  -0.016225  -0.044684  0  3.999232  0
C  C34  1  0.46471654  0.50555143  0.75636381  1  0.061595  0  -0.085606  -0.095874  0  4.004716  0
C  C35  1  0.42024788  0.50660298  0.83523326  1  -0.051299  0  -0.091822  -0.132661  0  4.006407  0
C  C36  1  0.21891443  0.88259628  0.50138174  1  0.065423  0  -0.08985  -0.137538  0  3.978065  0
C  C37  1  0.78137283  0.11733435  0.49858168  1  0.064773  0  -0.089927  -0.137786  0  3.977997  0
C  C38  1  0.09289828  0.81479839  0.49925931  1  -0.211581  0  -0.022178  -0.12248  0  3.982713  0
C  C39  1  0.90736092  0.18513941  0.50072691  1  -0.214637  0  -0.021795  -0.121686  0  3.982644  0
C  C40  1  0.89440956  0.00724588  0.49879127  1  -0.216079  0  -0.023168  -0.008993  0  4.070458  0
C  C41  1  0.10588941  0.99269771  0.50113764  1  -0.154054  0  -0.02319  -0.009568  0  4.070257  0
C  C42  1  0.06685397  0.50407844  0.09711448  1  -0.070047  0  -0.237093  -0.416259  0  3.970078  0
C  C43  1  0.93202006  0.49773368  0.90279820  1  -0.079671  0  -0.236397  -0.413685  0  3.966877  0
S  S44  1  0.83715277  0.88410410  0.49710098  1  0.240665  0  0.084651  0.117101  0  2.762814  0
S  S45  1  0.16311943  0.11583816  0.50285371  1  0.240612  0  0.08437  0.116953  0  2.762661  0
O  O46  1  0.65615671  0.35006303  0.50103611  1  -1.255135  0  -0.23435  -0.581963  0  2.316733  0
O  O47  1  0.88550932  0.49807468  0.60745119  1  -1.255495  0  -0.238748  -0.593433  0  2.313698  0
O  O48  1  0.01183979  0.64962793  0.49479325  1  -1.259968  0  -0.239418  -0.599426  0  2.345075  0
O  O49  1  0.44230943  0.50799555  0.39616822  1  -1.274424  0  -0.238867  -0.608303  0  2.377983  0
O  O50  1  0.34408136  0.64986079  0.49900761  1  -1.256929  0  -0.23458  -0.582157  0  2.316423  0
O  O51  1  0.11463345  0.50204916  0.39255776  1  -1.256588  0  -0.238853  -0.59387  0  2.313147  0
O  O52  1  0.98836595  0.35033265  0.50526454  1  -1.260038  0  -0.239778  -0.599787  0  2.344621  0
O  O53  1  0.55795282  0.49194811  0.60381671  1  -1.273904  0  -0.238595  -0.608139  0  2.378593  0
O  O54  1  0.26301447  0.44930738  0.53609768  1  -1.402677  0  -0.449849  -0.989493  0  2.155817  0
O  O55  1  0.73718560  0.55065029  0.46389376  1  -1.403627  0  -0.450003  -0.989598  0  2.155806  0
