# generated using pymatgen
data_CdH7C7NO6
_symmetry_space_group_name_H-M   'P 1'
_cell_length_a   7.86203920
_cell_length_b   8.11037524
_cell_length_c   15.91822732
_cell_angle_alpha   89.99998738
_cell_angle_beta   89.99994200
_cell_angle_gamma   114.90529662
_symmetry_Int_Tables_number   1
_chemical_formula_structural   CdH7C7NO6
_chemical_formula_sum   'Cd4 H28 C28 N4 O24'
_cell_volume   920.62036690
_cell_formula_units_Z   4
loop_
 _symmetry_equiv_pos_site_id
 _symmetry_equiv_pos_as_xyz
  1  'x, y, z'
loop_
 _atom_site_type_symbol
 _atom_site_label
 _atom_site_symmetry_multiplicity
 _atom_site_fract_x
 _atom_site_fract_y
 _atom_site_fract_z
 _atom_site_occupancy
 _atom_site_hle17_bader_spin_density
 _atom_site_hle17_ddec_charge
 _atom_site_hle17_ddec_spin_density
 _atom_site_hle17_ddec_sum_bond_order
 _atom_site_hle17_magmom
 _atom_site_hse06_10hf_bader_spin_density
 _atom_site_hse06_10hf_ddec_charge
 _atom_site_hse06_10hf_ddec_spin_density
 _atom_site_hse06_10hf_ddec_sum_bond_order
 _atom_site_hse06_10hf_magmom
 _atom_site_hse06_bader_spin_density
 _atom_site_hse06_ddec_charge
 _atom_site_hse06_ddec_spin_density
 _atom_site_hse06_ddec_sum_bond_order
 _atom_site_hse06_magmom
 _atom_site_pbe_bader_spin_density
 _atom_site_pbe_cm5_charge
 _atom_site_pbe_ddec_charge
 _atom_site_pbe_ddec_spin_density
 _atom_site_pbe_ddec_sum_bond_order
 _atom_site_pbe_magmom
Cd  Cd0  1  0.84366515  0.07989739  0.44350583  1  0  1.228971  0  1.612275  0  0  1.050956  0  2.051009  0  0  1.10629  0  1.995159  0  0  0.781289  1.011367  0  2.089427  0
Cd  Cd1  1  0.15633510  0.42010138  0.94350575  1  0  1.228956  0  1.612296  0  0  1.050956  0  2.051029  0  0  1.10629  0  1.995179  0  0  0.781274  1.011362  0  2.089446  0
Cd  Cd2  1  0.15633585  0.92010310  0.55649404  1  0  1.228963  0  1.612321  0  0  1.050946  0  2.051057  0  0  1.10628  0  1.995208  0  0  0.781289  1.011357  0  2.089475  0
Cd  Cd3  1  0.84366473  0.57989638  0.05649474  1  0  1.228993  0  1.612255  0  0  1.051001  0  2.050983  0  0  1.106335  0  1.995134  0  0  0.781299  1.01141  0  2.089399  0
H  H4  1  0.34395614  0.84831741  0.30825655  1  0  0.109388  0  0.935973  0  0  0.121438  0  0.992973  0  0  0.12427  0  0.991194  0  0  0.112813  0.119312  0  0.994362  0
H  H5  1  0.65604560  0.65168304  0.80825689  1  0  0.109404  0  0.935948  0  0  0.12145  0  0.992952  0  0  0.124283  0  0.991171  0  0  0.112818  0.119322  0  0.994342  0
H  H6  1  0.65604151  0.15168713  0.69174457  1  0  0.109419  0  0.93595  0  0  0.121459  0  0.992962  0  0  0.124293  0  0.991182  0  0  0.112815  0.119332  0  0.99435  0
H  H7  1  0.34395805  0.34831474  0.19174424  1  0  0.109389  0  0.935968  0  0  0.121443  0  0.992967  0  0  0.124276  0  0.991188  0  0  0.112811  0.119317  0  0.994355  0
H  H8  1  0.47672958  0.61766176  0.31481694  1  0  0.122062  0  0.934547  0  0  0.133142  0  0.988537  0  0  0.136726  0  0.98696  0  0  0.117301  0.130553  0  0.989846  0
H  H9  1  0.52327273  0.88234004  0.81481794  1  0  0.12212  0  0.934493  0  0  0.133145  0  0.988543  0  0  0.136729  0  0.986966  0  0  0.117303  0.130556  0  0.989853  0
H  H10  1  0.52327180  0.38234551  0.68518167  1  0  0.122043  0  0.934563  0  0  0.133104  0  0.988578  0  0  0.136688  0  0.987002  0  0  0.117283  0.130515  0  0.989887  0
H  H11  1  0.47672906  0.11765638  0.18518256  1  0  0.122084  0  0.934528  0  0  0.133118  0  0.988574  0  0  0.136703  0  0.986997  0  0  0.11728  0.130529  0  0.989886  0
H  H12  1  0.28064172  0.31100287  0.37640552  1  0  0.09174  0  0.934771  0  0  0.100204  0  0.997175  0  0  0.103678  0  0.993501  0  0  0.120289  0.097592  0  0.999971  0
H  H13  1  0.71936117  0.18899873  0.87640644  1  0  0.091774  0  0.934699  0  0  0.100219  0  0.997121  0  0  0.103693  0  0.993448  0  0  0.120288  0.097606  0  0.999916  0
H  H14  1  0.71936428  0.68900036  0.62359120  1  0  0.091746  0  0.934771  0  0  0.100198  0  0.997188  0  0  0.103671  0  0.993515  0  0  0.120276  0.097586  0  0.999984  0
H  H15  1  0.28063925  0.81100039  0.12359279  1  0  0.091752  0  0.934753  0  0  0.100206  0  0.997171  0  0  0.103679  0  0.993498  0  0  0.120269  0.097594  0  0.999966  0
H  H16  1  0.78592063  0.93191407  0.29271199  1  0  0.406773  0  0.907258  0  0  0.374027  0  0.974289  0  0  0.38548  0  0.957866  0  0  0.279446  0.366  0  0.985761  0
H  H17  1  0.21408046  0.56808776  0.79271193  1  0  0.406778  0  0.907252  0  0  0.374022  0  0.974298  0  0  0.385475  0  0.957876  0  0  0.279445  0.365994  0  0.985772  0
H  H18  1  0.21407840  0.06808776  0.70728913  1  0  0.406752  0  0.907284  0  0  0.373995  0  0.974332  0  0  0.385448  0  0.957909  0  0  0.279432  0.365967  0  0.985804  0
H  H19  1  0.78592112  0.43191408  0.20728857  1  0  0.406775  0  0.907255  0  0  0.374016  0  0.974307  0  0  0.385469  0  0.957884  0  0  0.279448  0.365988  0  0.98578  0
H  H20  1  0.78983025  0.12244592  0.27059588  1  0  0.416961  0  0.889723  0  0  0.383328  0  0.958181  0  0  0.394506  0  0.942147  0  0  0.281791  0.375449  0  0.969446  0
H  H21  1  0.21016910  0.37755583  0.77059641  1  0  0.416994  0  0.889674  0  0  0.383365  0  0.958123  0  0  0.394543  0  0.94209  0  0  0.281828  0.375487  0  0.969387  0
H  H22  1  0.21017006  0.87755592  0.72940461  1  0  0.416984  0  0.88968  0  0  0.383351  0  0.958138  0  0  0.394529  0  0.942105  0  0  0.281819  0.375473  0  0.969402  0
H  H23  1  0.78982935  0.62244465  0.22940408  1  0  0.416979  0  0.889697  0  0  0.383343  0  0.958159  0  0  0.394521  0  0.942125  0  0  0.281804  0.375465  0  0.969423  0
H  H24  1  0.65315229  0.70081571  0.46596437  1  0  0.436342  0  0.864522  0  0  0.403725  0  0.931391  0  0  0.414128  0  0.916353  0  0  0.295262  0.39634  0  0.942054  0
H  H25  1  0.34684392  0.79918447  0.96596484  1  0  0.436318  0  0.864561  0  0  0.403708  0  0.931422  0  0  0.414112  0  0.916383  0  0  0.295231  0.396324  0  0.942083  0
H  H26  1  0.34684361  0.29918475  0.53403486  1  0  0.436311  0  0.864565  0  0  0.403703  0  0.931424  0  0  0.414105  0  0.916386  0  0  0.295241  0.396318  0  0.942085  0
H  H27  1  0.65315394  0.20081464  0.03403628  1  0  0.436366  0  0.864481  0  0  0.403755  0  0.93134  0  0  0.414158  0  0.916303  0  0  0.295268  0.396371  0  0.942001  0
H  H28  1  0.51144847  0.77390874  0.50938946  1  0  0.432661  0  0.873342  0  0  0.398678  0  0.940303  0  0  0.410902  0  0.922721  0  0  0.286065  0.390029  0  0.952708  0
H  H29  1  0.48855027  0.72609216  0.00938970  1  0  0.4327  0  0.873284  0  0  0.398691  0  0.940285  0  0  0.410915  0  0.922702  0  0  0.286052  0.39004  0  0.952691  0
H  H30  1  0.48854998  0.22609173  0.49061103  1  0  0.432686  0  0.873309  0  0  0.39867  0  0.940319  0  0  0.410894  0  0.922737  0  0  0.28605  0.39002  0  0.952724  0
H  H31  1  0.51144946  0.27390832  0.99061079  1  0  0.432679  0  0.873313  0  0  0.39869  0  0.940285  0  0  0.410914  0  0.922703  0  0  0.286058  0.390039  0  0.952692  0
C  C32  1  0.97534940  0.48902032  0.39307302  1  0  0.075277  0  3.729649  0  0  0.066991  0  3.97819  0  0  0.069136  0  3.997156  0  0  0.109547  0.065398  0  3.965601  0
C  C33  1  0.02465472  0.01098126  0.89307431  1  0  0.075359  0  3.729592  0  0  0.067107  0  3.978113  0  0  0.069253  0  3.997077  0  0  0.109589  0.065513  0  3.965522  0
C  C34  1  0.02465033  0.51098016  0.60692433  1  0  0.075375  0  3.729443  0  0  0.067136  0  3.977965  0  0  0.069283  0  3.996929  0  0  0.109602  0.065541  0  3.965377  0
C  C35  1  0.97534697  0.98901787  0.10692618  1  0  0.075269  0  3.729568  0  0  0.067004  0  3.978096  0  0  0.06915  0  3.99706  0  0  0.109569  0.065412  0  3.965506  0
C  C36  1  0.07574539  0.66428096  0.36063872  1  0  -0.094576  0  3.695953  0  0  -0.07851  0  3.939573  0  0  -0.085781  0  3.958169  0  0  0.001096  -0.0741  0  3.927573  0
C  C37  1  0.92425680  0.83572077  0.86063890  1  0  -0.094626  0  3.695877  0  0  -0.078635  0  3.9396  0  0  -0.085905  0  3.958193  0  0  0.001056  -0.074224  0  3.927596  0
C  C38  1  0.92425121  0.33571815  0.63936115  1  0  -0.094757  0  3.695931  0  0  -0.078765  0  3.939607  0  0  -0.086036  0  3.9582  0  0  0.000995  -0.07436  0  3.927616  0
C  C39  1  0.07574733  0.16428108  0.13936097  1  0  -0.09467  0  3.695952  0  0  -0.078616  0  3.939574  0  0  -0.085887  0  3.958168  0  0  0.001047  -0.074211  0  3.927584  0
C  C40  1  0.25890939  0.71198192  0.33191562  1  0  -0.010095  0  3.657363  0  0  -0.039022  0  3.906233  0  0  -0.035559  0  3.922474  0  0  -0.056853  -0.041058  0  3.895366  0
C  C41  1  0.74109033  0.78801984  0.83191590  1  0  -0.01009  0  3.657446  0  0  -0.038984  0  3.906302  0  0  -0.035522  0  3.922543  0  0  -0.056841  -0.04102  0  3.895435  0
C  C42  1  0.74108827  0.28802262  0.66808424  1  0  -0.010081  0  3.657512  0  0  -0.038986  0  3.906407  0  0  -0.035528  0  3.922652  0  0  -0.056825  -0.041019  0  3.895536  0
C  C43  1  0.25891078  0.21197793  0.16808459  1  0  -0.010074  0  3.657489  0  0  -0.038992  0  3.906363  0  0  -0.035533  0  3.922607  0  0  -0.056834  -0.041027  0  3.895497  0
C  C44  1  0.33429519  0.58479534  0.33578727  1  0  -0.082516  0  3.674159  0  0  -0.09684  0  3.931757  0  0  -0.101084  0  3.948586  0  0  -0.068191  -0.094267  0  3.920656  0
C  C45  1  0.66570648  0.91520508  0.83578757  1  0  -0.082572  0  3.674344  0  0  -0.096851  0  3.931915  0  0  -0.101095  0  3.948744  0  0  -0.06818  -0.094281  0  3.920817  0
C  C46  1  0.66570502  0.41520921  0.66421133  1  0  -0.082419  0  3.674348  0  0  -0.096726  0  3.931943  0  0  -0.10097  0  3.948775  0  0  -0.06812  -0.094154  0  3.920838  0
C  C47  1  0.33429590  0.08479270  0.16421229  1  0  -0.082459  0  3.674296  0  0  -0.096758  0  3.931913  0  0  -0.101002  0  3.948744  0  0  -0.06813  -0.094187  0  3.920814  0
C  C48  1  0.22609358  0.41355360  0.36949898  1  0  0.148328  0  3.677579  0  0  0.108405  0  3.946756  0  0  0.116691  0  3.961386  0  0  0.053909  0.102881  0  3.936868  0
C  C49  1  0.77390757  0.08644393  0.86949926  1  0  0.148317  0  3.677598  0  0  0.108414  0  3.946747  0  0  0.116699  0  3.961378  0  0  0.053918  0.102889  0  3.936857  0
C  C50  1  0.77390801  0.58644824  0.63049963  1  0  0.148232  0  3.677688  0  0  0.108317  0  3.946864  0  0  0.116603  0  3.961494  0  0  0.053868  0.102792  0  3.936973  0
C  C51  1  0.22608923  0.91354975  0.13050186  1  0  0.148243  0  3.677705  0  0  0.108332  0  3.946885  0  0  0.116617  0  3.961515  0  0  0.053892  0.102808  0  3.936995  0
C  C52  1  0.77675466  0.42934935  0.42515202  1  0  0.62879  0  3.909771  0  0  0.571609  0  4.213252  0  0  0.604944  0  4.206717  0  0  0.212781  0.548999  0  4.21689  0
C  C53  1  0.22324231  0.07065350  0.92515384  1  0  0.628621  0  3.909549  0  0  0.571468  0  4.213035  0  0  0.604803  0  4.206503  0  0  0.21271  0.548859  0  4.21667  0
C  C54  1  0.22324507  0.57065113  0.57484533  1  0  0.628655  0  3.909535  0  0  0.571446  0  4.21311  0  0  0.60478  0  4.206581  0  0  0.212671  0.548839  0  4.216743  0
C  C55  1  0.77675407  0.92935103  0.07484791  1  0  0.628762  0  3.909893  0  0  0.571572  0  4.213387  0  0  0.604906  0  4.206853  0  0  0.212731  0.548961  0  4.217026  0
C  C56  1  0.99329149  0.80151415  0.35639052  1  0  0.702598  0  3.877851  0  0  0.637732  0  4.186582  0  0  0.675199  0  4.175404  0  0  0.224612  0.6121  0  4.193551  0
C  C57  1  0.00670630  0.69848621  0.85639054  1  0  0.702633  0  3.877823  0  0  0.637769  0  4.186599  0  0  0.675236  0  4.175421  0  0  0.224626  0.612135  0  4.193566  0
C  C58  1  0.00670569  0.19848632  0.64360997  1  0  0.702618  0  3.878028  0  0  0.63782  0  4.186679  0  0  0.675288  0  4.1755  0  0  0.224627  0.612187  0  4.193646  0
C  C59  1  0.99329284  0.30151291  0.14360995  1  0  0.702656  0  3.877934  0  0  0.63783  0  4.18663  0  0  0.675296  0  4.17545  0  0  0.224625  0.612197  0  4.193599  0
N  N60  1  0.05166997  0.36851554  0.39771134  1  0  -0.358888  0  3.296693  0  0  -0.290421  0  3.569071  0  0  -0.309161  0  3.587396  0  0  -0.325092  -0.277449  0  3.556361  0
N  N61  1  0.94833099  0.13148466  0.89771215  1  0  -0.358904  0  3.296703  0  0  -0.290447  0  3.569073  0  0  -0.309188  0  3.587399  0  0  -0.325109  -0.277476  0  3.556363  0
N  N62  1  0.94832975  0.63148494  0.60228664  1  0  -0.358835  0  3.296735  0  0  -0.29037  0  3.569101  0  0  -0.309112  0  3.587428  0  0  -0.325083  -0.2774  0  3.556393  0
N  N63  1  0.05166942  0.86851447  0.10228771  1  0  -0.358845  0  3.296797  0  0  -0.290385  0  3.56918  0  0  -0.309125  0  3.587504  0  0  -0.325082  -0.277413  0  3.556468  0
O  O64  1  0.69702403  0.27071681  0.45879901  1  0  -0.650697  0  2.074194  0  0  -0.570993  0  2.31087  0  0  -0.602105  0  2.300455  0  0  -0.316511  -0.549143  0  2.317357  0
O  O65  1  0.30297560  0.22928058  0.95879888  1  0  -0.650616  0  2.074374  0  0  -0.570923  0  2.311042  0  0  -0.602034  0  2.300624  0  0  -0.31647  -0.549074  0  2.317528  0
O  O66  1  0.30297570  0.72928367  0.54120022  1  0  -0.650658  0  2.074285  0  0  -0.570961  0  2.310977  0  0  -0.602072  0  2.300562  0  0  -0.316502  -0.549111  0  2.317463  0
O  O67  1  0.69702492  0.77071583  0.04120098  1  0  -0.650705  0  2.074144  0  0  -0.571011  0  2.310831  0  0  -0.602125  0  2.300416  0  0  -0.316524  -0.549161  0  2.317316  0
O  O68  1  0.70204679  0.53757823  0.41709146  1  0  -0.595454  0  2.001783  0  0  -0.542468  0  2.229641  0  0  -0.567017  0  2.22239  0  0  -0.299126  -0.525229  0  2.234117  0
O  O69  1  0.29795869  0.96241665  0.91709320  1  0  -0.595431  0  2.001388  0  0  -0.542439  0  2.229158  0  0  -0.566992  0  2.221911  0  0  -0.299112  -0.525201  0  2.233631  0
O  O70  1  0.29795256  0.46241546  0.58290714  1  0  -0.595369  0  2.001507  0  0  -0.542359  0  2.22932  0  0  -0.566908  0  2.222074  0  0  -0.299028  -0.525121  0  2.233792  0
O  O71  1  0.70204889  0.03757844  0.08290918  1  0  -0.595416  0  2.001961  0  0  -0.542432  0  2.229826  0  0  -0.56698  0  2.222576  0  0  -0.299075  -0.525193  0  2.234303  0
O  O72  1  0.91094366  0.81032307  0.28949993  1  0  -0.618891  0  2.038155  0  0  -0.552231  0  2.255041  0  0  -0.580499  0  2.247276  0  0  -0.2945  -0.53253  0  2.259962  0
O  O73  1  0.08905803  0.68968013  0.78950117  1  0  -0.618894  0  2.038158  0  0  -0.552245  0  2.255068  0  0  -0.580513  0  2.247304  0  0  -0.294516  -0.532545  0  2.259988  0
O  O74  1  0.08905410  0.18967876  0.71050056  1  0  -0.618825  0  2.038201  0  0  -0.552196  0  2.255066  0  0  -0.580464  0  2.247302  0  0  -0.294493  -0.532493  0  2.259984  0
O  O75  1  0.91094297  0.31032036  0.21050058  1  0  -0.618853  0  2.038143  0  0  -0.552208  0  2.255022  0  0  -0.580477  0  2.247258  0  0  -0.29447  -0.532508  0  2.259943  0
O  O76  1  0.02546214  0.91105153  0.41857042  1  0  -0.6796  0  2.068962  0  0  -0.598959  0  2.341939  0  0  -0.632084  0  2.32739  0  0  -0.322029  -0.575562  0  2.35109  0
O  O77  1  0.97453744  0.58894738  0.91856997  1  0  -0.679608  0  2.068892  0  0  -0.598954  0  2.341847  0  0  -0.632083  0  2.327308  0  0  -0.32203  -0.575564  0  2.351009  0
O  O78  1  0.97453514  0.08894622  0.58143070  1  0  -0.679669  0  2.069045  0  0  -0.599029  0  2.341972  0  0  -0.632153  0  2.327418  0  0  -0.322051  -0.575635  0  2.351127  0
O  O79  1  0.02546239  0.41105038  0.08142989  1  0  -0.679659  0  2.069  0  0  -0.599066  0  2.341992  0  0  -0.632194  0  2.327447  0  0  -0.322073  -0.575673  0  2.351154  0
O  O80  1  0.72172262  0.01252307  0.30595160  1  0  -0.842895  0  1.830631  0  0  -0.784147  0  2.018278  0  0  -0.807348  0  1.984425  0  0  -0.597853  -0.767569  0  2.041563  0
O  O81  1  0.27827605  0.48747726  0.80595208  1  0  -0.842927  0  1.8306  0  0  -0.784174  0  2.018251  0  0  -0.807375  0  1.984399  0  0  -0.597881  -0.7676  0  2.041544  0
O  O82  1  0.27827456  0.98747740  0.69404889  1  0  -0.842884  0  1.830636  0  0  -0.784131  0  2.018297  0  0  -0.807331  0  1.984443  0  0  -0.597861  -0.767563  0  2.041603  0
O  O83  1  0.72172368  0.51252322  0.19404841  1  0  -0.842911  0  1.83063  0  0  -0.784152  0  2.018286  0  0  -0.807353  0  1.984432  0  0  -0.597866  -0.76758  0  2.041583  0
O  O84  1  0.64570357  0.80723781  0.49324002  1  0  -0.866289  0  1.878136  0  0  -0.796647  0  2.082848  0  0  -0.821313  0  2.047662  0  0  -0.596039  -0.779099  0  2.107278  0
O  O85  1  0.35429512  0.69276235  0.99323987  1  0  -0.86632  0  1.878158  0  0  -0.796658  0  2.082878  0  0  -0.821321  0  2.047679  0  0  -0.596015  -0.779111  0  2.107309  0
O  O86  1  0.35429616  0.19276267  0.50676047  1  0  -0.86629  0  1.878176  0  0  -0.796628  0  2.082911  0  0  -0.821298  0  2.047729  0  0  -0.596014  -0.779081  0  2.107341  0
O  O87  1  0.64570460  0.30723813  0.00676063  1  0  -0.866331  0  1.878097  0  0  -0.796683  0  2.082794  0  0  -0.821347  0  2.047605  0  0  -0.596028  -0.779136  0  2.107224  0
