# generated using pymatgen
data_HgH8C12(BrN)2
_symmetry_space_group_name_H-M   'P 1'
_cell_length_a   9.30007373
_cell_length_b   8.73933452
_cell_length_c   9.38653327
_cell_angle_alpha   67.36914546
_cell_angle_beta   63.55463888
_cell_angle_gamma   83.66427350
_symmetry_Int_Tables_number   1
_chemical_formula_structural   HgH8C12(BrN)2
_chemical_formula_sum   'Hg2 H16 C24 Br4 N4'
_cell_volume   628.75846143
_cell_formula_units_Z   2
loop_
 _symmetry_equiv_pos_site_id
 _symmetry_equiv_pos_as_xyz
  1  'x, y, z'
loop_
 _atom_site_type_symbol
 _atom_site_label
 _atom_site_symmetry_multiplicity
 _atom_site_fract_x
 _atom_site_fract_y
 _atom_site_fract_z
 _atom_site_occupancy
 _atom_site_pbe_bader_spin_density
 _atom_site_pbe_cm5_charge
 _atom_site_pbe_ddec_charge
 _atom_site_pbe_ddec_spin_density
 _atom_site_pbe_ddec_sum_bond_order
 _atom_site_pbe_magmom
Hg  Hg0  1  0.25005140  0.00142857  0.49787661  1  0  0.451901  0.473501  0  2.46043  0
Hg  Hg1  1  0.74993757  0.99857222  0.50212388  1  0  0.451932  0.473518  0  2.460266  0
H  H2  1  0.24121368  0.89716072  0.22079427  1  0  0.084426  0.090933  0  1.071527  0
H  H3  1  0.75878832  0.10283881  0.77921773  1  0  0.084434  0.090946  0  1.071548  0
H  H4  1  0.38156373  0.68673279  0.68966417  1  0  0.081104  0.090583  0  1.077487  0
H  H5  1  0.61843285  0.31326227  0.31033943  1  0  0.081082  0.090564  0  1.077448  0
H  H6  1  0.25852851  0.10599388  0.77485039  1  0  0.084845  0.090916  0  1.069719  0
H  H7  1  0.74146404  0.89400739  0.22515634  1  0  0.084838  0.090875  0  1.069643  0
H  H8  1  0.11826229  0.31646745  0.30628090  1  0  0.081571  0.091278  0  1.079322  0
H  H9  1  0.88174676  0.68353393  0.69370662  1  0  0.081528  0.091236  0  1.0793  0
H  H10  1  0.14319033  0.84538327  0.03487397  1  0  0.08763  0.091306  0  1.038764  0
H  H11  1  0.85682133  0.15462976  0.96511676  1  0  0.087629  0.0913  0  1.038826  0
H  H12  1  0.41568730  0.44619933  0.91929044  1  0  0.095513  0.098495  0  1.01291  0
H  H13  1  0.58431437  0.55379086  0.08071027  1  0  0.095517  0.098541  0  1.012765  0
H  H14  1  0.08353948  0.55694827  0.07687898  1  0  0.095617  0.099509  0  1.011471  0
H  H15  1  0.91648430  0.44306115  0.92309969  1  0  0.095641  0.099468  0  1.011473  0
H  H16  1  0.35600356  0.15769986  0.96130639  1  0  0.087808  0.092078  0  1.037869  0
H  H17  1  0.64400219  0.84228568  0.03869810  1  0  0.087818  0.092071  0  1.037864  0
C  C18  1  0.21406484  0.77129060  0.23840647  1  0  -0.095933  -0.151337  0  3.952402  0
C  C19  1  0.78593957  0.22870995  0.76159683  1  0  -0.095904  -0.151353  0  3.952538  0
C  C20  1  0.29942101  0.53531416  0.59971943  1  0  0.115511  0.17286  0  4.003888  0
C  C21  1  0.70056736  0.46467926  0.40028632  1  0  0.11558  0.172944  0  4.00379  0
C  C22  1  0.23378994  0.63664119  0.37254217  1  0  0.115445  0.176705  0  3.998858  0
C  C23  1  0.76621115  0.36335164  0.62746198  1  0  0.115455  0.176769  0  3.998739  0
C  C24  1  0.35380863  0.56010295  0.70957282  1  0  -0.095028  -0.155116  0  3.960201  0
C  C25  1  0.64618276  0.43989450  0.29043469  1  0  -0.095068  -0.155072  0  3.960322  0
C  C26  1  0.28555903  0.23183794  0.75746318  1  0  -0.096377  -0.150709  0  3.951463  0
C  C27  1  0.71444205  0.76815456  0.24253357  1  0  -0.096304  -0.150612  0  3.951383  0
C  C28  1  0.14568863  0.44313372  0.28651670  1  0  -0.096908  -0.156645  0  3.960418  0
C  C29  1  0.85431637  0.55686887  0.71347483  1  0  -0.096852  -0.156649  0  3.960562  0
C  C30  1  0.20016968  0.46797235  0.39626092  1  0  0.116259  0.172794  0  4.003349  0
C  C31  1  0.79982354  0.53202877  0.60374135  1  0  0.116205  0.172752  0  4.003166  0
C  C32  1  0.26589076  0.36663302  0.62335456  1  0  0.115674  0.174799  0  3.999907  0
C  C33  1  0.73410701  0.63336677  0.37664034  1  0  0.115636  0.174766  0  3.999612  0
C  C34  1  0.16107757  0.74192479  0.13551852  1  0  -0.090782  -0.050609  0  3.977607  0
C  C35  1  0.83893563  0.25808854  0.86447699  1  0  -0.090796  -0.050627  0  3.977903  0
C  C36  1  0.37322516  0.42643473  0.83606865  1  0  -0.086092  -0.055474  0  3.969802  0
C  C37  1  0.62677498  0.57355548  0.16393468  1  0  -0.086072  -0.055605  0  3.969929  0
C  C38  1  0.12597771  0.57669595  0.16014938  1  0  -0.085064  -0.056236  0  3.970587  0
C  C39  1  0.87403965  0.42331457  0.83983409  1  0  -0.085121  -0.056173  0  3.970828  0
C  C40  1  0.33820237  0.26117825  0.86059907  1  0  -0.08956  -0.051911  0  3.978567  0
C  C41  1  0.66179445  0.73880457  0.13941252  1  0  -0.089628  -0.051936  0  3.978817  0
Br  Br42  1  0.47719025  0.13206646  0.21345574  1  0  -0.142925  -0.243444  0  1.467732  0
Br  Br43  1  0.52278460  0.86796245  0.78654346  1  0  -0.142947  -0.243459  0  1.467695  0
Br  Br44  1  0.02362733  0.87009656  0.78285969  1  0  -0.142677  -0.243692  0  1.469114  0
Br  Br45  1  0.97637403  0.12990904  0.21714795  1  0  -0.142695  -0.243707  0  1.469083  0
N  N46  1  0.28215864  0.66700604  0.47520977  1  0  -0.295731  -0.300723  0  3.345742  0
N  N47  1  0.71783773  0.33299283  0.52479455  1  0  -0.295716  -0.300758  0  3.345754  0
N  N48  1  0.21749755  0.33625857  0.52073072  1  0  -0.296241  -0.299876  0  3.343204  0
N  N49  1  0.78249230  0.66373859  0.47927201  1  0  -0.296178  -0.299784  0  3.342877  0
