# generated using pymatgen
data_ZnH14C13N4Cl2O
_symmetry_space_group_name_H-M   'P 1'
_cell_length_a   4.60920575
_cell_length_b   12.08519002
_cell_length_c   13.64814626
_cell_angle_alpha   107.08160758
_cell_angle_beta   90.00000139
_cell_angle_gamma   89.99993949
_symmetry_Int_Tables_number   1
_chemical_formula_structural   ZnH14C13N4Cl2O
_chemical_formula_sum   'Zn2 H28 C26 N8 Cl4 O2'
_cell_volume   726.70803657
_cell_formula_units_Z   2
loop_
 _symmetry_equiv_pos_site_id
 _symmetry_equiv_pos_as_xyz
  1  'x, y, z'
loop_
 _atom_site_type_symbol
 _atom_site_label
 _atom_site_symmetry_multiplicity
 _atom_site_fract_x
 _atom_site_fract_y
 _atom_site_fract_z
 _atom_site_occupancy
 _atom_site_hle17_bader_spin_density
 _atom_site_hle17_ddec_charge
 _atom_site_hle17_ddec_spin_density
 _atom_site_hle17_ddec_sum_bond_order
 _atom_site_hle17_magmom
 _atom_site_hse06_10hf_bader_spin_density
 _atom_site_hse06_10hf_ddec_charge
 _atom_site_hse06_10hf_ddec_spin_density
 _atom_site_hse06_10hf_ddec_sum_bond_order
 _atom_site_hse06_10hf_magmom
 _atom_site_hse06_bader_spin_density
 _atom_site_hse06_ddec_charge
 _atom_site_hse06_ddec_spin_density
 _atom_site_hse06_ddec_sum_bond_order
 _atom_site_hse06_magmom
 _atom_site_pbe_bader_spin_density
 _atom_site_pbe_cm5_charge
 _atom_site_pbe_ddec_charge
 _atom_site_pbe_ddec_spin_density
 _atom_site_pbe_ddec_sum_bond_order
 _atom_site_pbe_magmom
Zn  Zn0  1  0.45156271  0.74999920  0.74999994  1  0  0.861503  0  2.041757  0  0  0.678199  0  2.528259  0  0  0.719302  0  2.483346  0  0  0.56781  0.649893  0  2.558889  0
Zn  Zn1  1  0.54843689  0.24999965  0.25000020  1  0  0.861537  0  2.04176  0  0  0.678234  0  2.528261  0  0  0.719329  0  2.483344  0  0  0.567819  0.649924  0  2.558895  0
H  H2  1  0.18850406  0.96953532  0.74279748  1  0  0.076776  0  0.98479  0  0  0.080883  0  1.058754  0  0  0.083322  0  1.056479  0  0  0.105321  0.079063  0  1.060468  0
H  H3  1  0.18849600  0.53046579  0.75720237  1  0  0.076755  0  0.984796  0  0  0.080857  0  1.058772  0  0  0.083294  0  1.056501  0  0  0.105311  0.079034  0  1.060484  0
H  H4  1  0.81149987  0.03046439  0.25720289  1  0  0.076726  0  0.984786  0  0  0.080828  0  1.058771  0  0  0.083265  0  1.056499  0  0  0.10531  0.079006  0  1.060487  0
H  H5  1  0.81149709  0.46953479  0.24279749  1  0  0.076778  0  0.98479  0  0  0.080884  0  1.058755  0  0  0.083321  0  1.056484  0  0  0.105324  0.079063  0  1.060471  0
H  H6  1  0.83966092  0.03872363  0.63231065  1  0  0.107366  0  0.953598  0  0  0.115566  0  1.015002  0  0  0.1188  0  1.014297  0  0  0.10387  0.113236  0  1.015695  0
H  H7  1  0.83965601  0.46127874  0.86769059  1  0  0.107378  0  0.953612  0  0  0.115547  0  1.015046  0  0  0.11878  0  1.014344  0  0  0.103866  0.113215  0  1.015738  0
H  H8  1  0.16034302  0.96127868  0.36769113  1  0  0.107392  0  0.95362  0  0  0.115594  0  1.015017  0  0  0.118828  0  1.01431  0  0  0.103878  0.113263  0  1.015711  0
H  H9  1  0.16033925  0.53872270  0.13231023  1  0  0.107365  0  0.953623  0  0  0.115568  0  1.015026  0  0  0.1188  0  1.014325  0  0  0.103873  0.113238  0  1.01572  0
H  H10  1  0.67551647  0.89669256  0.46602934  1  0  0.094506  0  0.942904  0  0  0.107578  0  1.000063  0  0  0.110181  0  0.998836  0  0  0.104914  0.105671  0  1.000992  0
H  H11  1  0.67551468  0.60330946  0.03397145  1  0  0.094474  0  0.942935  0  0  0.107542  0  1.000106  0  0  0.110146  0  0.998878  0  0  0.104897  0.105636  0  1.001035  0
H  H12  1  0.32448530  0.10330975  0.53397170  1  0  0.094481  0  0.942924  0  0  0.10755  0  1.000092  0  0  0.110154  0  0.998864  0  0  0.104891  0.105643  0  1.00102  0
H  H13  1  0.32448275  0.39669198  0.96602936  1  0  0.094507  0  0.942924  0  0  0.107573  0  1.000091  0  0  0.110177  0  0.998864  0  0  0.104907  0.105666  0  1.001018  0
H  H14  1  0.20826930  0.63951996  0.54067232  1  0  0.088053  0  0.955672  0  0  0.092848  0  1.026331  0  0  0.095733  0  1.023783  0  0  0.105944  0.090689  0  1.028245  0
H  H15  1  0.20827119  0.86048028  0.95932731  1  0  0.088033  0  0.955628  0  0  0.092839  0  1.026276  0  0  0.095725  0  1.023727  0  0  0.105927  0.090672  0  1.028214  0
H  H16  1  0.79173030  0.36048062  0.45932754  1  0  0.088041  0  0.955648  0  0  0.092838  0  1.026306  0  0  0.095723  0  1.023759  0  0  0.105931  0.090675  0  1.028228  0
H  H17  1  0.79173057  0.13951943  0.04067306  1  0  0.088036  0  0.955647  0  0  0.092823  0  1.026316  0  0  0.095708  0  1.023768  0  0  0.105937  0.09066  0  1.028243  0
H  H18  1  0.02610128  0.61191790  0.36005082  1  0  0.077039  0  0.943379  0  0  0.091267  0  1.010113  0  0  0.091944  0  1.009263  0  0  0.103098  0.090653  0  1.010838  0
H  H19  1  0.02609872  0.88808181  0.13995010  1  0  0.077023  0  0.943393  0  0  0.091252  0  1.01012  0  0  0.09193  0  1.009267  0  0  0.103089  0.090639  0  1.010845  0
H  H20  1  0.97390048  0.38808181  0.63995028  1  0  0.077025  0  0.943389  0  0  0.091253  0  1.010112  0  0  0.091931  0  1.009258  0  0  0.103091  0.090639  0  1.010836  0
H  H21  1  0.97390088  0.11191791  0.86005026  1  0  0.077025  0  0.943393  0  0  0.091214  0  1.010155  0  0  0.09189  0  1.009308  0  0  0.103089  0.090601  0  1.010879  0
H  H22  1  0.68271334  0.60649390  0.41403208  1  0  0.085368  0  0.937672  0  0  0.098978  0  1.006194  0  0  0.099488  0  1.005649  0  0  0.103359  0.098448  0  1.00674  0
H  H23  1  0.68271292  0.89350639  0.08596899  1  0  0.085368  0  0.937689  0  0  0.098981  0  1.006203  0  0  0.099492  0  1.005658  0  0  0.10336  0.098453  0  1.00675  0
H  H24  1  0.31728626  0.39350668  0.58596924  1  0  0.085369  0  0.93768  0  0  0.09898  0  1.006193  0  0  0.099491  0  1.005645  0  0  0.103361  0.098451  0  1.006739  0
H  H25  1  0.31728885  0.10649332  0.91403211  1  0  0.085389  0  0.937621  0  0  0.098985  0  1.006138  0  0  0.099495  0  1.005593  0  0  0.103372  0.098457  0  1.006684  0
H  H26  1  0.47854569  0.71057235  0.31119374  1  0  0.303366  0  0.925067  0  0  0.28379  0  0.991873  0  0  0.292163  0  0.984739  0  0  0.304631  0.277936  0  0.99694  0
H  H27  1  0.47854557  0.78942716  0.18880640  1  0  0.303378  0  0.925061  0  0  0.283805  0  0.99187  0  0  0.292179  0  0.984736  0  0  0.304637  0.277952  0  0.996938  0
H  H28  1  0.52145608  0.28942650  0.68880640  1  0  0.303366  0  0.925063  0  0  0.283796  0  0.991876  0  0  0.292172  0  0.984741  0  0  0.30463  0.277942  0  0.996943  0
H  H29  1  0.52145620  0.21057255  0.81119396  1  0  0.303381  0  0.925052  0  0  0.283799  0  0.991864  0  0  0.292171  0  0.984729  0  0  0.304628  0.277945  0  0.996931  0
C  C30  1  0.10793928  0.91252310  0.67083354  1  0  0.119504  0  3.726897  0  0  0.083624  0  3.978661  0  0  0.090876  0  3.997045  0  0  0.035407  0.078915  0  3.966355  0
C  C31  1  0.10793323  0.58747632  0.82916660  1  0  0.119549  0  3.726872  0  0  0.083687  0  3.978601  0  0  0.090941  0  3.996986  0  0  0.035387  0.078984  0  3.966289  0
C  C32  1  0.89206466  0.08747575  0.32916734  1  0  0.119773  0  3.726755  0  0  0.083896  0  3.978499  0  0  0.09115  0  3.996879  0  0  0.035492  0.079186  0  3.966198  0
C  C33  1  0.89205985  0.41252339  0.17083376  1  0  0.119531  0  3.72686  0  0  0.083654  0  3.978614  0  0  0.090908  0  3.996998  0  0  0.035422  0.078945  0  3.966311  0
C  C34  1  0.91679876  0.94953811  0.60835024  1  0  -0.118935  0  3.753663  0  0  -0.128573  0  4.008304  0  0  -0.136203  0  4.030279  0  0  -0.089497  -0.123779  0  3.993664  0
C  C35  1  0.91678848  0.55046355  0.89165049  1  0  -0.118951  0  3.753817  0  0  -0.128569  0  4.008458  0  0  -0.136199  0  4.030432  0  0  -0.089464  -0.123774  0  3.993816  0
C  C36  1  0.08320952  0.05046333  0.39165131  1  0  -0.119064  0  3.753841  0  0  -0.128706  0  4.00849  0  0  -0.136336  0  4.030461  0  0  -0.089492  -0.123912  0  3.993856  0
C  C37  1  0.08320461  0.44953790  0.10834959  1  0  -0.118989  0  3.753752  0  0  -0.128637  0  4.008401  0  0  -0.136267  0  4.030375  0  0  -0.089532  -0.123843  0  3.993763  0
C  C38  1  0.82614333  0.87065944  0.51682673  1  0  -0.052122  0  3.71185  0  0  -0.080479  0  3.960106  0  0  -0.077534  0  3.979646  0  0  -0.072445  -0.082048  0  3.946785  0
C  C39  1  0.82614152  0.62934313  0.98317423  1  0  -0.052097  0  3.711967  0  0  -0.080417  0  3.960233  0  0  -0.07747  0  3.979768  0  0  -0.07245  -0.081987  0  3.94691  0
C  C40  1  0.17385844  0.12934287  0.48317431  1  0  -0.052083  0  3.711996  0  0  -0.080421  0  3.960259  0  0  -0.077475  0  3.979796  0  0  -0.072458  -0.081989  0  3.946933  0
C  C41  1  0.17385590  0.37065918  0.01682681  1  0  -0.05211  0  3.712006  0  0  -0.080465  0  3.960267  0  0  -0.07752  0  3.979805  0  0  -0.072436  -0.082029  0  3.946939  0
C  C42  1  0.93048033  0.75728863  0.48939661  1  0  0.025704  0  3.713689  0  0  0.050685  0  3.954208  0  0  0.045165  0  3.978416  0  0  -0.006568  0.053948  0  3.938062  0
C  C43  1  0.93048249  0.74271328  0.01060415  1  0  0.02566  0  3.713709  0  0  0.050546  0  3.954366  0  0  0.045024  0  3.97858  0  0  -0.006619  0.053815  0  3.938214  0
C  C44  1  0.06951927  0.24271281  0.51060421  1  0  0.025682  0  3.713699  0  0  0.050615  0  3.954287  0  0  0.045093  0  3.978497  0  0  -0.006578  0.053888  0  3.938129  0
C  C45  1  0.06952145  0.25728817  0.98939593  1  0  0.02569  0  3.713733  0  0  0.050682  0  3.954224  0  0  0.045162  0  3.978436  0  0  -0.006574  0.053946  0  3.938077  0
C  C46  1  0.12057294  0.72702431  0.55701180  1  0  0.08673  0  3.673461  0  0  0.048745  0  3.917434  0  0  0.055337  0  3.935746  0  0  0.043442  0.044534  0  3.905198  0
C  C47  1  0.12057291  0.77297597  0.94298636  1  0  0.086812  0  3.673491  0  0  0.048846  0  3.917506  0  0  0.055439  0  3.935818  0  0  0.043498  0.04463  0  3.90527  0
C  C48  1  0.87942665  0.27297541  0.44298636  1  0  0.086726  0  3.673657  0  0  0.04874  0  3.917676  0  0  0.055332  0  3.935986  0  0  0.04343  0.044524  0  3.905435  0
C  C49  1  0.87942886  0.22702374  0.05701254  1  0  0.086754  0  3.673434  0  0  0.048768  0  3.917434  0  0  0.055361  0  3.935744  0  0  0.043451  0.044555  0  3.905198  0
C  C50  1  0.83697627  0.66548834  0.39313349  1  0  0.018784  0  3.707529  0  0  -0.048662  0  3.967335  0  0  -0.042666  0  3.977742  0  0  -0.058186  -0.052451  0  3.960285  0
C  C51  1  0.83697819  0.83451274  0.10686779  1  0  0.018803  0  3.707559  0  0  -0.0486  0  3.967369  0  0  -0.042605  0  3.97778  0  0  -0.058169  -0.052389  0  3.96032  0
C  C52  1  0.16302332  0.33451223  0.60686783  1  0  0.018806  0  3.707542  0  0  -0.048587  0  3.967335  0  0  -0.042589  0  3.977744  0  0  -0.05817  -0.052379  0  3.96028  0
C  C53  1  0.16302575  0.16548784  0.89313354  1  0  0.01882  0  3.707504  0  0  -0.048569  0  3.967274  0  0  -0.042582  0  3.977693  0  0  -0.058164  -0.052357  0  3.960221  0
C  C54  1  0.85726815  0.74999664  0.24999779  1  0  0.711422  0  3.910712  0  0  0.640893  0  4.218424  0  0  0.674699  0  4.214695  0  0  0.325948  0.618179  0  4.220085  0
C  C55  1  0.14273362  0.24999701  0.74999806  1  0  0.711349  0  3.910761  0  0  0.640818  0  4.218485  0  0  0.674626  0  4.214755  0  0  0.325911  0.618103  0  4.220141  0
N  N56  1  0.20568295  0.80278469  0.64571111  1  0  -0.322694  0  3.367477  0  0  -0.233159  0  3.639149  0  0  -0.252954  0  3.65683  0  0  -0.335526  -0.219915  0  3.627047  0
N  N57  1  0.20568094  0.69721469  0.85428755  1  0  -0.32272  0  3.367538  0  0  -0.23319  0  3.639219  0  0  -0.252984  0  3.656889  0  0  -0.335508  -0.219946  0  3.627118  0
N  N58  1  0.79431881  0.19721416  0.35428829  1  0  -0.322823  0  3.367756  0  0  -0.233278  0  3.63943  0  0  -0.253074  0  3.657114  0  0  -0.335556  -0.220027  0  3.627327  0
N  N59  1  0.79431648  0.30278416  0.14571112  1  0  -0.322682  0  3.367479  0  0  -0.233151  0  3.639171  0  0  -0.252941  0  3.656838  0  0  -0.335523  -0.219909  0  3.627077  0
N  N60  1  0.70006759  0.70877210  0.31636286  1  0  -0.491755  0  3.302044  0  0  -0.433421  0  3.561006  0  0  -0.454273  0  3.565846  0  0  -0.440389  -0.419265  0  3.557368  0
N  N61  1  0.70006747  0.79122731  0.18363652  1  0  -0.491816  0  3.302079  0  0  -0.433506  0  3.561062  0  0  -0.454363  0  3.565905  0  0  -0.440424  -0.419353  0  3.557429  0
N  N62  1  0.29993201  0.29122761  0.68363677  1  0  -0.491738  0  3.302093  0  0  -0.433466  0  3.561103  0  0  -0.45433  0  3.56595  0  0  -0.440389  -0.419311  0  3.557464  0
N  N63  1  0.29993213  0.20877240  0.81636311  1  0  -0.49181  0  3.3021  0  0  -0.433461  0  3.561038  0  0  -0.454308  0  3.565872  0  0  -0.440402  -0.419306  0  3.557398  0
Cl  Cl64  1  0.65072261  0.91460659  0.85086392  1  0  -0.555415  0  0.953819  0  0  -0.488874  0  1.236759  0  0  -0.505377  0  1.215505  0  0  -0.292406  -0.476784  0  1.251294  0
Cl  Cl65  1  0.65072088  0.58539260  0.64913543  1  0  -0.555434  0  0.953807  0  0  -0.488894  0  1.236768  0  0  -0.505396  0  1.215509  0  0  -0.292424  -0.47681  0  1.251301  0
Cl  Cl66  1  0.34927699  0.08539226  0.14913549  1  0  -0.555431  0  0.953802  0  0  -0.488884  0  1.23674  0  0  -0.505385  0  1.215485  0  0  -0.292407  -0.47679  0  1.251276  0
Cl  Cl67  1  0.34927654  0.41460625  0.35086325  1  0  -0.55544  0  0.953835  0  0  -0.488885  0  1.236764  0  0  -0.505386  0  1.215508  0  0  -0.292418  -0.476797  0  1.2513  0
O  O68  1  0.13124935  0.74999421  0.24999715  1  0  -0.657397  0  1.951157  0  0  -0.60061  0  2.183083  0  0  -0.621925  0  2.172518  0  0  -0.323642  -0.58569  0  2.189741  0
O  O69  1  0.86875024  0.24999339  0.74999639  1  0  -0.657392  0  1.951161  0  0  -0.600585  0  2.183066  0  0  -0.621902  0  2.172506  0  0  -0.323647  -0.585676  0  2.189743  0
