# generated using pymatgen
data_CdH10C7(IN)2
_symmetry_space_group_name_H-M   'P 1'
_cell_length_a   7.62738787
_cell_length_b   9.90323961
_cell_length_c   14.65654964
_cell_angle_alpha   90.00010554
_cell_angle_beta   92.81659770
_cell_angle_gamma   89.99959568
_symmetry_Int_Tables_number   1
_chemical_formula_structural   CdH10C7(IN)2
_chemical_formula_sum   'Cd4 H40 C28 I8 N8'
_cell_volume   1105.75749862
_cell_formula_units_Z   4
loop_
 _symmetry_equiv_pos_site_id
 _symmetry_equiv_pos_as_xyz
  1  'x, y, z'
loop_
 _atom_site_type_symbol
 _atom_site_label
 _atom_site_symmetry_multiplicity
 _atom_site_fract_x
 _atom_site_fract_y
 _atom_site_fract_z
 _atom_site_occupancy
 _atom_site_pbe_bader_spin_density
 _atom_site_pbe_cm5_charge
 _atom_site_pbe_ddec_charge
 _atom_site_pbe_ddec_spin_density
 _atom_site_pbe_ddec_sum_bond_order
 _atom_site_pbe_magmom
Cd  Cd0  1  0.19403941  0.65418432  0.71892476  1  0  0.496972  0.596477  0  2.467697  0
Cd  Cd1  1  0.30596136  0.15418241  0.28107159  1  0  0.496991  0.596454  0  2.467738  0
Cd  Cd2  1  0.80596542  0.34581731  0.28107548  1  0  0.496984  0.596501  0  2.46765  0
Cd  Cd3  1  0.69403690  0.84581418  0.71892576  1  0  0.496981  0.5965  0  2.467664  0
H  H4  1  0.25984903  0.54199739  0.54882065  1  0  0.261454  0.260488  0  0.99728  0
H  H5  1  0.24015537  0.04199831  0.45117633  1  0  0.261444  0.26046  0  0.997248  0
H  H6  1  0.74015449  0.45800424  0.45118025  1  0  0.261447  0.260484  0  0.997255  0
H  H7  1  0.75984946  0.95800029  0.54882186  1  0  0.261425  0.26045  0  0.99731  0
H  H8  1  0.44790809  0.60017992  0.59434310  1  0  0.262903  0.253148  0  1.009374  0
H  H9  1  0.05209711  0.10018377  0.40565466  1  0  0.262874  0.253089  0  1.009395  0
H  H10  1  0.55209543  0.39982070  0.40565574  1  0  0.26289  0.253103  0  1.009388  0
H  H11  1  0.94790641  0.89981584  0.59434555  1  0  0.262912  0.253123  0  1.009392  0
H  H12  1  0.10789143  0.55193847  0.91038907  1  0  0.09543  0.063691  0  1.055346  0
H  H13  1  0.39211289  0.05193558  0.08961133  1  0  0.095452  0.063704  0  1.055325  0
H  H14  1  0.89211997  0.44806720  0.08961475  1  0  0.095461  0.063721  0  1.055326  0
H  H15  1  0.60787356  0.94806100  0.91038504  1  0  0.095419  0.063703  0  1.055348  0
H  H16  1  0.11937850  0.34951764  0.01503515  1  0  0.086977  0.097841  0  1.06225  0
H  H17  1  0.38062709  0.84951620  0.98496430  1  0  0.086988  0.09785  0  1.062244  0
H  H18  1  0.88062634  0.65048601  0.98496782  1  0  0.086944  0.097756  0  1.062259  0
H  H19  1  0.61936329  0.15047837  0.01503421  1  0  0.087002  0.097831  0  1.062229  0
H  H20  1  0.19135216  0.12412778  0.94849686  1  0  0.098931  0.100113  0  1.005711  0
H  H21  1  0.30865545  0.62412832  0.05150098  1  0  0.09896  0.10014  0  1.005865  0
H  H22  1  0.80864480  0.87587587  0.05150386  1  0  0.098931  0.100115  0  1.005735  0
H  H23  1  0.69134676  0.37586625  0.94849851  1  0  0.098939  0.100098  0  1.005703  0
H  H24  1  0.25535075  0.11027737  0.78327405  1  0  0.091844  0.104912  0  1.047969  0
H  H25  1  0.24465829  0.61027365  0.21672246  1  0  0.091875  0.104931  0  1.047974  0
H  H26  1  0.74464620  0.88972729  0.21672736  1  0  0.091814  0.104882  0  1.047912  0
H  H27  1  0.75534523  0.38972092  0.78327639  1  0  0.091844  0.104912  0  1.047935  0
H  H28  1  0.12478724  0.34339517  0.61838094  1  0  0.089431  0.10779  0  1.010777  0
H  H29  1  0.37521578  0.84339318  0.38161707  1  0  0.089474  0.107858  0  1.010707  0
H  H30  1  0.87521628  0.65660848  0.38161995  1  0  0.089446  0.107808  0  1.010725  0
H  H31  1  0.62478380  0.15660441  0.61837963  1  0  0.089466  0.107824  0  1.010764  0
H  H32  1  0.27205232  0.20911349  0.64267344  1  0  0.087728  0.099082  0  1.027837  0
H  H33  1  0.22794666  0.70911426  0.35732703  1  0  0.087741  0.099137  0  1.027833  0
H  H34  1  0.72794858  0.79089017  0.35732943  1  0  0.087722  0.099096  0  1.027866  0
H  H35  1  0.77205029  0.29088434  0.64267234  1  0  0.087711  0.099056  0  1.027874  0
H  H36  1  0.50267819  0.40717738  0.68111381  1  0  0.093421  0.071227  0  1.022137  0
H  H37  1  0.99732751  0.90718263  0.31888145  1  0  0.09343  0.071251  0  1.022135  0
H  H38  1  0.49732533  0.59282425  0.31888571  1  0  0.093433  0.07126  0  1.022131  0
H  H39  1  0.00267076  0.09281597  0.68112068  1  0  0.093426  0.071235  0  1.022114  0
H  H40  1  0.44976091  0.35462286  0.56714031  1  0  0.085961  0.057955  0  1.007887  0
H  H41  1  0.05023414  0.85462784  0.43285684  1  0  0.085964  0.057958  0  1.007958  0
H  H42  1  0.55023999  0.64537675  0.43285984  1  0  0.085971  0.057967  0  1.007872  0
H  H43  1  0.94976676  0.14537278  0.56714467  1  0  0.085928  0.057932  0  1.00788  0
C  C44  1  0.13865039  0.45107136  0.88538958  1  0  0.031919  0.091055  0  3.964938  0
C  C45  1  0.36134905  0.95106672  0.11460848  1  0  0.031923  0.09111  0  3.964901  0
C  C46  1  0.86135313  0.54893330  0.11461268  1  0  0.031918  0.091059  0  3.964878  0
C  C47  1  0.63863609  0.04892683  0.88538785  1  0  0.032025  0.091106  0  3.965046  0
C  C48  1  0.14516419  0.33955942  0.94292302  1  0  -0.094541  -0.133233  0  3.988529  0
C  C49  1  0.35483886  0.83955972  0.05707431  1  0  -0.094591  -0.133352  0  3.988462  0
C  C50  1  0.85484064  0.66044524  0.05707927  1  0  -0.094492  -0.133119  0  3.988438  0
C  C51  1  0.64515021  0.16044090  0.94292212  1  0  -0.09462  -0.133274  0  3.988463  0
C  C52  1  0.18670931  0.21454360  0.90602427  1  0  -0.070011  -0.007767  0  3.962523  0
C  C53  1  0.31329748  0.71454019  0.09397300  1  0  -0.069968  -0.007645  0  3.962514  0
C  C54  1  0.81329289  0.78546005  0.09397864  1  0  -0.070027  -0.007786  0  3.962691  0
C  C55  1  0.68669815  0.28545438  0.90602292  1  0  -0.069968  -0.007657  0  3.962441  0
C  C56  1  0.22085664  0.20656115  0.81381320  1  0  -0.089493  -0.178217  0  3.932804  0
C  C57  1  0.27914366  0.70655615  0.18618320  1  0  -0.089579  -0.178387  0  3.932811  0
C  C58  1  0.77914294  0.79344351  0.18618691  1  0  -0.089446  -0.178212  0  3.9326  0
C  C59  1  0.72085591  0.29344044  0.81381554  1  0  -0.089535  -0.178282  0  3.93274  0
C  C60  1  0.21043062  0.32286648  0.75933077  1  0  0.118385  0.269631  0  3.902312  0
C  C61  1  0.28956471  0.82286358  0.24066839  1  0  0.118361  0.26964  0  3.902166  0
C  C62  1  0.78956897  0.67713515  0.24067207  1  0  0.118324  0.269588  0  3.90207  0
C  C63  1  0.71042961  0.17712997  0.75933022  1  0  0.118321  0.269521  0  3.902307  0
C  C64  1  0.24445050  0.31499207  0.65921286  1  0  -0.166659  -0.258772  0  3.906807  0
C  C65  1  0.25554884  0.81498962  0.34078571  1  0  -0.16672  -0.258937  0  3.90697  0
C  C66  1  0.75554908  0.68501057  0.34078930  1  0  -0.166651  -0.258764  0  3.90675  0
C  C67  1  0.74444680  0.18500696  0.65921294  1  0  -0.166687  -0.258806  0  3.906915  0
C  C68  1  0.39659496  0.40203787  0.62791871  1  0  -0.081185  0.041153  0  3.881874  0
C  C69  1  0.10340622  0.90203735  0.37207797  1  0  -0.081165  0.041135  0  3.882059  0
C  C70  1  0.60340725  0.59796477  0.37208215  1  0  -0.081209  0.041083  0  3.881998  0
C  C71  1  0.89659336  0.09796125  0.62792214  1  0  -0.081115  0.04122  0  3.881865  0
I  I72  1  0.04161945  0.83799546  0.83984310  1  0  -0.18992  -0.376129  0  1.554373  0
I  I73  1  0.45838231  0.33799239  0.16015829  1  0  -0.189922  -0.376117  0  1.554419  0
I  I74  1  0.95838144  0.16200819  0.16015568  1  0  -0.189914  -0.37611  0  1.554398  0
I  I75  1  0.54162121  0.66200521  0.83984329  1  0  -0.189914  -0.376126  0  1.554417  0
I  I76  1  0.84895963  0.60180961  0.60802496  1  0  -0.233691  -0.456772  0  1.394477  0
I  I77  1  0.65105144  0.10181591  0.39197550  1  0  -0.233693  -0.456755  0  1.394431  0
I  I78  1  0.15104914  0.39818293  0.39197879  1  0  -0.2337  -0.456788  0  1.394475  0
I  I79  1  0.34895602  0.89818774  0.60802208  1  0  -0.233696  -0.456778  0  1.394446  0
N  N80  1  0.16897553  0.44345244  0.79585993  1  0  -0.33522  -0.270581  0  3.461274  0
N  N81  1  0.33102398  0.94345123  0.20413881  1  0  -0.335194  -0.270527  0  3.461129  0
N  N82  1  0.83102931  0.55654919  0.20414236  1  0  -0.335225  -0.270606  0  3.46131  0
N  N83  1  0.66896378  0.05654636  0.79585760  1  0  -0.335224  -0.270559  0  3.461354  0
N  N84  1  0.34097547  0.54152972  0.60700841  1  0  -0.640647  -0.533104  0  3.393206  0
N  N85  1  0.15902762  0.04152992  0.39298921  1  0  -0.640635  -0.532992  0  3.393127  0
N  N86  1  0.65902936  0.45847090  0.39299183  1  0  -0.640617  -0.533024  0  3.393107  0
N  N87  1  0.84097458  0.95846767  0.60701028  1  0  -0.640639  -0.533034  0  3.393245  0
