# generated using pymatgen
data_ZnH20C19(NO)4
_symmetry_space_group_name_H-M   'P 1'
_cell_length_a   10.38907550
_cell_length_b   13.73923104
_cell_length_c   14.24525821
_cell_angle_alpha   89.99940131
_cell_angle_beta   103.13837105
_cell_angle_gamma   90.00026537
_symmetry_Int_Tables_number   1
_chemical_formula_structural   ZnH20C19(NO)4
_chemical_formula_sum   'Zn4 H80 C76 N16 O16'
_cell_volume   1980.11361881
_cell_formula_units_Z   4
loop_
 _symmetry_equiv_pos_site_id
 _symmetry_equiv_pos_as_xyz
  1  'x, y, z'
loop_
 _atom_site_type_symbol
 _atom_site_label
 _atom_site_symmetry_multiplicity
 _atom_site_fract_x
 _atom_site_fract_y
 _atom_site_fract_z
 _atom_site_occupancy
 _atom_site_pbe_bader_charge
 _atom_site_pbe_bader_spin_density
 _atom_site_pbe_cm5_charge
 _atom_site_pbe_ddec_charge
 _atom_site_pbe_ddec_spin_density
 _atom_site_pbe_ddec_sum_bond_order
 _atom_site_pbe_magmom
Zn  Zn0  1  0.75201089  0.68872021  0.02319607  1  1.252589  0  0.686227  0.774742  0  2.418871  0
Zn  Zn1  1  0.24799276  0.18871802  0.47680270  1  1.252554  0  0.686203  0.774723  0  2.418862  0
Zn  Zn2  1  0.24799093  0.31127677  0.97680314  1  1.25258  0  0.686213  0.774731  0  2.418855  0
Zn  Zn3  1  0.75200901  0.81128260  0.52319439  1  1.252439  0  0.686232  0.774723  0  2.418901  0
H  H4  1  0.37015260  0.84308912  0.97782215  1  0.049918  0  0.08913  0.101021  0  1.008427  0
H  H5  1  0.62984656  0.34309680  0.52217986  1  0.049777  0  0.089095  0.100917  0  1.008404  0
H  H6  1  0.62984533  0.15689767  0.02217927  1  0.049723  0  0.089179  0.101034  0  1.008414  0
H  H7  1  0.37015037  0.65691255  0.47782140  1  0.049926  0  0.089138  0.101026  0  1.008427  0
H  H8  1  0.39405543  0.83403079  0.10387984  1  0.032125  0  0.088493  0.09649  0  1.008417  0
H  H9  1  0.60594583  0.33404235  0.39612202  1  0.032053  0  0.088468  0.09646  0  1.008482  0
H  H10  1  0.60594450  0.16595746  0.89612329  1  0.031795  0  0.088487  0.096473  0  1.008455  0
H  H11  1  0.39405210  0.66596628  0.60387940  1  0.03209  0  0.088489  0.096495  0  1.008453  0
H  H12  1  0.25858200  0.68320415  0.08822975  1  0.027395  0  0.082403  0.073687  0  1.038099  0
H  H13  1  0.74141468  0.18321528  0.41176660  1  0.02761  0  0.082363  0.073655  0  1.038158  0
H  H14  1  0.74141097  0.31678701  0.91177020  1  0.027648  0  0.0824  0.073692  0  1.038049  0
H  H15  1  0.25857728  0.81679044  0.58823249  1  0.027684  0  0.082405  0.073676  0  1.038095  0
H  H16  1  0.24463312  0.68059881  0.96370263  1  0.049877  0  0.083397  0.073176  0  1.032316  0
H  H17  1  0.75536737  0.18060459  0.53629560  1  0.049743  0  0.083381  0.073182  0  1.032234  0
H  H18  1  0.75536385  0.31939089  0.03630004  1  0.0497  0  0.083363  0.073162  0  1.032291  0
H  H19  1  0.24462957  0.81940258  0.46370566  1  0.049868  0  0.083413  0.073181  0  1.032222  0
H  H20  1  0.11325353  0.83339255  0.94225354  1  0.023153  0  0.091055  0.102971  0  1.000056  0
H  H21  1  0.88675042  0.33340219  0.55774369  1  0.022758  0  0.091083  0.103017  0  1.000124  0
H  H22  1  0.88674826  0.16659788  0.05774426  1  0.022749  0  0.091089  0.103005  0  1.000159  0
H  H23  1  0.11325234  0.66660426  0.44225356  1  0.023114  0  0.091078  0.102996  0  1.000106  0
H  H24  1  0.13534528  0.84690171  0.06773458  1  0.007522  0  0.085989  0.090212  0  1.024205  0
H  H25  1  0.86466775  0.34690431  0.43226335  1  0.007412  0  0.086075  0.090377  0  1.023982  0
H  H26  1  0.86466046  0.15309601  0.93226383  1  0.007782  0  0.086036  0.0903  0  1.024078  0
H  H27  1  0.13533501  0.65309704  0.56773390  1  0.00748  0  0.085991  0.090256  0  1.024118  0
H  H28  1  0.71258947  0.66010822  0.23666484  1  0.091067  0  0.118502  0.106821  0  1.039205  0
H  H29  1  0.28741708  0.16010702  0.26333607  1  0.090954  0  0.118507  0.106836  0  1.039204  0
H  H30  1  0.28740058  0.33988876  0.76333676  1  0.091404  0  0.118495  0.106777  0  1.039262  0
H  H31  1  0.71258268  0.83988997  0.73665931  1  0.091038  0  0.118491  0.106832  0  1.039252  0
H  H32  1  0.82497319  0.50296509  0.35038667  1  0.13988  0  0.13115  0.136918  0  0.989635  0
H  H33  1  0.17503680  0.00296327  0.14961566  1  0.139901  0  0.131183  0.136888  0  0.989712  0
H  H34  1  0.17502380  0.49703407  0.64961670  1  0.13998  0  0.131148  0.136901  0  0.989727  0
H  H35  1  0.82496596  0.99703153  0.85038159  1  0.139967  0  0.131167  0.136897  0  0.989747  0
H  H36  1  0.91112495  0.48034465  0.07420838  1  0.213145  0  0.145632  0.135432  0  1.007197  0
H  H37  1  0.08887379  0.98034166  0.42579021  1  0.213115  0  0.14561  0.135425  0  1.007163  0
H  H38  1  0.08887795  0.51965888  0.92579521  1  0.213048  0  0.145642  0.135453  0  1.007097  0
H  H39  1  0.91112508  0.01965969  0.57420925  1  0.213093  0  0.14562  0.135447  0  1.007108  0
H  H40  1  0.00764654  0.37120976  0.31691397  1  0.1  0  0.115618  0.113106  0  0.984882  0
H  H41  1  0.99235577  0.87121033  0.18308486  1  0.099999  0  0.115621  0.113087  0  0.984873  0
H  H42  1  0.99235337  0.62879232  0.68308775  1  0.099938  0  0.115642  0.113122  0  0.984863  0
H  H43  1  0.00764217  0.12878811  0.81691726  1  0.099984  0  0.115631  0.11309  0  0.984858  0
H  H44  1  0.00698556  0.35547884  0.19268042  1  0.11686  0  0.117733  0.109475  0  1.008555  0
H  H45  1  0.99300780  0.85547952  0.30731718  1  0.116834  0  0.117703  0.10941  0  1.008591  0
H  H46  1  0.99300937  0.64452106  0.80731912  1  0.116792  0  0.117685  0.10936  0  1.008651  0
H  H47  1  0.00699312  0.14451964  0.69268610  1  0.116888  0  0.117714  0.109451  0  1.008556  0
H  H48  1  0.98813019  0.17951900  0.27557631  1  0.093716  0  0.09835  0.096309  0  1.044625  0
H  H49  1  0.01186853  0.67951646  0.22442390  1  0.093684  0  0.098348  0.096307  0  1.044691  0
H  H50  1  0.01186699  0.82048526  0.72443622  1  0.093669  0  0.098342  0.096275  0  1.044747  0
H  H51  1  0.98813418  0.32048198  0.77557123  1  0.093661  0  0.098332  0.096322  0  1.044686  0
H  H52  1  0.82794807  0.04615978  0.26717632  1  0.079241  0  0.100013  0.098453  0  1.037861  0
H  H53  1  0.17205109  0.54616061  0.23281968  1  0.079173  0  0.100015  0.098454  0  1.037833  0
H  H54  1  0.17204913  0.95384594  0.73283692  1  0.079211  0  0.100086  0.098512  0  1.037778  0
H  H55  1  0.82795257  0.45384001  0.76717349  1  0.079248  0  0.100018  0.09847  0  1.037789  0
H  H56  1  0.50802179  0.25149866  0.18669144  1  0.056536  0  0.098808  0.098421  0  1.032214  0
H  H57  1  0.49197813  0.75150192  0.31330682  1  0.05653  0  0.09883  0.098468  0  1.032179  0
H  H58  1  0.49197497  0.74850269  0.81330137  1  0.056557  0  0.098813  0.098445  0  1.032187  0
H  H59  1  0.50802476  0.24849871  0.68669606  1  0.056575  0  0.098819  0.09842  0  1.032178  0
H  H60  1  0.66804220  0.38427271  0.19395292  1  0.079699  0  0.100519  0.096236  0  1.035928  0
H  H61  1  0.33195634  0.88427185  0.30605151  1  0.07971  0  0.100556  0.096282  0  1.035862  0
H  H62  1  0.33195465  0.61573010  0.80604411  1  0.079777  0  0.100514  0.096198  0  1.035916  0
H  H63  1  0.66804460  0.11572732  0.69395247  1  0.079713  0  0.100545  0.096251  0  1.035889  0
H  H64  1  0.47561980  0.08560758  0.25660685  1  0.093679  0  0.11547  0.098806  0  1.013908  0
H  H65  1  0.52437224  0.58561243  0.24337291  1  0.093571  0  0.11548  0.098842  0  1.013974  0
H  H66  1  0.52437812  0.91439377  0.74339456  1  0.09333  0  0.115485  0.098809  0  1.013878  0
H  H67  1  0.47562945  0.41438892  0.75662066  1  0.093649  0  0.11547  0.098832  0  1.013851  0
H  H68  1  0.50699794  0.04036115  0.14725100  1  0.082  0  0.120497  0.111541  0  0.94843  0
H  H69  1  0.49301184  0.54036325  0.35273617  1  0.082379  0  0.120439  0.111412  0  0.94863  0
H  H70  1  0.49300098  0.95964239  0.85275057  1  0.082089  0  0.120459  0.111518  0  0.948439  0
H  H71  1  0.50699680  0.45963737  0.64725988  1  0.082141  0  0.120478  0.111473  0  0.948571  0
H  H72  1  0.78777656  0.77494333  0.31363694  1  0.103332  0  0.117752  0.10727  0  1.030996  0
H  H73  1  0.21222929  0.27493833  0.18635850  1  0.103248  0  0.117792  0.107301  0  1.030963  0
H  H74  1  0.21222021  0.22505802  0.68635658  1  0.10297  0  0.117744  0.107285  0  1.030937  0
H  H75  1  0.78778132  0.72505793  0.81363715  1  0.103271  0  0.117745  0.10727  0  1.030952  0
H  H76  1  0.66985676  0.89222564  0.15806109  1  0.183766  0  0.125903  0.143353  0  1.015671  0
H  H77  1  0.33014750  0.39222300  0.34193363  1  0.183808  0  0.12592  0.143376  0  1.015704  0
H  H78  1  0.33013911  0.10777935  0.84193650  1  0.18376  0  0.125911  0.143357  0  1.015704  0
H  H79  1  0.66986714  0.60777034  0.65806616  1  0.183755  0  0.125902  0.143341  0  1.015759  0
H  H80  1  0.58630347  0.00495392  0.41595479  1  0.227952  0  0.142774  0.132958  0  1.013804  0
H  H81  1  0.41369244  0.50495793  0.08403411  1  0.227827  0  0.142718  0.132925  0  1.013901  0
H  H82  1  0.41369937  0.99504597  0.58404598  1  0.227944  0  0.142771  0.132946  0  1.013892  0
H  H83  1  0.58631131  0.49504415  0.91596329  1  0.227883  0  0.142768  0.132986  0  1.013842  0
C  C84  1  0.50163776  0.72994106  0.04141819  1  1.512853  0  0.194621  0.616875  0  4.167012  0
C  C85  1  0.49836395  0.22994939  0.45857566  1  1.513357  0  0.194566  0.616777  0  4.166988  0
C  C86  1  0.49835907  0.27004719  0.95857814  1  1.513278  0  0.194456  0.61669  0  4.167064  0
C  C87  1  0.50163391  0.77006069  0.54142294  1  1.512919  0  0.194698  0.616971  0  4.167035  0
C  C88  1  0.37762326  0.79046536  0.03709197  1  -0.049791  0  -0.171924  -0.294085  0  3.949139  0
C  C89  1  0.62238177  0.29047335  0.46290880  1  -0.049291  0  -0.171879  -0.293856  0  3.949001  0
C  C90  1  0.62237764  0.20952434  0.96290991  1  -0.049118  0  -0.171938  -0.293946  0  3.949028  0
C  C91  1  0.37762010  0.70953382  0.53709252  1  -0.049736  0  -0.17194  -0.294093  0  3.94913  0
C  C92  1  0.25205610  0.73010375  0.02507148  1  -0.011956  0  -0.177875  -0.11026  0  3.976437  0
C  C93  1  0.74794673  0.23011423  0.47492815  1  -0.012906  0  -0.177747  -0.110173  0  3.976182  0
C  C94  1  0.74794381  0.26988595  0.97493024  1  -0.012841  0  -0.177748  -0.110173  0  3.976194  0
C  C95  1  0.25204921  0.76989367  0.52507225  1  -0.012491  0  -0.177852  -0.110198  0  3.97628  0
C  C96  1  0.12750803  0.79216968  0.01040189  1  -0.009365  0  -0.171002  -0.287596  0  3.940083  0
C  C97  1  0.87249896  0.29217606  0.48959846  1  -0.008177  0  -0.171136  -0.287869  0  3.939982  0
C  C98  1  0.87249382  0.20782293  0.98959872  1  -0.008572  0  -0.171108  -0.287703  0  3.940033  0
C  C99  1  0.12750086  0.70782747  0.51039973  1  -0.009023  0  -0.171052  -0.287705  0  3.939911  0
C  C100  1  0.00246641  0.73281537  0.00604932  1  1.554643  0  0.192795  0.613453  0  4.169349  0
C  C101  1  0.99753959  0.23281776  0.49395990  1  1.558561  0  0.19286  0.61349  0  4.169051  0
C  C102  1  0.99753257  0.26718162  0.99395506  1  1.554696  0  0.192773  0.613308  0  4.169355  0
C  C103  1  0.00245936  0.76718358  0.50604307  1  1.554694  0  0.192839  0.613467  0  4.169074  0
C  C104  1  0.77173154  0.60029720  0.22058683  1  0.422716  0  -0.00406  -0.045625  0  4.039165  0
C  C105  1  0.22826885  0.10029780  0.27941163  1  0.422698  0  -0.004054  -0.045589  0  4.039249  0
C  C106  1  0.22825946  0.39970196  0.77941281  1  0.422333  0  -0.004048  -0.04548  0  4.039011  0
C  C107  1  0.77173296  0.89970063  0.72058688  1  0.422694  0  -0.004086  -0.045649  0  4.039254  0
C  C108  1  0.82541486  0.52285743  0.27686859  1  0.268231  0  0.004213  -0.113835  0  3.931783  0
C  C109  1  0.17459023  0.02285627  0.22313208  1  0.26831  0  0.004106  -0.113922  0  3.931957  0
C  C110  1  0.17458113  0.47714464  0.72313463  1  0.268402  0  0.004192  -0.113921  0  3.931969  0
C  C111  1  0.82541253  0.97714144  0.77686517  1  0.268208  0  0.004212  -0.113832  0  3.931978  0
C  C112  1  0.87186842  0.51047987  0.13261595  1  0.96349  0  0.158944  0.110454  0  3.835394  0
C  C113  1  0.12813366  0.01047990  0.36738438  1  0.963625  0  0.15905  0.110569  0  3.835256  0
C  C114  1  0.12813349  0.48952148  0.86738749  1  0.963562  0  0.158961  0.1105  0  3.835234  0
C  C115  1  0.87186720  0.98952072  0.63261608  1  0.963609  0  0.159013  0.110497  0  3.835196  0
C  C116  1  0.94416240  0.37027286  0.24351510  1  0.289166  0  -0.04418  -0.127141  0  3.890376  0
C  C117  1  0.05583600  0.87027376  0.25648525  1  0.289215  0  -0.044144  -0.126996  0  3.890308  0
C  C118  1  0.05583555  0.62972849  0.75648702  1  0.289467  0  -0.044151  -0.127004  0  3.89036  0
C  C119  1  0.94416390  0.12972686  0.74351647  1  0.289182  0  -0.044174  -0.127044  0  3.890256  0
C  C120  1  0.84026685  0.29152887  0.23584878  1  -0.030291  0  -0.007839  0.093806  0  3.951511  0
C  C121  1  0.15973231  0.79152932  0.26415388  1  -0.030303  0  -0.007861  0.093752  0  3.951497  0
C  C122  1  0.15973113  0.70847394  0.76415475  1  -0.030361  0  -0.007924  0.093612  0  3.951496  0
C  C123  1  0.84026954  0.20847130  0.73584673  1  -0.030378  0  -0.007806  0.093777  0  3.951492  0
C  C124  1  0.88269951  0.19544704  0.25494338  1  -0.0373  0  -0.089093  -0.115097  0  3.961973  0
C  C125  1  0.11729832  0.69544683  0.24505864  1  -0.037244  0  -0.08904  -0.115015  0  3.961923  0
C  C126  1  0.11729858  0.80455795  0.74506578  1  -0.037032  0  -0.089113  -0.115066  0  3.961946  0
C  C127  1  0.88270149  0.30455452  0.75493885  1  -0.03722  0  -0.089091  -0.115141  0  3.962001  0
C  C128  1  0.79182103  0.11999218  0.24997522  1  -0.044424  0  -0.093043  -0.137071  0  3.993431  0
C  C129  1  0.20817844  0.61999295  0.25002360  1  -0.044393  0  -0.09306  -0.137077  0  3.993352  0
C  C130  1  0.20817901  0.88001281  0.75003284  1  -0.04419  0  -0.093133  -0.137127  0  3.993239  0
C  C131  1  0.79182237  0.38000694  0.74997475  1  -0.044451  0  -0.093034  -0.137018  0  3.993268  0
C  C132  1  0.65595104  0.13905792  0.22587243  1  -0.074663  0  -0.012047  0.081222  0  3.973008  0
C  C133  1  0.34404748  0.63906035  0.27412464  1  -0.075037  0  -0.012045  0.081135  0  3.972999  0
C  C134  1  0.34404587  0.86094343  0.77412742  1  -0.075131  0  -0.011944  0.081237  0  3.973013  0
C  C135  1  0.65595434  0.36093954  0.72587456  1  -0.07511  0  -0.012042  0.081116  0  3.973072  0
C  C136  1  0.61343870  0.23496798  0.20596865  1  -0.037873  0  -0.086752  -0.111047  0  3.954588  0
C  C137  1  0.38656119  0.73496962  0.29403118  1  -0.03748  0  -0.08678  -0.111118  0  3.954613  0
C  C138  1  0.38655821  0.76503337  0.79403120  1  -0.037839  0  -0.086811  -0.111145  0  3.954639  0
C  C139  1  0.61344266  0.26503028  0.70597115  1  -0.037448  0  -0.08681  -0.111072  0  3.954612  0
C  C140  1  0.70444113  0.31041483  0.21061338  1  -0.050346  0  -0.089893  -0.129241  0  3.976351  0
C  C141  1  0.29555813  0.81041475  0.28939121  1  -0.050398  0  -0.089901  -0.129215  0  3.976278  0
C  C142  1  0.29555676  0.68958797  0.78938662  1  -0.050356  0  -0.089797  -0.128994  0  3.97627  0
C  C143  1  0.70444378  0.18958441  0.71061222  1  -0.050381  0  -0.089886  -0.129183  0  3.976332  0
C  C144  1  0.55362095  0.05976002  0.22224658  1  0.303944  0  -0.038386  -0.108838  0  3.902944  0
C  C145  1  0.44637810  0.55976204  0.27774225  1  0.303651  0  -0.038412  -0.108781  0  3.903154  0
C  C146  1  0.44637502  0.94023915  0.77775523  1  0.304622  0  -0.038384  -0.108786  0  3.902978  0
C  C147  1  0.55362660  0.44023858  0.72225389  1  0.303876  0  -0.038402  -0.108757  0  3.90301  0
C  C148  1  0.72701762  0.83927362  0.31105778  1  0.362908  0  -0.006252  -0.049503  0  4.034028  0
C  C149  1  0.27298747  0.33927026  0.18893830  1  0.363072  0  -0.006346  -0.049534  0  4.034109  0
C  C150  1  0.27298215  0.16072845  0.68893760  1  0.363239  0  -0.006321  -0.049585  0  4.033993  0
C  C151  1  0.72702218  0.66072672  0.81105861  1  0.363106  0  -0.006219  -0.049502  0  4.033967  0
C  C152  1  0.67260205  0.89820737  0.23454351  1  0.292707  0  0.00224  -0.111785  0  3.916061  0
C  C153  1  0.32740221  0.39820482  0.26545044  1  0.292816  0  0.002158  -0.111922  0  3.916328  0
C  C154  1  0.32739676  0.10179543  0.76545313  1  0.292777  0  0.002196  -0.11181  0  3.916124  0
C  C155  1  0.67260746  0.60179143  0.73454717  1  0.292733  0  0.00216  -0.111785  0  3.916313  0
C  C156  1  0.62500215  0.95608826  0.36876003  1  0.96426  0  0.156404  0.11027  0  3.834549  0
C  C157  1  0.37499236  0.45609097  0.13122902  1  0.964059  0  0.156455  0.110295  0  3.834702  0
C  C158  1  0.37500167  0.04391236  0.63124019  1  0.963821  0  0.156463  0.110364  0  3.834449  0
C  C159  1  0.62501039  0.54391038  0.86876752  1  0.964167  0  0.156432  0.11034  0  3.834634  0
N  N160  1  0.80215082  0.59210732  0.13151202  1  -1.23383  0  -0.357096  -0.280863  0  3.624418  0
N  N161  1  0.19784951  0.09210831  0.36848511  1  -1.233954  0  -0.357109  -0.280892  0  3.624516  0
N  N162  1  0.19784413  0.40789257  0.86848823  1  -1.233913  0  -0.357106  -0.28095  0  3.624427  0
N  N163  1  0.80214933  0.90789377  0.63151294  1  -1.233925  0  -0.357124  -0.2809  0  3.62436  0
N  N164  1  0.88805805  0.46673899  0.22002170  1  -1.22973  0  -0.240461  0.050747  0  3.779164  0
N  N165  1  0.11194265  0.96673910  0.27997873  1  -1.229685  0  -0.240478  0.050696  0  3.779192  0
N  N166  1  0.11193992  0.53326236  0.77998183  1  -1.229969  0  -0.240442  0.050752  0  3.779111  0
N  N167  1  0.88805820  0.03326152  0.72002103  1  -1.229739  0  -0.240513  0.050705  0  3.77918  0
N  N168  1  0.69592093  0.87555245  0.39353907  1  -1.241045  0  -0.356995  -0.279154  0  3.630799  0
N  N169  1  0.30407833  0.37555081  0.10645504  1  -1.241341  0  -0.356907  -0.279108  0  3.630724  0
N  N170  1  0.30408083  0.12444818  0.60645732  1  -1.241253  0  -0.35693  -0.279077  0  3.630657  0
N  N171  1  0.69592937  0.62444908  0.89354297  1  -1.241412  0  -0.356989  -0.279151  0  3.630804  0
N  N172  1  0.60852646  0.97160636  0.27242823  1  -1.252205  0  -0.243091  0.039768  0  3.784417  0
N  N173  1  0.39147108  0.47160736  0.22756254  1  -1.25192  0  -0.243026  0.039877  0  3.784522  0
N  N174  1  0.39147341  0.02839426  0.72757208  1  -1.252128  0  -0.243099  0.039669  0  3.784429  0
N  N175  1  0.60853562  0.52839181  0.77243462  1  -1.251987  0  -0.243034  0.039667  0  3.784522  0
O  O176  1  0.60728493  0.77954448  0.03675632  1  -1.187473  0  -0.358018  -0.594264  0  2.265695  0
O  O177  1  0.39271610  0.27954657  0.46324394  1  -1.187429  0  -0.358005  -0.594246  0  2.26579  0
O  O178  1  0.39271097  0.22044522  0.96324267  1  -1.187434  0  -0.357983  -0.594206  0  2.265691  0
O  O179  1  0.60728083  0.72046060  0.53675732  1  -1.18731  0  -0.358102  -0.59436  0  2.265784  0
O  O180  1  0.50006313  0.63918121  0.04872226  1  -1.162408  0  -0.329108  -0.563581  0  2.129636  0
O  O181  1  0.49993605  0.13919035  0.45126018  1  -1.162892  0  -0.32912  -0.563639  0  2.129627  0
O  O182  1  0.49993069  0.36080486  0.95127150  1  -1.162795  0  -0.329065  -0.563632  0  2.129851  0
O  O183  1  0.50005872  0.86081973  0.54873232  1  -1.162572  0  -0.329159  -0.563633  0  2.129608  0
O  O184  1  0.99672729  0.64519120  0.98101081  1  -1.199625  0  -0.328865  -0.56649  0  2.13753  0
O  O185  1  0.00327553  0.14519601  0.51900920  1  -1.203648  0  -0.328917  -0.566486  0  2.137253  0
O  O186  1  0.00326887  0.35480433  0.01900016  1  -1.199649  0  -0.328874  -0.566468  0  2.137447  0
O  O187  1  0.99672345  0.85480606  0.48099518  1  -1.199654  0  -0.328864  -0.566447  0  2.137359  0
O  O188  1  0.90418749  0.77951156  0.02831371  1  -1.185896  0  -0.358638  -0.588497  0  2.24257  0
O  O189  1  0.09581648  0.27950744  0.47168560  1  -1.185925  0  -0.358634  -0.588511  0  2.242642  0
O  O190  1  0.09581139  0.22049125  0.97168645  1  -1.185975  0  -0.358611  -0.588419  0  2.242749  0
O  O191  1  0.90418236  0.72049027  0.52831244  1  -1.186035  0  -0.358639  -0.588506  0  2.242619  0
