# generated using pymatgen
data_CdH4C6(SeN2)2
_symmetry_space_group_name_H-M   'P 1'
_cell_length_a   6.04126201
_cell_length_b   6.62833352
_cell_length_c   6.63023505
_cell_angle_alpha   70.47823217
_cell_angle_beta   85.41479936
_cell_angle_gamma   85.40766663
_symmetry_Int_Tables_number   1
_chemical_formula_structural   CdH4C6(SeN2)2
_chemical_formula_sum   'Cd1 H4 C6 Se2 N4'
_cell_volume   249.03218453
_cell_formula_units_Z   1
loop_
 _symmetry_equiv_pos_site_id
 _symmetry_equiv_pos_as_xyz
  1  'x, y, z'
loop_
 _atom_site_type_symbol
 _atom_site_label
 _atom_site_symmetry_multiplicity
 _atom_site_fract_x
 _atom_site_fract_y
 _atom_site_fract_z
 _atom_site_occupancy
 _atom_site_pbe_bader_charge
 _atom_site_pbe_bader_spin_density
 _atom_site_pbe_cm5_charge
 _atom_site_pbe_ddec_charge
 _atom_site_pbe_ddec_spin_density
 _atom_site_pbe_ddec_sum_bond_order
 _atom_site_pbe_magmom
Cd  Cd0  1  0.49999766  0.99997601  0.00000427  1  1.136224  0  0.681077  0.689276  0  2.510958  0
H  H1  1  0.18555716  0.76240418  0.43171715  1  0.12049  0  0.108036  0.083402  0  1.042964  0
H  H2  1  0.18557923  0.43179711  0.76231986  1  0.120073  0  0.107877  0.083063  0  1.043166  0
H  H3  1  0.81446361  0.23758664  0.56827562  1  0.120325  0  0.108001  0.083341  0  1.042964  0
H  H4  1  0.81442853  0.56818891  0.23767997  1  0.119759  0  0.107974  0.083266  0  1.043174  0
C  C5  1  0.03240143  0.83882394  0.83890357  1  0.692407  0  0.104353  0.202829  0  4.145233  0
C  C6  1  0.96757675  0.16118455  0.16111198  1  0.692612  0  0.104436  0.202983  0  4.144841  0
C  C7  1  0.32585627  0.64406712  0.46170457  1  0.575037  0  0.05232  0.057216  0  3.909908  0
C  C8  1  0.32590861  0.46175601  0.64398510  1  0.477746  0  0.052476  0.057285  0  3.910147  0
C  C9  1  0.67414298  0.35592211  0.53830536  1  0.575722  0  0.052393  0.057314  0  3.909457  0
C  C10  1  0.67414003  0.53824121  0.35598694  1  0.478073  0  0.052257  0.05703  0  3.90893  0
Se  Se11  1  0.77170451  0.77152587  0.77187346  1  -0.017679  0  -0.076233  -0.221674  0  2.33445  0
Se  Se12  1  0.22830091  0.22847138  0.22813334  1  -0.01773  0  -0.076241  -0.221719  0  2.334276  0
N  N13  1  0.20475141  0.88125090  0.88105847  1  -1.292083  0  -0.385265  -0.421831  0  3.213099  0
N  N14  1  0.79519046  0.11878165  0.11896671  1  -1.291935  0  -0.3854  -0.422064  0  3.212909  0
N  N15  1  0.49997870  0.68169370  0.31832084  1  -1.2443  0  -0.303939  -0.184754  0  3.488199  0
N  N16  1  0.50002873  0.31832600  0.68167679  1  -1.244742  0  -0.304122  -0.184962  0  3.489026  0
