# generated using pymatgen
data_H14PbC14(NO)6
_symmetry_space_group_name_H-M   'P 1'
_cell_length_a   10.10651495
_cell_length_b   16.38950435
_cell_length_c   20.52182021
_cell_angle_alpha   110.83491032
_cell_angle_beta   90.00705387
_cell_angle_gamma   107.95913747
_symmetry_Int_Tables_number   1
_chemical_formula_structural   H14PbC14(NO)6
_chemical_formula_sum   'H84 Pb6 C84 N36 O36'
_cell_volume   2999.04513292
_cell_formula_units_Z   6
loop_
 _symmetry_equiv_pos_site_id
 _symmetry_equiv_pos_as_xyz
  1  'x, y, z'
loop_
 _atom_site_type_symbol
 _atom_site_label
 _atom_site_symmetry_multiplicity
 _atom_site_fract_x
 _atom_site_fract_y
 _atom_site_fract_z
 _atom_site_occupancy
 _atom_site_pbe_bader_charge
 _atom_site_pbe_bader_spin_density
 _atom_site_pbe_cm5_charge
 _atom_site_pbe_ddec_charge
 _atom_site_pbe_ddec_spin_density
 _atom_site_pbe_ddec_sum_bond_order
 _atom_site_pbe_magmom
H  H0  1  0.43159351  0.91617142  0.86372444  1  0.095146  0  0.109091  0.112817  0  1.0158  0
H  H1  1  0.51554335  0.08363063  0.63614334  1  0.097326  0  0.10911  0.113186  0  1.016453  0
H  H2  1  0.56840842  0.08382580  0.13627817  1  0.095207  0  0.109104  0.112864  0  1.015799  0
H  H3  1  0.48445534  0.91636999  0.36385631  1  0.097283  0  0.109118  0.113174  0  1.016453  0
H  H4  1  0.47094749  0.77136121  0.86003499  1  0.099959  0  0.115944  0.090043  0  1.011435  0
H  H5  1  0.69985711  0.22849649  0.63990124  1  0.087752  0  0.116075  0.091145  0  1.011119  0
H  H6  1  0.52904977  0.22863457  0.13996332  1  0.099983  0  0.115951  0.090056  0  1.011382  0
H  H7  1  0.30014422  0.77150346  0.36010017  1  0.087707  0  0.116077  0.09115  0  1.011139  0
H  H8  1  0.04385588  0.63410892  0.83864979  1  0.124251  0  0.118044  0.095395  0  0.998514  0
H  H9  1  0.41019514  0.36586931  0.66143591  1  0.10367  0  0.117554  0.094436  0  0.99857  0
H  H10  1  0.95614549  0.36589309  0.16135121  1  0.124231  0  0.118045  0.095385  0  0.998558  0
H  H11  1  0.58980357  0.63413134  0.33856619  1  0.1038  0  0.117551  0.094412  0  0.998593  0
H  H12  1  0.98660215  0.76935676  0.83708417  1  0.130636  0  0.106938  0.120289  0  1.036185  0
H  H13  1  0.21758785  0.23063747  0.66299363  1  0.121087  0  0.106113  0.118866  0  1.036669  0
H  H14  1  0.01339755  0.23064391  0.16291842  1  0.130664  0  0.10695  0.12029  0  1.036167  0
H  H15  1  0.78241148  0.76936244  0.33700533  1  0.121101  0  0.106138  0.118916  0  1.03667  0
H  H16  1  0.96048402  0.90724434  0.85733830  1  0.08497  0  0.098705  0.148223  0  1.007195  0
H  H17  1  0.05361191  0.09275416  0.64257994  1  0.057692  0  0.098656  0.148804  0  1.006782  0
H  H18  1  0.03952028  0.09275562  0.14266360  1  0.084985  0  0.098686  0.148224  0  1.007182  0
H  H19  1  0.94638810  0.90724712  0.35741843  1  0.057743  0  0.098617  0.148728  0  1.00667  0
H  H20  1  0.99768926  0.87863525  0.76948450  1  0.063759  0  0.096957  0.145052  0  1.021636  0
H  H21  1  0.11925921  0.12145046  0.73049166  1  0.071144  0  0.096686  0.145342  0  1.021186  0
H  H22  1  0.00231242  0.12136541  0.23051808  1  0.063698  0  0.096942  0.14505  0  1.021623  0
H  H23  1  0.88073912  0.87854945  0.26950682  1  0.071096  0  0.096674  0.145311  0  1.021258  0
H  H24  1  0.03164908  0.99732182  0.82455077  1  0.086896  0  0.09825  0.143485  0  1.020625  0
H  H25  1  0.03444905  0.00272537  0.67543695  1  0.086026  0  0.098653  0.1444  0  1.019633  0
H  H26  1  0.96835062  0.00267885  0.17545230  1  0.08729  0  0.098246  0.14349  0  1.020645  0
H  H27  1  0.96554597  0.99727385  0.32456133  1  0.086038  0  0.098656  0.144398  0  1.019628  0
H  H28  1  0.53754757  0.08334669  0.83374520  1  0.075566  0  0.101552  0.146637  0  0.991241  0
H  H29  1  0.45419347  0.91655283  0.66630437  1  0.069994  0  0.101144  0.14666  0  0.991686  0
H  H30  1  0.46245804  0.91665392  0.16625347  1  0.075792  0  0.10156  0.146663  0  0.991274  0
H  H31  1  0.54580690  0.08344916  0.33369566  1  0.070035  0  0.101095  0.146576  0  0.991614  0
H  H32  1  0.53831456  0.14209862  0.92405427  1  0.057186  0  0.101744  0.147737  0  0.987764  0
H  H33  1  0.39606295  0.85779983  0.57600885  1  0.056203  0  0.102086  0.147646  0  0.987576  0
H  H34  1  0.46169005  0.85790197  0.07594342  1  0.057114  0  0.101791  0.147839  0  0.987773  0
H  H35  1  0.60393872  0.14220080  0.42399177  1  0.056214  0  0.102097  0.147642  0  0.987541  0
H  H36  1  0.61305945  0.20653980  0.87156929  1  0.067285  0  0.094241  0.140209  0  1.029669  0
H  H37  1  0.40636061  0.79333765  0.62848184  1  0.052869  0  0.094365  0.140719  0  1.029256  0
H  H38  1  0.38694419  0.79346082  0.12843036  1  0.067314  0  0.09425  0.140231  0  1.029676  0
H  H39  1  0.59363971  0.20666227  0.37151713  1  0.05271  0  0.094365  0.140684  0  1.029262  0
H  H40  1  0.59115008  0.30186461  0.84658403  1  0.100308  0  0.106649  0.116432  0  1.043642  0
H  H41  1  0.28908523  0.69809140  0.65362785  1  0.12141  0  0.106231  0.115772  0  1.044478  0
H  H42  1  0.40884923  0.69813526  0.15341200  1  0.1003  0  0.106612  0.116364  0  1.043711  0
H  H43  1  0.71091543  0.30190921  0.34637131  1  0.121433  0  0.106214  0.11574  0  1.044509  0
H  H44  1  0.55870002  0.43954133  0.83685024  1  0.108854  0  0.11044  0.076411  0  1.028562  0
H  H45  1  0.11867976  0.56039247  0.66324409  1  0.073109  0  0.110125  0.075414  0  1.027219  0
H  H46  1  0.44129530  0.56045650  0.16314766  1  0.108809  0  0.11044  0.076395  0  1.028533  0
H  H47  1  0.88131992  0.43960816  0.33675604  1  0.073087  0  0.110114  0.075404  0  1.027259  0
H  H48  1  0.12966929  0.34046912  0.84149842  1  0.112168  0  0.111086  0.086753  0  1.021152  0
H  H49  1  0.78892643  0.65958001  0.65835879  1  0.107108  0  0.111598  0.087819  0  1.020852  0
H  H50  1  0.87033361  0.65952804  0.15849978  1  0.112056  0  0.111108  0.086808  0  1.0212  0
H  H51  1  0.21107359  0.34042130  0.34164056  1  0.107108  0  0.111607  0.087792  0  1.020863  0
H  H52  1  0.14580366  0.19828272  0.85476720  1  0.104555  0  0.106737  0.106736  0  1.032282  0
H  H53  1  0.94752124  0.80184217  0.64519422  1  0.097119  0  0.106789  0.107106  0  1.032462  0
H  H54  1  0.85419958  0.80171511  0.14523022  1  0.104552  0  0.106733  0.106747  0  1.032276  0
H  H55  1  0.05248076  0.19815913  0.35480513  1  0.097137  0  0.106777  0.107101  0  1.032443  0
H  H56  1  0.87515226  0.12381668  0.95653392  1  0.11058  0  0.108721  0.113053  0  1.015487  0
H  H57  1  0.75134664  0.87610657  0.54346252  1  0.116003  0  0.109108  0.113345  0  1.015822  0
H  H58  1  0.12485207  0.87618533  0.04346660  1  0.110511  0  0.1087  0.112998  0  1.01552  0
H  H59  1  0.24865340  0.12389477  0.45653928  1  0.116062  0  0.109052  0.113268  0  1.015958  0
H  H60  1  0.85417081  0.26770077  0.94626325  1  0.078179  0  0.113365  0.083454  0  1.00769  0
H  H61  1  0.58643018  0.73217104  0.55370408  1  0.088606  0  0.113198  0.083488  0  1.007296  0
H  H62  1  0.14582886  0.73229985  0.05373640  1  0.07821  0  0.113367  0.083471  0  1.00769  0
H  H63  1  0.41356520  0.26782889  0.44629587  1  0.088639  0  0.11319  0.083459  0  1.007247  0
H  H64  1  0.26747210  0.41685416  0.03173888  1  0.108118  0  0.117167  0.088492  0  0.984977  0
H  H65  1  0.85081489  0.58314786  0.46832747  1  0.108118  0  0.117509  0.088735  0  0.98529  0
H  H66  1  0.73252757  0.58314644  0.96825978  1  0.108126  0  0.117155  0.088464  0  0.984971  0
H  H67  1  0.14918578  0.41685276  0.53167218  1  0.10811  0  0.117514  0.08873  0  0.985282  0
H  H68  1  0.30861027  0.28015624  0.04174973  1  0.114919  0  0.109344  0.124784  0  1.033056  0
H  H69  1  0.02852768  0.71988846  0.45829010  1  0.135324  0  0.109015  0.124347  0  1.033092  0
H  H70  1  0.69139277  0.71984714  0.95825069  1  0.114924  0  0.109357  0.124772  0  1.033049  0
H  H71  1  0.97147369  0.28011357  0.54171189  1  0.135494  0  0.109  0.124305  0  1.033165  0
H  H72  1  0.28364848  0.16835466  0.09006949  1  0.091119  0  0.099459  0.14969  0  1.013523  0
H  H73  1  0.11530649  0.83169098  0.40989791  1  0.090458  0  0.099583  0.150132  0  1.014194  0
H  H74  1  0.71634921  0.83164594  0.90992918  1  0.090926  0  0.099464  0.149703  0  1.013449  0
H  H75  1  0.88469192  0.16831106  0.59010506  1  0.09037  0  0.099595  0.150153  0  1.01422  0
H  H76  1  0.32747058  0.12965564  0.00361937  1  0.047217  0  0.099558  0.149052  0  1.001232  0
H  H77  1  0.19785995  0.87038534  0.49635302  1  0.034358  0  0.099185  0.148888  0  1.002188  0
H  H78  1  0.67252881  0.87034638  0.99638164  1  0.047212  0  0.099554  0.149051  0  1.001227  0
H  H79  1  0.80214107  0.12961599  0.50364829  1  0.034399  0  0.09921  0.148941  0  1.002161  0
H  H80  1  0.24348597  0.04650584  0.04097691  1  0.084291  0  0.096649  0.139283  0  1.02642  0
H  H81  1  0.19692932  0.95353768  0.45901553  1  0.089323  0  0.096784  0.140058  0  1.026124  0
H  H82  1  0.75651342  0.95349617  0.95902361  1  0.084374  0  0.096648  0.139258  0  1.026457  0
H  H83  1  0.80307037  0.04646297  0.54098657  1  0.089425  0  0.096814  0.140095  0  1.026128  0
Pb  Pb84  1  0.32491992  0.54033935  0.80164262  1  1.445772  0  0.622215  0.992365  0  1.887474  0
Pb  Pb85  1  0.78448970  0.45961547  0.69833954  1  1.45014  0  0.622135  0.99212  0  1.887486  0
Pb  Pb86  1  0.67507239  0.45965643  0.19835618  1  1.445788  0  0.622216  0.992373  0  1.887472  0
Pb  Pb87  1  0.21550816  0.54037756  0.30165898  1  1.450135  0  0.622145  0.992101  0  1.887466  0
Pb  Pb88  1  0.99999609  0.49999720  0.00000084  1  1.448909  0  0.610934  0.974115  0  1.947416  0
Pb  Pb89  1  0.50000864  0.50000405  0.49999696  1  1.450005  0  0.610644  0.973041  0  1.947408  0
C  C90  1  0.34342775  0.85480252  0.85815897  1  0.013691  0  -0.080357  -0.155593  0  3.942546  0
C  C91  1  0.48881378  0.14501708  0.64167460  1  -0.040933  0  -0.079433  -0.155182  0  3.942666  0
C  C92  1  0.65657352  0.14519535  0.14184138  1  0.013817  0  -0.080424  -0.155747  0  3.942659  0
C  C93  1  0.51118560  0.85498492  0.35832543  1  -0.040959  0  -0.079472  -0.155172  0  3.942612  0
C  C94  1  0.36525603  0.77476326  0.85669073  1  0.470012  0  0.042601  0.094372  0  3.969284  0
C  C95  1  0.59075082  0.22507533  0.64321129  1  0.492902  0  0.044449  0.09574  0  3.965795  0
C  C96  1  0.63474559  0.22523529  0.14330883  1  0.469716  0  0.042606  0.094421  0  3.969225  0
C  C97  1  0.40924986  0.77492532  0.35679032  1  0.492978  0  0.044431  0.095681  0  3.965815  0
C  C98  1  0.12759851  0.69764437  0.84353943  1  0.50804  0  0.048387  0.096005  0  3.942106  0
C  C99  1  0.43029405  0.30229352  0.65650318  1  0.509698  0  0.049797  0.09888  0  3.941855  0
C  C100  1  0.87240216  0.30235626  0.15646119  1  0.507779  0  0.048398  0.096049  0  3.942027  0
C  C101  1  0.56970761  0.69770710  0.34349646  1  0.509575  0  0.049776  0.09884  0  3.941756  0
C  C102  1  0.09618559  0.77471428  0.84336190  1  -0.079731  0  -0.079447  -0.153338  0  3.908707  0
C  C103  1  0.32175251  0.22520347  0.65660560  1  -0.016072  0  -0.080785  -0.154644  0  3.909277  0
C  C104  1  0.90381278  0.22528569  0.15664049  1  -0.079698  0  -0.079434  -0.153287  0  3.908636  0
C  C105  1  0.67824781  0.77479645  0.34339336  1  -0.016381  0  -0.080782  -0.154638  0  3.909329  0
C  C106  1  0.20563883  0.85566818  0.85000873  1  -0.042207  0  0.011161  0.061394  0  3.95279  0
C  C107  1  0.35022119  0.14424561  0.64994822  1  -0.029631  0  0.011852  0.06322  0  3.951267  0
C  C108  1  0.79436252  0.14433182  0.14999562  1  -0.042295  0  0.011098  0.061309  0  3.952893  0
C  C109  1  0.64977749  0.85575500  0.35005094  1  -0.029302  0  0.011841  0.063173  0  3.951334  0
C  C110  1  0.17911178  0.93768026  0.84547777  1  0.669202  0  0.155581  0.276847  0  3.885242  0
C  C111  1  0.24165030  0.06230090  0.65457849  1  0.624419  0  0.155885  0.274471  0  3.889022  0
C  C112  1  0.82088991  0.06232043  0.15452628  1  0.669362  0  0.155661  0.277017  0  3.885248  0
C  C113  1  0.75834839  0.93769970  0.34542018  1  0.624275  0  0.155913  0.274528  0  3.889199  0
C  C114  1  0.03376324  0.93045172  0.82307263  1  -0.116388  0  -0.240439  -0.457495  0  3.931407  0
C  C115  1  0.10355229  0.06958354  0.67693003  1  -0.078881  0  -0.240671  -0.458863  0  3.93086  0
C  C116  1  0.96623977  0.06954964  0.17693014  1  -0.116927  0  -0.240425  -0.457562  0  3.931348  0
C  C117  1  0.89644437  0.93041499  0.32306806  1  -0.078848  0  -0.240634  -0.458779  0  3.930826  0
C  C118  1  0.52729490  0.14695977  0.87232745  1  -0.092022  0  -0.236629  -0.456841  0  3.946062  0
C  C119  1  0.38025340  0.85295060  0.62774400  1  -0.071697  0  -0.23593  -0.455989  0  3.946452  0
C  C120  1  0.47270506  0.85303944  0.12767035  1  -0.092187  0  -0.236687  -0.456942  0  3.946131  0
C  C121  1  0.61974930  0.14705210  0.37225671  1  -0.071557  0  -0.235874  -0.455798  0  3.946265  0
C  C122  1  0.38491252  0.15311154  0.85888786  1  0.630496  0  0.154786  0.274104  0  3.871562  0
C  C123  1  0.23175937  0.84685486  0.64117709  1  0.647566  0  0.154325  0.272717  0  3.87381  0
C  C124  1  0.61508810  0.84688699  0.14111073  1  0.63053  0  0.154755  0.273958  0  3.871592  0
C  C125  1  0.76824094  0.15314503  0.35882041  1  0.647806  0  0.154288  0.272632  0  3.873871  0
C  C126  1  0.37049368  0.23675320  0.85193821  1  -0.013007  0  0.008657  0.057923  0  3.950587  0
C  C127  1  0.13359279  0.76321991  0.64810032  1  -0.084976  0  0.009534  0.058315  0  3.951609  0
C  C128  1  0.62950689  0.76324327  0.14806029  1  -0.012803  0  0.008693  0.057886  0  3.950527  0
C  C129  1  0.86640652  0.23677998  0.35189718  1  -0.085237  0  0.009602  0.058357  0  3.951556  0
C  C130  1  0.48659497  0.30667765  0.84665395  1  0.011396  0  -0.079745  -0.140573  0  3.919158  0
C  C131  1  0.17968401  0.69325014  0.65337990  1  0.037415  0  -0.079206  -0.140848  0  3.919973  0
C  C132  1  0.51340362  0.69331881  0.15334406  1  0.011139  0  -0.079713  -0.140449  0  3.919131  0
C  C133  1  0.82031666  0.30675047  0.34661926  1  0.03738  0  -0.079213  -0.140806  0  3.92002  0
C  C134  1  0.46865390  0.38466788  0.84069133  1  0.4562  0  0.043304  0.09582  0  3.974249  0
C  C135  1  0.08364991  0.61531692  0.65936554  1  0.494306  0  0.043294  0.09685  0  3.972846  0
C  C136  1  0.53134538  0.61532995  0.15930657  1  0.456345  0  0.043306  0.095837  0  3.974224  0
C  C137  1  0.91635013  0.38468440  0.34063528  1  0.494283  0  0.043265  0.096771  0  3.972983  0
C  C138  1  0.23056568  0.32936551  0.84297866  1  0.505589  0  0.039828  0.090871  0  3.96289  0
C  C139  1  0.90096287  0.67070710  0.65697532  1  0.485214  0  0.040297  0.090076  0  3.961845  0
C  C140  1  0.76943790  0.67063302  0.15701993  1  0.505608  0  0.039843  0.090859  0  3.962802  0
C  C141  1  0.09903715  0.32929419  0.34302354  1  0.485337  0  0.040323  0.090179  0  3.961787  0
C  C142  1  0.23935666  0.24984226  0.84990724  1  -0.074235  0  -0.080792  -0.159669  0  3.957794  0
C  C143  1  0.98935461  0.75017665  0.64999537  1  -0.020881  0  -0.080363  -0.158879  0  3.957219  0
C  C144  1  0.76064594  0.75015627  0.15009085  1  -0.074249  0  -0.080773  -0.159616  0  3.957736  0
C  C145  1  0.01064675  0.24982535  0.35000466  1  -0.020798  0  -0.080376  -0.158891  0  3.95717  0
C  C146  1  0.96422518  0.18753338  0.97296958  1  -0.035779  0  -0.078973  -0.158483  0  3.959321  0
C  C147  1  0.77664487  0.81237676  0.52699308  1  -0.085355  0  -0.079913  -0.158343  0  3.959872  0
C  C148  1  0.03577617  0.81246860  0.02702898  1  -0.035694  0  -0.078982  -0.158446  0  3.959262  0
C  C149  1  0.22335320  0.18762460  0.47301019  1  -0.085459  0  -0.079865  -0.158322  0  3.959985  0
C  C150  1  0.95240438  0.26714102  0.96797255  1  0.523176  0  0.043176  0.086442  0  3.979229  0
C  C151  1  0.68523392  0.73275264  0.53200923  1  0.530713  0  0.044076  0.086087  0  3.97895  0
C  C152  1  0.04759564  0.73286027  0.03202631  1  0.523203  0  0.043169  0.086427  0  3.979297  0
C  C153  1  0.31476319  0.26725076  0.46799216  1  0.530952  0  0.044032  0.086115  0  3.97897  0
C  C154  1  0.18320029  0.35034588  0.01488339  1  0.512476  0  0.053114  0.108851  0  3.957182  0
C  C155  1  0.83293980  0.64960883  0.48512148  1  0.480417  0  0.052004  0.108804  0  3.955743  0
C  C156  1  0.81680038  0.64965473  0.98511577  1  0.512489  0  0.053089  0.108889  0  3.957055  0
C  C157  1  0.16705855  0.35039111  0.51487896  1  0.480199  0  0.052015  0.108818  0  3.955641  0
C  C158  1  0.20551069  0.27334686  0.02055620  1  -0.027581  0  -0.078533  -0.153737  0  3.909996  0
C  C159  1  0.93213454  0.72660064  0.47938604  1  -0.018389  0  -0.077753  -0.153678  0  3.910091  0
C  C160  1  0.79448934  0.72665445  0.97944413  1  -0.027718  0  -0.078525  -0.153728  0  3.909868  0
C  C161  1  0.06786417  0.27339999  0.52061508  1  -0.018425  0  -0.077772  -0.153651  0  3.910125  0
C  C162  1  0.09338168  0.19000725  0.00069489  1  -0.045148  0  0.010782  0.058965  0  3.966514  0
C  C163  1  0.90338331  0.80995841  0.49928951  1  -0.032969  0  0.010727  0.058819  0  3.965303  0
C  C164  1  0.90661840  0.80999616  0.99930699  1  -0.045123  0  0.010792  0.059046  0  3.966386  0
C  C165  1  0.09661668  0.19004086  0.50071220  1  -0.033036  0  0.010672  0.058696  0  3.965494  0
C  C166  1  0.10857485  0.10811148  0.01019171  1  0.619261  0  0.154788  0.271899  0  3.896886  0
C  C167  1  0.00048495  0.89188470  0.48980196  1  0.632692  0  0.154424  0.271899  0  3.896149  0
C  C168  1  0.89142285  0.89188915  0.98980842  1  0.619263  0  0.154763  0.271853  0  3.896892  0
C  C169  1  0.99951742  0.10811733  0.51020003  1  0.632658  0  0.154485  0.271947  0  3.896253  0
C  C170  1  0.24875740  0.11259201  0.03786501  1  -0.089647  0  -0.243132  -0.470219  0  3.947573  0
C  C171  1  0.13617260  0.88742720  0.46210539  1  -0.089681  0  -0.242941  -0.471565  0  3.948484  0
C  C172  1  0.75124262  0.88740931  0.96213532  1  -0.089565  0  -0.243139  -0.470224  0  3.947521  0
C  C173  1  0.86382908  0.11257346  0.53789720  1  -0.089759  0  -0.24304  -0.471698  0  3.948611  0
N  N174  1  0.25954065  0.69656160  0.84894196  1  -1.243509  0  -0.303059  -0.25813  0  3.432469  0
N  N175  1  0.56331803  0.30336718  0.65119585  1  -1.234018  0  -0.304685  -0.260614  0  3.430997  0
N  N176  1  0.74045735  0.30343764  0.15105829  1  -1.243205  0  -0.303061  -0.258183  0  3.432448  0
N  N177  1  0.43668066  0.69663345  0.34880477  1  -1.233974  0  -0.304655  -0.260544  0  3.430773  0
N  N178  1  0.29016881  0.01080742  0.85957967  1  -0.773387  0  -0.210399  -0.22108  0  3.311526  0
N  N179  1  0.27943794  0.98912249  0.64042016  1  -0.761138  0  -0.211231  -0.220801  0  3.314255  0
N  N180  1  0.70983384  0.98919321  0.14042095  1  -0.773273  0  -0.210419  -0.221149  0  3.311581  0
N  N181  1  0.72056139  0.01087742  0.35957832  1  -0.76103  0  -0.211221  -0.220784  0  3.314283  0
N  N182  1  0.26814300  0.08636934  0.85270523  1  -0.753035  0  -0.210335  -0.220257  0  3.284242  0
N  N183  1  0.18179046  0.91360016  0.64731215  1  -0.747113  0  -0.210682  -0.220012  0  3.285902  0
N  N184  1  0.73185763  0.91362922  0.14729482  1  -0.753004  0  -0.210316  -0.220163  0  3.284226  0
N  N185  1  0.81821021  0.08640044  0.35268701  1  -0.747123  0  -0.210685  -0.220041  0  3.285966  0
N  N186  1  0.34359280  0.39675294  0.83882123  1  -1.213601  0  -0.306441  -0.271664  0  3.437493  0
N  N187  1  0.94658048  0.60342952  0.66137015  1  -1.234804  0  -0.308183  -0.272895  0  3.437422  0
N  N188  1  0.65640817  0.60324630  0.16117853  1  -1.213605  0  -0.306484  -0.271767  0  3.437429  0
N  N189  1  0.05341919  0.39657108  0.33862852  1  -1.235026  0  -0.308177  -0.272882  0  3.437456  0
N  N190  1  0.05929458  0.34773734  0.98940446  1  -1.251682  0  -0.303997  -0.253478  0  3.451402  0
N  N191  1  0.71171653  0.65221949  0.51070785  1  -1.235847  0  -0.304342  -0.25363  0  3.44944  0
N  N192  1  0.94070608  0.65226326  0.01059420  1  -1.251614  0  -0.303951  -0.253485  0  3.451352  0
N  N193  1  0.28828151  0.34778180  0.48929101  1  -1.235958  0  -0.304288  -0.253541  0  3.449316  0
N  N194  1  0.99306020  0.03773590  0.99498145  1  -0.740712  0  -0.209055  -0.216613  0  3.319991  0
N  N195  1  0.95536898  0.96227502  0.50505288  1  -0.744791  0  -0.208273  -0.215952  0  3.319102  0
N  N196  1  0.00693652  0.96226473  0.00501918  1  -0.760572  0  -0.209142  -0.216821  0  3.320132  0
N  N197  1  0.04462973  0.03772563  0.49494921  1  -0.766391  0  -0.208215  -0.215878  0  3.319079  0
N  N198  1  0.30386944  0.58249548  0.96018994  1  0.820798  0  0.110373  0.693751  0  4.424263  0
N  N199  1  0.72149669  0.41754501  0.53993225  1  0.839932  0  0.109694  0.69196  0  4.425148  0
N  N200  1  0.69612644  0.41749755  0.03980858  1  0.820339  0  0.110291  0.693739  0  4.42393  0
N  N201  1  0.27850597  0.58245561  0.46006789  1  0.839902  0  0.109765  0.691973  0  4.425177  0
N  N202  1  0.85030379  0.40527047  0.83850691  1  0.825129  0  0.100641  0.717576  0  4.413579  0
N  N203  1  0.44508333  0.59465155  0.66144503  1  0.82238  0  0.100858  0.717937  0  4.412854  0
N  N204  1  0.14969392  0.59473016  0.16149372  1  0.825028  0  0.100663  0.71751  0  4.413804  0
N  N205  1  0.55491626  0.40534494  0.33855445  1  0.822608  0  0.100905  0.717966  0  4.413025  0
N  N206  1  0.04583319  0.38672272  0.70071658  1  0.85615  0  0.112081  0.704721  0  4.417234  0
N  N207  1  0.65882713  0.61314205  0.79932735  1  0.819807  0  0.112443  0.703605  0  4.414691  0
N  N208  1  0.95416517  0.61327722  0.29928386  1  0.856158  0  0.112044  0.70474  0  4.417295  0
N  N209  1  0.34117255  0.38685857  0.20067279  1  0.820352  0  0.112515  0.70366  0  4.414611  0
O  O210  1  0.42117565  0.61338580  0.94110769  1  -0.511981  0  -0.15711  -0.403232  0  1.975516  0
O  O211  1  0.80776216  0.38660919  0.55911629  1  -0.515627  0  -0.157112  -0.402532  0  1.97343  0
O  O212  1  0.57881999  0.38661069  0.05889277  1  -0.511962  0  -0.157071  -0.403199  0  1.975392  0
O  O213  1  0.19224049  0.61339144  0.44088433  1  -0.51557  0  -0.157124  -0.402523  0  1.973355  0
O  O214  1  0.19412903  0.54065545  0.91390608  1  -0.579924  0  -0.161855  -0.451609  0  2.06006  0
O  O215  1  0.65318819  0.45913693  0.58610365  1  -0.58375  0  -0.162015  -0.451322  0  2.06242  0
O  O216  1  0.80586787  0.45933962  0.08609106  1  -0.579843  0  -0.16182  -0.451547  0  2.059923  0
O  O217  1  0.34681480  0.54086437  0.41389570  1  -0.583843  0  -0.16203  -0.451317  0  2.062466  0
O  O218  1  0.28991482  0.59107924  0.02297696  1  -0.518878  0  -0.15647  -0.410091  0  2.002195  0
O  O219  1  0.69955074  0.40924222  0.47718349  1  -0.530928  0  -0.155299  -0.408212  0  2.002098  0
O  O220  1  0.71007735  0.40891032  0.97702012  1  -0.518511  0  -0.156439  -0.410113  0  2.002034  0
O  O221  1  0.30045255  0.59075770  0.52281596  1  -0.530878  0  -0.15533  -0.408233  0  2.002205  0
O  O222  1  0.77248918  0.35788442  0.78029180  1  -0.556394  0  -0.183114  -0.466652  0  2.048917  0
O  O223  1  0.41483622  0.64200842  0.71971069  1  -0.555369  0  -0.182801  -0.466336  0  2.04825  0
O  O224  1  0.22750887  0.64211688  0.21970755  1  -0.55638  0  -0.183093  -0.466576  0  2.04895  0
O  O225  1  0.58516540  0.35799013  0.28028937  1  -0.555422  0  -0.182802  -0.466282  0  2.048265  0
O  O226  1  0.87094359  0.49130756  0.86746288  1  -0.549532  0  -0.179421  -0.466511  0  1.975218  0
O  O227  1  0.37977212  0.50860611  0.63250343  1  -0.551276  0  -0.17865  -0.465527  0  1.975682  0
O  O228  1  0.12905081  0.50869240  0.13253853  1  -0.54959  0  -0.179426  -0.466492  0  1.975296  0
O  O229  1  0.62022584  0.49139107  0.36749673  1  -0.551147  0  -0.178647  -0.465515  0  1.975817  0
O  O230  1  0.90635208  0.36545878  0.86787073  1  -0.554028  0  -0.182174  -0.454962  0  2.000094  0
O  O231  1  0.54071861  0.63453099  0.63201340  1  -0.549964  0  -0.183241  -0.456323  0  1.999748  0
O  O232  1  0.09364527  0.63454114  0.13212823  1  -0.553853  0  -0.182225  -0.454984  0  2.000143  0
O  O233  1  0.45928227  0.36546410  0.36798521  1  -0.55027  0  -0.183253  -0.456365  0  1.99982  0
O  O234  1  0.05739560  0.47146912  0.73877348  1  -0.60025  0  -0.175956  -0.473298  0  2.025104  0
O  O235  1  0.58582217  0.52836400  0.76122768  1  -0.58946  0  -0.175604  -0.472353  0  2.023918  0
O  O236  1  0.94260275  0.52853082  0.26122696  1  -0.60023  0  -0.175939  -0.473307  0  2.025155  0
O  O237  1  0.41417784  0.47163728  0.23877069  1  -0.589473  0  -0.175605  -0.472329  0  2.023915  0
O  O238  1  0.93420790  0.33619114  0.66015578  1  -0.537108  0  -0.14973  -0.407128  0  2.043605  0
O  O239  1  0.59760590  0.66349532  0.83998142  1  -0.527707  0  -0.150124  -0.407338  0  2.042993  0
O  O240  1  0.06578814  0.66380813  0.33984593  1  -0.537077  0  -0.149748  -0.407127  0  2.043532  0
O  O241  1  0.40239473  0.33650326  0.16001961  1  -0.527712  0  -0.150175  -0.407409  0  2.04295  0
O  O242  1  0.14547141  0.35791429  0.70518518  1  -0.531612  0  -0.150847  -0.412649  0  2.009753  0
O  O243  1  0.78719761  0.64218071  0.79481232  1  -0.511716  0  -0.150997  -0.412107  0  2.009345  0
O  O244  1  0.85452595  0.64208565  0.29481526  1  -0.531693  0  -0.150836  -0.412687  0  2.009784  0
O  O245  1  0.21280341  0.35782061  0.20518801  1  -0.512236  0  -0.150995  -0.412101  0  2.009405  0
