# generated using pymatgen
data_CdH52C52(N5O3)2
_symmetry_space_group_name_H-M   'P 1'
_cell_length_a   9.05124938
_cell_length_b   9.53982518
_cell_length_c   15.16300000
_cell_angle_alpha   95.80155504
_cell_angle_beta   100.80197191
_cell_angle_gamma   115.96385027
_symmetry_Int_Tables_number   1
_chemical_formula_structural   CdH52C52(N5O3)2
_chemical_formula_sum   'Cd1 H52 C52 N10 O6'
_cell_volume   1131.14726048
_cell_formula_units_Z   1
loop_
 _symmetry_equiv_pos_site_id
 _symmetry_equiv_pos_as_xyz
  1  'x, y, z'
loop_
 _atom_site_type_symbol
 _atom_site_label
 _atom_site_symmetry_multiplicity
 _atom_site_fract_x
 _atom_site_fract_y
 _atom_site_fract_z
 _atom_site_occupancy
 _atom_site_hle17_bader_spin_density
 _atom_site_hle17_ddec_charge
 _atom_site_hle17_ddec_spin_density
 _atom_site_hle17_ddec_sum_bond_order
 _atom_site_hle17_magmom
 _atom_site_hse06_10hf_bader_spin_density
 _atom_site_hse06_10hf_ddec_charge
 _atom_site_hse06_10hf_ddec_spin_density
 _atom_site_hse06_10hf_ddec_sum_bond_order
 _atom_site_hse06_10hf_magmom
 _atom_site_hse06_bader_spin_density
 _atom_site_hse06_ddec_charge
 _atom_site_hse06_ddec_spin_density
 _atom_site_hse06_ddec_sum_bond_order
 _atom_site_hse06_magmom
 _atom_site_pbe_bader_charge
 _atom_site_pbe_bader_spin_density
 _atom_site_pbe_cm5_charge
 _atom_site_pbe_ddec_charge
 _atom_site_pbe_ddec_spin_density
 _atom_site_pbe_ddec_sum_bond_order
 _atom_site_pbe_magmom
Cd  Cd0  1  0.99999186  0.99999424  0.99999793  1  0  1.012619  0  1.755444  0  0  0.795804  0  2.210314  0  0  0.849051  0  2.167854  0  1.240109  0  0.777811  0.757284  0  2.239572  0
H  H1  1  0.51616803  0.88584066  0.13846193  1  0  0.281339  0  0.935806  0  0  0.26754  0  0.997366  0  0  0.273851  0  0.992616  0  0.498658  0  0.300696  0.263128  0  1.00066  0
H  H2  1  0.48381485  0.11413332  0.86153437  1  0  0.281199  0  0.935774  0  0  0.267422  0  0.997312  0  0  0.273734  0  0.992565  0  0.49865  0  0.300677  0.263013  0  1.000592  0
H  H3  1  0.17727911  0.77250705  0.49439672  1  0  0.26687  0  0.934778  0  0  0.252817  0  0.99981  0  0  0.257413  0  0.9984  0  0.452285  0  0.303337  0.250323  0  0.999156  0
H  H4  1  0.82273457  0.22750388  0.50561394  1  0  0.266889  0  0.934875  0  0  0.252897  0  0.999804  0  0  0.25749  0  0.998396  0  0.452514  0  0.303385  0.250402  0  0.99915  0
H  H5  1  0.40823939  0.19387552  0.04005215  1  0  0.087776  0  0.950565  0  0  0.090289  0  1.023475  0  0  0.093973  0  1.018976  0  0.136552  0  0.11667  0.087582  0  1.026618  0
H  H6  1  0.59175446  0.80610918  0.95994870  1  0  0.08776  0  0.95051  0  0  0.090241  0  1.023435  0  0  0.093901  0  1.018969  0  0.136558  0  0.116634  0.087531  0  1.026587  0
H  H7  1  0.64271463  0.47053596  0.09089290  1  0  0.113287  0  0.960311  0  0  0.12243  0  1.022619  0  0  0.125282  0  1.022675  0  0.119363  0  0.105733  0.120117  0  1.023267  0
H  H8  1  0.35728041  0.52945113  0.90911285  1  0  0.113293  0  0.960242  0  0  0.122374  0  1.022616  0  0  0.125225  0  1.022675  0  0.119085  0  0.105724  0.120059  0  1.023264  0
H  H9  1  0.29495611  0.60601117  0.18770052  1  0  0.107091  0  0.976327  0  0  0.114444  0  1.041553  0  0  0.117221  0  1.042248  0  0.101427  0  0.104844  0.112203  0  1.041521  0
H  H10  1  0.70502894  0.39398068  0.81228331  1  0  0.107228  0  0.976128  0  0  0.114543  0  1.041393  0  0  0.11732  0  1.042089  0  0.095902  0  0.104909  0.112298  0  1.041371  0
H  H11  1  0.07305055  0.31881745  0.13524367  1  0  0.073911  0  0.992083  0  0  0.075599  0  1.068565  0  0  0.079032  0  1.06456  0  0.122859  0  0.107938  0.073135  0  1.071604  0
H  H12  1  0.92693634  0.68118037  0.86473613  1  0  0.073824  0  0.992148  0  0  0.075526  0  1.068633  0  0  0.078957  0  1.064625  0  0.122948  0  0.107938  0.073064  0  1.071667  0
H  H13  1  0.72659735  0.74805570  0.22672292  1  0  0.072016  0  0.93845  0  0  0.088756  0  1.004184  0  0  0.088374  0  1.006058  0  0.076058  0  0.108377  0.088439  0  1.003402  0
H  H14  1  0.27339994  0.25193139  0.77327054  1  0  0.071928  0  0.938587  0  0  0.088682  0  1.004382  0  0  0.088311  0  1.00623  0  0.07612  0  0.108368  0.088365  0  1.003598  0
H  H15  1  0.68204280  0.76381154  0.11165295  1  0  0.074251  0  0.946189  0  0  0.087711  0  1.016615  0  0  0.087773  0  1.017251  0  0.07016  0  0.108792  0.088521  0  1.015114  0
H  H16  1  0.31795270  0.23617197  0.88833943  1  0  0.074201  0  0.946207  0  0  0.087746  0  1.016573  0  0  0.087808  0  1.017213  0  0.070296  0  0.108815  0.088554  0  1.015074  0
H  H17  1  0.47538109  0.16367603  0.39785755  1  0  0.08348  0  0.988893  0  0  0.095302  0  1.05462  0  0  0.097408  0  1.053903  0  0.045927  0  0.092387  0.094164  0  1.054893  0
H  H18  1  0.52462446  0.83632536  0.60213643  1  0  0.083475  0  0.988855  0  0  0.095284  0  1.054597  0  0  0.097389  0  1.053879  0  0.045815  0  0.092367  0.094145  0  1.05487  0
H  H19  1  0.57664833  0.79139141  0.48654385  1  0  0.079973  0  1.00615  0  0  0.090037  0  1.073114  0  0  0.091735  0  1.073252  0  0.061881  0  0.090455  0.088618  0  1.073894  0
H  H20  1  0.42334009  0.20860044  0.51344893  1  0  0.080035  0  1.006065  0  0  0.090081  0  1.073057  0  0  0.091781  0  1.073191  0  0.062074  0  0.090469  0.088656  0  1.073841  0
H  H21  1  0.60491284  0.71702908  0.33684903  1  0  0.086262  0  1.01714  0  0  0.096536  0  1.083387  0  0  0.098712  0  1.08411  0  0.089832  0  0.089378  0.095537  0  1.082115  0
H  H22  1  0.39509502  0.28297469  0.66314800  1  0  0.086283  0  1.01717  0  0  0.096549  0  1.083411  0  0  0.098722  0  1.084138  0  0.089945  0  0.089399  0.095553  0  1.082131  0
H  H23  1  0.61501651  0.15255994  0.19484362  1  0  0.113936  0  0.953027  0  0  0.133039  0  1.017201  0  0  0.134527  0  1.016859  0  0.03593  0  0.089231  0.132036  0  1.017388  0
H  H24  1  0.38497318  0.84741642  0.80514238  1  0  0.113895  0  0.953022  0  0  0.133071  0  1.017106  0  0  0.134561  0  1.016759  0  0.038954  0  0.089243  0.132054  0  1.017308  0
H  H25  1  0.52188796  0.23667730  0.26233739  1  0  0.094667  0  0.978656  0  0  0.117454  0  1.041541  0  0  0.117878  0  1.042601  0  0.023935  0  0.082776  0.11726  0  1.040822  0
H  H26  1  0.47812705  0.76332051  0.73765412  1  0  0.094649  0  0.978532  0  0  0.117402  0  1.041489  0  0  0.117832  0  1.042545  0  0.02376  0  0.082762  0.11721  0  1.040766  0
H  H27  1  0.39233212  0.06328438  0.17476524  1  0  0.107802  0  0.988883  0  0  0.125921  0  1.0575  0  0  0.126955  0  1.058094  0  0.075438  0  0.085463  0.12538  0  1.056979  0
H  H28  1  0.60766033  0.93671105  0.82523152  1  0  0.107764  0  0.988936  0  0  0.125873  0  1.057562  0  0  0.126907  0  1.058155  0  0.075585  0  0.085457  0.125333  0  1.057035  0
H  H29  1  0.08044893  0.07611550  0.22068775  1  0  0.073254  0  0.942535  0  0  0.083112  0  1.006521  0  0  0.084934  0  1.004865  0  0.078106  0  0.115255  0.081974  0  1.007451  0
H  H30  1  0.91955569  0.92389304  0.77931846  1  0  0.073375  0  0.942493  0  0  0.083207  0  1.006495  0  0  0.085016  0  1.004853  0  0.078119  0  0.115306  0.082069  0  1.007424  0
H  H31  1  0.11880243  0.95893847  0.35835323  1  0  0.119245  0  0.933415  0  0  0.129845  0  0.989807  0  0  0.133093  0  0.989325  0  0.113671  0  0.113876  0.128  0  0.989734  0
H  H32  1  0.88122257  0.04107484  0.64165225  1  0  0.11928  0  0.933455  0  0  0.129883  0  0.98984  0  0  0.133125  0  0.989363  0  0.113705  0  0.113862  0.128036  0  0.989771  0
H  H33  1  0.99101143  0.52585303  0.17162780  1  0  0.115227  0  0.970923  0  0  0.126063  0  1.030463  0  0  0.129482  0  1.028677  0  0.084747  0  0.107591  0.123439  0  1.03246  0
H  H34  1  0.00899821  0.47415432  0.82837493  1  0  0.115222  0  0.971057  0  0  0.126111  0  1.030527  0  0  0.129529  0  1.028744  0  0.084969  0  0.107618  0.123479  0  1.032531  0
H  H35  1  0.96151939  0.66006253  0.04309730  1  0  0.071578  0  0.946761  0  0  0.08208  0  1.008476  0  0  0.083493  0  1.008083  0  0.08763  0  0.11334  0.080978  0  1.009258  0
H  H36  1  0.03845407  0.33993766  0.95690423  1  0  0.07168  0  0.947013  0  0  0.08216  0  1.008725  0  0  0.083581  0  1.008315  0  0.087771  0  0.113391  0.081013  0  1.009555  0
H  H37  1  0.03398574  0.52836896  0.33268658  1  0  0.066714  0  0.930363  0  0  0.08433  0  0.992379  0  0  0.084306  0  0.992725  0  0.061868  0  0.106129  0.084208  0  0.992897  0
H  H38  1  0.96603197  0.47164554  0.66732345  1  0  0.066818  0  0.930378  0  0  0.08443  0  0.992455  0  0  0.084411  0  0.992813  0  0.061677  0  0.10618  0.084308  0  0.992973  0
H  H39  1  0.24001111  0.69183165  0.36933494  1  0  0.087761  0  0.944409  0  0  0.105712  0  1.005362  0  0  0.105157  0  1.007854  0  0.080426  0  0.11553  0.106174  0  1.003238  0
H  H40  1  0.76000336  0.30818761  0.63067635  1  0  0.087601  0  0.944342  0  0  0.105648  0  1.005278  0  0  0.105105  0  1.007767  0  0.080644  0  0.115479  0.10611  0  1.003156  0
H  H41  1  0.72930210  0.65152911  0.63143083  1  0  0.079269  0  0.97502  0  0  0.092155  0  1.037971  0  0  0.094906  0  1.036378  0  0.028625  0  0.091046  0.08965  0  1.040229  0
H  H42  1  0.27071672  0.34850565  0.36858259  1  0  0.079228  0  0.975102  0  0  0.092121  0  1.038035  0  0  0.094921  0  1.036382  0  0.028994  0  0.091097  0.089619  0  1.04029  0
H  H43  1  0.49607417  0.41904224  0.34646247  1  0  0.073991  0  0.982002  0  0  0.087332  0  1.043662  0  0  0.089914  0  1.041965  0  0.022119  0  0.092114  0.085122  0  1.045461  0
H  H44  1  0.50393382  0.58096630  0.65355334  1  0  0.074125  0  0.982145  0  0  0.087452  0  1.043827  0  0  0.090039  0  1.042119  0  0.02212  0  0.092155  0.085235  0  1.045629  0
H  H45  1  0.77468624  0.51656995  0.31739888  1  0  0.091309  0  0.973224  0  0  0.103666  0  1.034795  0  0  0.106677  0  1.033988  0  0.028832  0  0.095146  0.101415  0  1.035678  0
H  H46  1  0.22532393  0.48343620  0.68261637  1  0  0.091312  0  0.973117  0  0  0.103571  0  1.034825  0  0  0.106591  0  1.033999  0  0.028572  0  0.095075  0.101314  0  1.035723  0
H  H47  1  0.02272012  0.79023654  0.69023607  1  0  0.102886  0  0.950716  0  0  0.125849  0  1.011453  0  0  0.127338  0  1.010209  0  0.028562  0  0.088447  0.124585  0  1.01262  0
H  H48  1  0.97729501  0.20978630  0.30977287  1  0  0.102843  0  0.950757  0  0  0.125783  0  1.011527  0  0  0.127266  0  1.010292  0  0.028756  0  0.08842  0.12453  0  1.012682  0
H  H49  1  0.12476443  0.90434245  0.61392375  1  0  0.108713  0  0.958746  0  0  0.130294  0  1.019625  0  0  0.131181  0  1.020834  0  0.047211  0  0.089919  0.129178  0  1.019426  0
H  H50  1  0.87524819  0.09567086  0.38608563  1  0  0.108677  0  0.958579  0  0  0.130202  0  1.019538  0  0  0.131084  0  1.020752  0  0.047517  0  0.089882  0.129086  0  1.01934  0
H  H51  1  0.14395571  0.73230462  0.63044132  1  0  0.103637  0  0.959597  0  0  0.124457  0  1.025246  0  0  0.125431  0  1.025896  0  0.033679  0  0.089656  0.122958  0  1.025763  0
H  H52  1  0.85605823  0.26771584  0.36957196  1  0  0.103618  0  0.959525  0  0  0.124398  0  1.025241  0  0  0.125375  0  1.025884  0  0.033782  0  0.089615  0.122902  0  1.025747  0
C  C53  1  0.38787446  0.28872164  0.07293784  1  0  0.134336  0  3.709094  0  0  0.104429  0  3.964138  0  0  0.112344  0  3.981195  0  0.464792  0  0.044798  0.099449  0  3.952394  0
C  C54  1  0.61211608  0.71126545  0.92706146  1  0  0.13429  0  3.708696  0  0  0.104427  0  3.963739  0  0  0.112357  0  3.980796  0  0.46415  0  0.044796  0.099445  0  3.951996  0
C  C55  1  0.51861554  0.44429807  0.10206509  1  0  -0.16692  0  3.696723  0  0  -0.183216  0  3.939808  0  0  -0.191532  0  3.961955  0  -0.043008  0  -0.084691  -0.177924  0  3.92509  0
C  C56  1  0.48137606  0.55568663  0.89793550  1  0  -0.16682  0  3.696474  0  0  -0.183052  0  3.939476  0  0  -0.191373  0  3.961637  0  -0.042457  0  -0.084611  -0.177751  0  3.92474  0
C  C57  1  0.48728777  0.56339651  0.14297626  1  0  0.130382  0  3.695963  0  0  0.147605  0  3.93025  0  0  0.152523  0  3.951123  0  -0.056463  0  0.014702  0.144373  0  3.916129  0
C  C58  1  0.51270230  0.43659416  0.85701663  1  0  0.130285  0  3.69615  0  0  0.147621  0  3.93035  0  0  0.152536  0  3.951229  0  -0.056367  0  0.014642  0.144389  0  3.916224  0
C  C59  1  0.32516368  0.51754248  0.15619228  1  0  -0.16275  0  3.71572  0  0  -0.180133  0  3.958849  0  0  -0.187962  0  3.980209  0  -0.000145  0  -0.08844  -0.174655  0  3.944638  0
C  C60  1  0.67482427  0.48245295  0.84379474  1  0  -0.16283  0  3.715318  0  0  -0.180219  0  3.958479  0  0  -0.188052  0  3.979841  0  0.005672  0  -0.088456  -0.174744  0  3.944278  0
C  C61  1  0.20151399  0.35913429  0.12668507  1  0  0.103493  0  3.747063  0  0  0.076018  0  3.998275  0  0  0.082556  0  4.017543  0  0.395077  0  0.030591  0.071458  0  3.985405  0
C  C62  1  0.79847978  0.64086829  0.87330569  1  0  0.103505  0  3.746844  0  0  0.076022  0  3.998072  0  0  0.082568  0  4.017333  0  0.394456  0  0.030509  0.071466  0  3.985192  0
C  C63  1  0.62382362  0.73572276  0.16926911  1  0  -0.000479  0  3.717246  0  0  -0.063305  0  3.970153  0  0  -0.058697  0  3.981042  0  0.351483  0  -0.053991  -0.066415  0  3.962266  0
C  C64  1  0.37617267  0.26426910  0.83072587  1  0  -0.000405  0  3.717662  0  0  -0.063407  0  3.970675  0  0  -0.0588  0  3.981577  0  0.347136  0  -0.053984  -0.066519  0  3.962783  0
C  C65  1  0.55276338  0.89410830  0.27788162  1  0  0.186905  0  3.832714  0  0  0.175193  0  4.07953  0  0  0.184826  0  4.099898  0  0.37578  0  0.090897  0.169192  0  4.064486  0
C  C66  1  0.44723979  0.10588832  0.72211245  1  0  0.186923  0  3.83249  0  0  0.175119  0  4.079432  0  0  0.184753  0  4.099801  0  0.376072  0  0.090825  0.169114  0  4.064391  0
C  C67  1  0.51971458  0.02470163  0.29826508  1  0  0.044385  0  3.767296  0  0  0.070782  0  4.002751  0  0  0.067813  0  4.027319  0  0.026886  0  -0.025699  0.073653  0  3.985469  0
C  C68  1  0.48028237  0.97529380  0.70172954  1  0  0.044547  0  3.767096  0  0  0.070963  0  4.002574  0  0  0.067999  0  4.027137  0  0.026993  0  -0.02562  0.073834  0  3.985292  0
C  C69  1  0.50011304  0.06249897  0.38480453  1  0  -0.177479  0  3.767321  0  0  -0.203097  0  4.01424  0  0  -0.203733  0  4.034119  0  -0.08216  0  -0.106625  -0.202823  0  3.999912  0
C  C70  1  0.49989410  0.93749884  0.61519072  1  0  -0.177521  0  3.767238  0  0  -0.203136  0  4.014135  0  0  -0.203769  0  4.034013  0  -0.082134  0  -0.10665  -0.202863  0  3.999808  0
C  C71  1  0.51463516  0.98003604  0.45530120  1  0  0.00942  0  3.851445  0  0  0.023712  0  4.090485  0  0  0.02337  0  4.112128  0  -0.082328  0  -0.03806  0.02455  0  4.075466  0
C  C72  1  0.48536623  0.01995700  0.54469244  1  0  0.00922  0  3.851653  0  0  0.023579  0  4.090608  0  0  0.023188  0  4.112344  0  -0.120384  0  -0.038143  0.024417  0  4.075588  0
C  C73  1  0.55813187  0.85803910  0.43521557  1  0  -0.112967  0  3.798474  0  0  -0.137598  0  4.055915  0  0  -0.136457  0  4.073922  0  -0.007993  0  -0.108972  -0.138528  0  4.043347  0
C  C74  1  0.44186832  0.14195156  0.56477449  1  0  -0.112866  0  3.798432  0  0  -0.137495  0  4.055856  0  0  -0.13635  0  4.07386  0  -0.008201  0  -0.108884  -0.138412  0  4.043272  0
C  C75  1  0.57488982  0.81483091  0.34873669  1  0  -0.203041  0  3.802645  0  0  -0.220264  0  4.058692  0  0  -0.22574  0  4.078488  0  -0.09252  0  -0.120781  -0.215598  0  4.043618  0
C  C76  1  0.42511394  0.18516690  0.65125686  1  0  -0.203275  0  3.802711  0  0  -0.220459  0  4.058805  0  0  -0.225933  0  4.0786  0  -0.092909  0  -0.12086  -0.215792  0  4.04373  0
C  C77  1  0.51157613  0.12415652  0.22919566  1  0  -0.33587  0  3.748342  0  0  -0.417406  0  3.983484  0  0  -0.419215  0  3.994372  0  -0.080393  0  -0.253318  -0.416069  0  3.975563  0
C  C78  1  0.48842235  0.87583296  0.77079479  1  0  -0.335841  0  3.748166  0  0  -0.417382  0  3.983272  0  0  -0.419196  0  3.994162  0  -0.083293  0  -0.2533  -0.416035  0  3.975351  0
C  C79  1  0.06426356  0.95495780  0.21309206  1  0  0.140528  0  3.699043  0  0  0.109844  0  3.952253  0  0  0.11762  0  3.970718  0  0.486787  0  0.050878  0.105169  0  3.939582  0
C  C80  1  0.93573471  0.04504479  0.78690712  1  0  0.140322  0  3.699133  0  0  0.109681  0  3.952322  0  0  0.117465  0  3.970791  0  0.486763  0  0.05083  0.105006  0  3.939654  0
C  C81  1  0.08542067  0.88936010  0.28946037  1  0  -0.151419  0  3.681052  0  0  -0.168444  0  3.927686  0  0  -0.176212  0  3.948515  0  0.000697  0  -0.076274  -0.164254  0  3.914787  0
C  C82  1  0.91459698  0.11065202  0.71054356  1  0  -0.151428  0  3.681268  0  0  -0.168399  0  3.927877  0  0  -0.176158  0  3.948707  0  0.000542  0  -0.0763  -0.164213  0  3.914979  0
C  C83  1  0.06535969  0.73400058  0.27672239  1  0  0.131759  0  3.694252  0  0  0.145345  0  3.93573  0  0  0.150342  0  3.957011  0  -0.041667  0  0.016665  0.142113  0  3.921825  0
C  C84  1  0.93465274  0.26600558  0.72328322  1  0  0.131786  0  3.694193  0  0  0.145266  0  3.935931  0  0  0.150267  0  3.957224  0  -0.041869  0  0.016716  0.142039  0  3.922023  0
C  C85  1  0.01722243  0.64994280  0.18640876  1  0  -0.177831  0  3.706021  0  0  -0.193129  0  3.950415  0  0  -0.201294  0  3.970858  0  0.014524  0  -0.08544  -0.187857  0  3.937169  0
C  C86  1  0.98278603  0.35006216  0.81359699  1  0  -0.177889  0  3.706139  0  0  -0.193149  0  3.950512  0  0  -0.201321  0  3.970975  0  0.014228  0  -0.085476  -0.187863  0  3.937227  0
C  C87  1  0.99862706  0.72407869  0.11385962  1  0  0.13706  0  3.7212  0  0  0.103717  0  3.978202  0  0  0.111702  0  3.996976  0  0.4611  0  0.042163  0.098235  0  3.965519  0
C  C88  1  0.00136499  0.27592270  0.88614868  1  0  0.136849  0  3.721771  0  0  0.103533  0  3.97873  0  0  0.11152  0  3.997504  0  0.461088  0  0.042054  0.09809  0  3.966056  0
C  C89  1  0.10386300  0.65923064  0.35560274  1  0  -0.005618  0  3.712843  0  0  -0.068977  0  3.967179  0  0  -0.064756  0  3.978385  0  0.358774  0  -0.050774  -0.071662  0  3.958659  0
C  C90  1  0.89614909  0.34078385  0.64440665  1  0  -0.005396  0  3.712539  0  0  -0.068942  0  3.967254  0  0  -0.064758  0  3.978519  0  0.358584  0  -0.050772  -0.071629  0  3.958734  0
C  C91  1  0.91528232  0.64669033  0.45696995  1  0  0.19913  0  3.819083  0  0  0.18588  0  4.066305  0  0  0.1954  0  4.086394  0  0.394027  0  0.092956  0.17946  0  4.053194  0
C  C92  1  0.08472931  0.35332775  0.54303962  1  0  0.19916  0  3.819023  0  0  0.185949  0  4.066122  0  0  0.195472  0  4.086209  0  0.394557  0  0.092949  0.179529  0  4.053012  0
C  C93  1  0.89812206  0.68201583  0.54682785  1  0  0.039047  0  3.760572  0  0  0.069201  0  3.993354  0  0  0.066932  0  4.017186  0  -0.071289  0  -0.02556  0.069109  0  3.979109  0
C  C94  1  0.10189690  0.31800343  0.45318591  1  0  0.039023  0  3.760492  0  0  0.06926  0  3.993122  0  0  0.066977  0  4.016985  0  -0.072128  0  -0.025393  0.069167  0  3.978881  0
C  C95  1  0.73629217  0.62203518  0.56137187  1  0  -0.16283  0  3.750025  0  0  -0.189161  0  3.99343  0  0  -0.190665  0  4.014239  0  0.002262  0  -0.101045  -0.189488  0  3.98212  0
C  C96  1  0.26372996  0.37799720  0.43864308  1  0  -0.162837  0  3.749782  0  0  -0.189236  0  3.993186  0  0  -0.19077  0  4.01397  0  0.002626  0  -0.10126  -0.189566  0  3.981875  0
C  C97  1  0.58505752  0.52756567  0.49136039  1  0  0.022659  0  3.820347  0  0  0.036419  0  4.059604  0  0  0.034964  0  4.084642  0  0.009027  0  -0.030645  0.036692  0  4.044306  0
C  C98  1  0.41497170  0.47245836  0.50865549  1  0  0.022489  0  3.820154  0  0  0.036338  0  4.059368  0  0  0.034877  0  4.084423  0  -0.026949  0  -0.030602  0.036616  0  4.044066  0
C  C99  1  0.60668640  0.49099353  0.40411465  1  0  -0.106357  0  3.803929  0  0  -0.130097  0  4.061774  0  0  -0.129695  0  4.080941  0  -0.016715  0  -0.102303  -0.129539  0  4.048442  0
C  C100  1  0.39333019  0.50902097  0.59590119  1  0  -0.106444  0  3.803995  0  0  -0.130186  0  4.061779  0  0  -0.129785  0  4.080946  0  -0.01671  0  -0.102377  -0.12962  0  4.048449  0
C  C101  1  0.76658845  0.54775270  0.38686887  1  0  -0.196045  0  3.78327  0  0  -0.215389  0  4.04516  0  0  -0.22051  0  4.06437  0  -0.065879  0  -0.11732  -0.21262  0  4.032881  0
C  C102  1  0.23342358  0.45225942  0.61314631  1  0  -0.196057  0  3.783076  0  0  -0.215341  0  4.044955  0  0  -0.220461  0  4.064166  0  -0.066116  0  -0.117265  -0.212578  0  4.032682  0
C  C103  1  0.05404910  0.78199512  0.62404253  1  0  -0.326274  0  3.748526  0  0  -0.408544  0  3.982843  0  0  -0.409728  0  3.992403  0  -0.073357  0  -0.2432  -0.407191  0  3.977885  0
C  C104  1  0.94597218  0.21802653  0.37596835  1  0  -0.326129  0  3.748336  0  0  -0.40835  0  3.982664  0  0  -0.409525  0  3.992234  0  -0.073499  0  -0.243143  -0.407003  0  3.977698  0
N  N105  1  0.23052619  0.24611412  0.08393412  1  0  -0.35326  0  3.264302  0  0  -0.27611  0  3.532177  0  0  -0.296991  0  3.552512  0  -1.226344  0  -0.339523  -0.261352  0  3.517738  0
N  N106  1  0.76946573  0.75388250  0.91606265  1  0  -0.353199  0  3.264267  0  0  -0.276042  0  3.532141  0  0  -0.296919  0  3.55246  0  -1.225861  0  -0.339445  -0.261295  0  3.517727  0
N  N107  1  0.56977231  0.85256866  0.19209619  1  0  -0.399453  0  3.360231  0  0  -0.340378  0  3.606342  0  0  -0.35982  0  3.619224  0  -1.259534  0  -0.446224  -0.326553  0  3.596497  0
N  N108  1  0.43023257  0.14742916  0.80789881  1  0  -0.399223  0  3.360045  0  0  -0.340105  0  3.60626  0  0  -0.359548  0  3.619149  0  -1.255222  0  -0.446201  -0.326271  0  3.596399  0
N  N109  1  0.02317200  0.87510714  0.12628426  1  0  -0.345635  0  3.258744  0  0  -0.270674  0  3.530764  0  0  -0.291176  0  3.550443  0  -1.257116  0  -0.333835  -0.256252  0  3.516562  0
N  N110  1  0.97682230  0.12489425  0.87371769  1  0  -0.345534  0  3.258886  0  0  -0.270624  0  3.530928  0  0  -0.291122  0  3.550602  0  -1.25691  0  -0.333824  -0.256199  0  3.516713  0
N  N111  1  0.07402168  0.70918096  0.44040304  1  0  -0.391023  0  3.361471  0  0  -0.334329  0  3.610772  0  0  -0.35259  0  3.624711  0  -1.213513  0  -0.439713  -0.319628  0  3.597464  0
N  N112  1  0.92598598  0.29083593  0.55960338  1  0  -0.391141  0  3.361459  0  0  -0.334461  0  3.610808  0  0  -0.352711  0  3.624759  0  -1.21375  0  -0.439766  -0.319758  0  3.597501  0
N  N113  1  0.75132964  0.15545725  0.03788507  1  0  0.695879  0  4.148144  0  0  0.722942  0  4.452027  0  0  0.751205  0  4.456959  0  0.834014  0  0.09663  0.705581  0  4.448281  0
N  N114  1  0.24862313  0.84450600  0.96209465  1  0  0.694764  0  4.149428  0  0  0.7225  0  4.452541  0  0  0.750772  0  4.457473  0  0.832397  0  0.096433  0.705132  0  4.448791  0
O  O115  1  0.83394676  0.08671315  0.07690081  1  0  -0.528089  0  1.795159  0  0  -0.499586  0  2.042811  0  0  -0.51764  0  2.03254  0  -0.607918  0  -0.228113  -0.487701  0  2.049795  0
O  O116  1  0.16604998  0.91329539  0.92309264  1  0  -0.527774  0  1.795879  0  0  -0.499481  0  2.04333  0  0  -0.517541  0  2.033041  0  -0.607356  0  -0.228045  -0.487592  0  2.050314  0
O  O117  1  0.77720826  0.28866205  0.07891987  1  0  -0.462185  0  1.734266  0  0  -0.456592  0  1.948051  0  0  -0.469096  0  1.941058  0  -0.540087  0  -0.193515  -0.448814  0  1.953694  0
O  O118  1  0.22274728  0.71132027  0.92103169  1  0  -0.461517  0  1.73446  0  0  -0.456285  0  1.948142  0  0  -0.468789  0  1.941138  0  -0.53972  0  -0.193488  -0.448494  0  1.953768  0
O  O119  1  0.64752425  0.08667978  0.96067854  1  0  -0.451901  0  1.811712  0  0  -0.445211  0  2.037412  0  0  -0.458538  0  2.031367  0  -0.545814  0  -0.179174  -0.436761  0  2.0413  0
O  O120  1  0.35238517  0.91321911  0.03931795  1  0  -0.451658  0  1.811674  0  0  -0.445188  0  2.037233  0  0  -0.458499  0  2.031167  0  -0.545133  0  -0.179096  -0.436742  0  2.041131  0
