# generated using pymatgen
data_AgH9C10SN3(OF)3
_symmetry_space_group_name_H-M   'P 1'
_cell_length_a   7.74869259
_cell_length_b   8.01466154
_cell_length_c   12.00127644
_cell_angle_alpha   90.28298842
_cell_angle_beta   95.33219962
_cell_angle_gamma   111.73535410
_symmetry_Int_Tables_number   1
_chemical_formula_structural   AgH9C10SN3(OF)3
_chemical_formula_sum   'Ag2 H18 C20 S2 N6 O6 F6'
_cell_volume   688.70793892
_cell_formula_units_Z   2
loop_
 _symmetry_equiv_pos_site_id
 _symmetry_equiv_pos_as_xyz
  1  'x, y, z'
loop_
 _atom_site_type_symbol
 _atom_site_label
 _atom_site_symmetry_multiplicity
 _atom_site_fract_x
 _atom_site_fract_y
 _atom_site_fract_z
 _atom_site_occupancy
 _atom_site_hle17_bader_spin_density
 _atom_site_hle17_ddec_charge
 _atom_site_hle17_ddec_spin_density
 _atom_site_hle17_ddec_sum_bond_order
 _atom_site_hle17_magmom
 _atom_site_hse06_10hf_bader_spin_density
 _atom_site_hse06_10hf_ddec_charge
 _atom_site_hse06_10hf_ddec_spin_density
 _atom_site_hse06_10hf_ddec_sum_bond_order
 _atom_site_hse06_10hf_magmom
 _atom_site_hse06_bader_spin_density
 _atom_site_hse06_ddec_charge
 _atom_site_hse06_ddec_spin_density
 _atom_site_hse06_ddec_sum_bond_order
 _atom_site_hse06_magmom
 _atom_site_pbe_bader_spin_density
 _atom_site_pbe_cm5_charge
 _atom_site_pbe_ddec_charge
 _atom_site_pbe_ddec_spin_density
 _atom_site_pbe_ddec_sum_bond_order
 _atom_site_pbe_magmom
Ag  Ag0  1  0.14913450  0.42279936  0.21691773  1  0  0.616332  0  1.538507  0  0  0.487481  0  2.015704  0  0  0.5078  0  1.971814  0  0  0.524573  0.474311  0  2.045522  0
Ag  Ag1  1  0.85086724  0.57720272  0.78308339  1  0  0.616339  0  1.538557  0  0  0.487469  0  2.015778  0  0  0.507789  0  1.97189  0  0  0.524584  0.474306  0  2.045599  0
H  H2  1  0.59346406  0.37250307  0.42436779  1  0  0.174102  0  0.927866  0  0  0.191469  0  0.985105  0  0  0.193909  0  0.983357  0  0  0.114605  0.189755  0  0.98616  0
H  H3  1  0.40653612  0.62749499  0.57562989  1  0  0.174101  0  0.927823  0  0  0.191474  0  0.98506  0  0  0.193914  0  0.983312  0  0  0.114615  0.18976  0  0.986114  0
H  H4  1  0.70936726  0.30814943  0.54266184  1  0  0.162616  0  0.932993  0  0  0.176821  0  0.998375  0  0  0.179084  0  0.996681  0  0  0.112624  0.17513  0  0.999637  0
H  H5  1  0.29063033  0.69184863  0.45733651  1  0  0.162559  0  0.933029  0  0  0.176778  0  0.998405  0  0  0.179041  0  0.996711  0  0  0.112602  0.175085  0  0.999667  0
H  H6  1  0.59654536  0.14972774  0.42786125  1  0  0.166388  0  0.917676  0  0  0.184704  0  0.973969  0  0  0.186898  0  0.972453  0  0  0.115013  0.183103  0  0.974973  0
H  H7  1  0.40345275  0.85027166  0.57213714  1  0  0.166378  0  0.917661  0  0  0.184691  0  0.973967  0  0  0.186884  0  0.972451  0  0  0.11501  0.183089  0  0.974969  0
H  H8  1  0.18876758  0.79046189  0.23794862  1  0  0.146218  0  0.931561  0  0  0.15398  0  1.001765  0  0  0.157447  0  0.997118  0  0  0.119817  0.151446  0  1.005164  0
H  H9  1  0.81122769  0.20954021  0.76204877  1  0  0.146258  0  0.931657  0  0  0.154031  0  1.001817  0  0  0.157507  0  0.997174  0  0  0.119819  0.151499  0  1.005214  0
H  H10  1  0.96993638  0.73787901  0.15649634  1  0  0.144671  0  0.928927  0  0  0.155335  0  0.995281  0  0  0.157314  0  0.993809  0  0  0.120917  0.153903  0  0.996391  0
H  H11  1  0.03005705  0.26211503  0.84350091  1  0  0.144646  0  0.928935  0  0  0.155296  0  0.995279  0  0  0.157282  0  0.99382  0  0  0.120899  0.153864  0  0.996397  0
H  H12  1  0.24704527  0.99963691  0.96678101  1  0  0.116669  0  0.963475  0  0  0.126846  0  1.022666  0  0  0.129353  0  1.023225  0  0  0.10586  0.125081  0  1.022369  0
H  H13  1  0.75294922  0.00035981  0.03321549  1  0  0.116681  0  0.963443  0  0  0.126857  0  1.022631  0  0  0.129367  0  1.023186  0  0  0.105851  0.12509  0  1.022334  0
H  H14  1  0.38003619  0.89289026  0.81488245  1  0  0.104484  0  0.953938  0  0  0.114867  0  1.011594  0  0  0.117211  0  1.010365  0  0  0.106592  0.113123  0  1.012545  0
H  H15  1  0.61996683  0.10710510  0.18511789  1  0  0.104495  0  0.954001  0  0  0.114881  0  1.011653  0  0  0.117224  0  1.010428  0  0  0.106587  0.113134  0  1.012606  0
H  H16  1  0.40647915  0.58686201  0.82807456  1  0  0.11615  0  0.971409  0  0  0.123976  0  1.033675  0  0  0.126854  0  1.033382  0  0  0.105711  0.121823  0  1.034176  0
H  H17  1  0.59352982  0.41313870  0.17193034  1  0  0.116149  0  0.971382  0  0  0.123967  0  1.033672  0  0  0.126836  0  1.033389  0  0  0.105705  0.121811  0  1.034173  0
H  H18  1  0.30050308  0.40969490  0.99517797  1  0  0.078597  0  0.947087  0  0  0.086804  0  1.014016  0  0  0.088974  0  1.012179  0  0  0.112502  0.085246  0  1.015341  0
H  H19  1  0.69950330  0.59030581  0.00482677  1  0  0.078624  0  0.947113  0  0  0.086821  0  1.014051  0  0  0.088993  0  1.012214  0  0  0.112518  0.085263  0  1.015376  0
C  C20  1  0.79423809  0.82968280  0.39753811  1  0  0.592256  0  3.683972  0  0  0.519804  0  4.057034  0  0  0.548075  0  4.029532  0  0  0.284229  0.499886  0  4.076262  0
C  C21  1  0.20576210  0.17032197  0.60246210  1  0  0.592355  0  3.683817  0  0  0.51986  0  4.056937  0  0  0.548113  0  4.029481  0  0  0.284251  0.499954  0  4.076149  0
C  C22  1  0.84574686  0.35185638  0.39669425  1  0  0.455091  0  3.687643  0  0  0.436305  0  3.972408  0  0  0.45094  0  3.987549  0  0  0.21774  0.426087  0  3.962434  0
C  C23  1  0.15425331  0.64814167  0.60330593  1  0  0.455103  0  3.687602  0  0  0.436324  0  3.972372  0  0  0.450959  0  3.987514  0  0  0.217766  0.42611  0  3.962398  0
C  C24  1  0.67698034  0.29223718  0.45133743  1  0  -0.386996  0  3.712578  0  0  -0.455828  0  3.938168  0  0  -0.459297  0  3.942015  0  0  -0.211804  -0.452975  0  3.935401  0
C  C25  1  0.32301725  0.70776088  0.54866092  1  0  -0.386921  0  3.712514  0  0  -0.45577  0  3.938119  0  0  -0.459239  0  3.941968  0  0  -0.21179  -0.452918  0  3.935354  0
C  C26  1  0.20330624  0.76122708  0.06216963  1  0  0.267367  0  3.718752  0  0  0.270414  0  3.959047  0  0  0.277165  0  3.981531  0  0  0.122346  0.265972  0  3.943758  0
C  C27  1  0.79668980  0.23877367  0.93782947  1  0  0.26748  0  3.718623  0  0  0.270497  0  3.958929  0  0  0.277262  0  3.981421  0  0  0.122349  0.266037  0  3.943666  0
C  C28  1  0.12109529  0.81700812  0.15877533  1  0  -0.269987  0  3.766207  0  0  -0.308213  0  3.995803  0  0  -0.310297  0  4.001528  0  0  -0.12814  -0.306678  0  3.992041  0
C  C29  1  0.87889869  0.18299399  0.84122116  1  0  -0.270007  0  3.76639  0  0  -0.308184  0  3.99592  0  0  -0.310323  0  4.001731  0  0  -0.128151  -0.306648  0  3.992182  0
C  C30  1  0.14754176  0.00557567  0.16253788  1  0  0.414269  0  3.628965  0  0  0.399279  0  3.897303  0  0  0.411772  0  3.912791  0  0  0.224847  0.390618  0  3.887062  0
C  C31  1  0.85245146  0.99443450  0.83745943  1  0  0.413985  0  3.62884  0  0  0.398956  0  3.897193  0  0  0.41146  0  3.912709  0  0  0.224688  0.390295  0  3.886949  0
C  C32  1  0.25933451  0.86872887  0.97125633  1  0  -0.174633  0  3.720169  0  0  -0.192045  0  3.964217  0  0  -0.200276  0  3.987021  0  0  -0.087351  -0.186723  0  3.948955  0
C  C33  1  0.74066231  0.13127054  0.02874198  1  0  -0.174694  0  3.720156  0  0  -0.192077  0  3.964182  0  0  -0.200306  0  3.986978  0  0  -0.087358  -0.186747  0  3.948921  0
C  C34  1  0.33400439  0.80814734  0.88550987  1  0  0.00573  0  3.717777  0  0  -0.010754  0  3.965503  0  0  -0.00688  0  3.984056  0  0  -0.065861  -0.013017  0  3.952828  0
C  C35  1  0.66599915  0.19184936  0.11449134  1  0  0.005734  0  3.717819  0  0  -0.010753  0  3.96554  0  0  -0.006881  0  3.984094  0  0  -0.065813  -0.013015  0  3.952861  0
C  C36  1  0.34941488  0.64070476  0.89272513  1  0  -0.127119  0  3.727214  0  0  -0.139934  0  3.977017  0  0  -0.147891  0  3.999479  0  0  -0.087654  -0.134777  0  3.962033  0
C  C37  1  0.65059098  0.35929461  0.10727874  1  0  -0.127107  0  3.727154  0  0  -0.139914  0  3.97695  0  0  -0.147865  0  3.999418  0  0  -0.087675  -0.134757  0  3.961963  0
C  C38  1  0.28997988  0.54097501  0.98595432  1  0  0.126204  0  3.71458  0  0  0.095131  0  3.970758  0  0  0.102232  0  3.988895  0  0  0.040831  0.090497  0  3.958438  0
C  C39  1  0.71002391  0.45902571  0.01404943  1  0  0.126142  0  3.714661  0  0  0.095077  0  3.970835  0  0  0.102178  0  3.988968  0  0  0.040795  0.090444  0  3.958512  0
S  S40  1  0.59612665  0.75074377  0.28479637  1  0  1.110922  0  5.837649  0  0  1.008028  0  6.380071  0  0  1.052148  0  6.359071  0  0  0.482251  0.977793  0  6.393523  0
S  S41  1  0.40387404  0.24925562  0.71520552  1  0  1.110969  0  5.837571  0  0  1.008089  0  6.379985  0  0  1.052212  0  6.358992  0  0  0.482275  0.977852  0  6.393439  0
N  N42  1  0.97989324  0.39886079  0.35037528  1  0  -0.494705  0  2.987203  0  0  -0.450253  0  3.31454  0  0  -0.465907  0  3.315705  0  0  -0.374173  -0.44001  0  3.314032  0
N  N43  1  0.02010928  0.60113995  0.64962505  1  0  -0.494712  0  2.98716  0  0  -0.450262  0  3.314492  0  0  -0.465916  0  3.315658  0  0  -0.374193  -0.44002  0  3.313989  0
N  N44  1  0.21888793  0.59918740  0.06952361  1  0  -0.366283  0  3.289639  0  0  -0.29552  0  3.574967  0  0  -0.313768  0  3.591216  0  0  -0.341562  -0.283151  0  3.563665  0
N  N45  1  0.78111199  0.40081334  0.93047739  1  0  -0.366291  0  3.28961  0  0  -0.295535  0  3.574959  0  0  -0.313784  0  3.591208  0  0  -0.341529  -0.283162  0  3.563666  0
N  N46  1  0.17076334  0.15747924  0.16642267  1  0  -0.444826  0  2.828674  0  0  -0.399521  0  3.115836  0  0  -0.413543  0  3.120476  0  0  -0.331356  -0.390346  0  3.112979  0
N  N47  1  0.82922596  0.84251078  0.83357014  1  0  -0.444593  0  2.828362  0  0  -0.399244  0  3.115481  0  0  -0.413262  0  3.120124  0  0  -0.331192  -0.390068  0  3.112618  0
O  O48  1  0.49861305  0.56154902  0.30938468  1  0  -0.625662  0  2.03889  0  0  -0.582789  0  2.310144  0  0  -0.601453  0  2.293913  0  0  -0.338762  -0.569569  0  2.320646  0
O  O49  1  0.50139128  0.43845305  0.69061743  1  0  -0.625722  0  2.038789  0  0  -0.582855  0  2.310041  0  0  -0.601525  0  2.293811  0  0  -0.338801  -0.569636  0  2.320546  0
O  O50  1  0.68786281  0.77965290  0.18195919  1  0  -0.601081  0  1.979994  0  0  -0.560752  0  2.227823  0  0  -0.579829  0  2.217712  0  0  -0.33318  -0.547279  0  2.234292  0
O  O51  1  0.31213323  0.22034784  0.81804075  1  0  -0.601077  0  1.980131  0  0  -0.560768  0  2.227993  0  0  -0.579834  0  2.217855  0  0  -0.333177  -0.547291  0  2.234466  0
O  O52  1  0.49354691  0.86719767  0.30430335  1  0  -0.614187  0  1.986669  0  0  -0.574854  0  2.233291  0  0  -0.594478  0  2.221645  0  0  -0.335437  -0.560879  0  2.240591  0
O  O53  1  0.50645014  0.13279902  0.69569996  1  0  -0.614234  0  1.986665  0  0  -0.574873  0  2.233229  0  0  -0.594496  0  2.221575  0  0  -0.335447  -0.560913  0  2.240562  0
F  F54  1  0.89357451  0.00763666  0.38923919  1  0  -0.230377  0  1.244096  0  0  -0.197379  0  1.429462  0  0  -0.206991  0  1.414169  0  0  -0.093928  -0.19005  0  1.43981  0
F  F55  1  0.10642930  0.99236407  0.61076039  1  0  -0.230421  0  1.243978  0  0  -0.197421  0  1.429363  0  0  -0.207028  0  1.414079  0  0  -0.093944  -0.190091  0  1.439708  0
F  F56  1  0.91255250  0.74120592  0.38934103  1  0  -0.237221  0  1.223807  0  0  -0.18577  0  1.387868  0  0  -0.196685  0  1.374634  0  0  -0.091712  -0.177659  0  1.396882  0
F  F57  1  0.08745078  0.25879347  0.61065935  1  0  -0.237221  0  1.223956  0  0  -0.185729  0  1.38801  0  0  -0.196637  0  1.374787  0  0  -0.091685  -0.177617  0  1.397022  0
F  F58  1  0.73242455  0.80363068  0.50057870  1  0  -0.224987  0  1.200451  0  0  -0.177645  0  1.361505  0  0  -0.189896  0  1.349284  0  0  -0.089548  -0.170674  0  1.371913  0
F  F59  1  0.26758211  0.19637408  0.49942274  1  0  -0.224998  0  1.20037  0  0  -0.177665  0  1.361458  0  0  -0.189908  0  1.349242  0  0  -0.089551  -0.170696  0  1.371863  0
