# generated using pymatgen
data_AgH13C18SN2O7
_symmetry_space_group_name_H-M   'P 1'
_cell_length_a   7.83505038
_cell_length_b   9.77543263
_cell_length_c   11.66830251
_cell_angle_alpha   82.43657316
_cell_angle_beta   86.11294732
_cell_angle_gamma   79.89608785
_symmetry_Int_Tables_number   1
_chemical_formula_structural   AgH13C18SN2O7
_chemical_formula_sum   'Ag2 H26 C36 S2 N4 O14'
_cell_volume   871.25704485
_cell_formula_units_Z   2
loop_
 _symmetry_equiv_pos_site_id
 _symmetry_equiv_pos_as_xyz
  1  'x, y, z'
loop_
 _atom_site_type_symbol
 _atom_site_label
 _atom_site_symmetry_multiplicity
 _atom_site_fract_x
 _atom_site_fract_y
 _atom_site_fract_z
 _atom_site_occupancy
 _atom_site_pbe_bader_spin_density
 _atom_site_pbe_cm5_charge
 _atom_site_pbe_ddec_charge
 _atom_site_pbe_ddec_spin_density
 _atom_site_pbe_ddec_sum_bond_order
 _atom_site_pbe_magmom
Ag  Ag0  1  0.65563393  0.57912269  0.94623356  1  0  0.471772  0.34458  0  1.939112  0
Ag  Ag1  1  0.34436412  0.42087775  0.05376704  1  0  0.471785  0.3446  0  1.939152  0
H  H2  1  0.88217063  0.38072063  0.11843865  1  0  0.114554  0.092945  0  1.034363  0
H  H3  1  0.11782974  0.61928088  0.88156174  1  0  0.114546  0.09294  0  1.034355  0
H  H4  1  0.10274835  0.16923442  0.12748240  1  0  0.1087  0.124395  0  1.034932  0
H  H5  1  0.89724972  0.83076602  0.87251733  1  0  0.108692  0.124389  0  1.034895  0
H  H6  1  0.86340491  0.40839556  0.76216508  1  0  0.119239  0.099885  0  1.001981  0
H  H7  1  0.13659696  0.59160491  0.23783622  1  0  0.119269  0.099919  0  1.002111  0
H  H8  1  0.08132022  0.19436913  0.75364705  1  0  0.111179  0.120253  0  1.007841  0
H  H9  1  0.91868121  0.80563345  0.24635233  1  0  0.111171  0.120223  0  1.007868  0
H  H10  1  0.26074460  0.98722212  0.12959908  1  0  0.113777  0.129918  0  0.993597  0
H  H11  1  0.73925322  0.01277936  0.87040142  1  0  0.11375  0.129874  0  0.993637  0
H  H12  1  0.47046984  0.76694899  0.12378995  1  0  0.114394  0.092952  0  1.027666  0
H  H13  1  0.52952846  0.23305041  0.87620988  1  0  0.11439  0.092966  0  1.027652  0
H  H14  1  0.25831966  0.01679861  0.75479229  1  0  0.111021  0.125869  0  1.016249  0
H  H15  1  0.74167945  0.98320289  0.24520729  1  0  0.111022  0.125859  0  1.016244  0
H  H16  1  0.46106032  0.79334658  0.76784205  1  0  0.11698  0.093372  0  1.035827  0
H  H17  1  0.53894110  0.20665599  0.23215819  1  0  0.116994  0.09337  0  1.035777  0
H  H18  1  0.31617547  0.69802127  0.33349581  1  0  0.111297  0.114726  0  1.023462  0
H  H19  1  0.68382216  0.30198128  0.66650201  1  0  0.111266  0.114696  0  1.023466  0
H  H20  1  0.50841055  0.89462596  0.59594799  1  0  0.111131  0.107158  0  1.026914  0
H  H21  1  0.49158799  0.10537239  0.40405194  1  0  0.111124  0.107156  0  1.026908  0
H  H22  1  0.83510967  0.55399585  0.44918815  1  0  0.112958  0.123438  0  1.033031  0
H  H23  1  0.16488783  0.44600144  0.55081194  1  0  0.112974  0.123442  0  1.033063  0
H  H24  1  0.98902675  0.94503888  0.42288103  1  0  0.303074  0.353923  0  0.989598  0
H  H25  1  0.01097202  0.05495842  0.57711901  1  0  0.303059  0.353938  0  0.989556  0
H  H26  1  0.06435117  0.64155682  0.64593008  1  0  0.308976  0.377735  0  0.952709  0
H  H27  1  0.93565351  0.35844263  0.35407036  1  0  0.309001  0.377767  0  0.952725  0
C  C28  1  0.93025763  0.33552213  0.03959457  1  0  0.041553  0.085952  0  3.938401  0
C  C29  1  0.06974174  0.66447833  0.96040340  1  0  0.041572  0.08598  0  3.93834  0
C  C30  1  0.05470450  0.21518108  0.04309189  1  0  -0.082615  -0.176923  0  3.949108  0
C  C31  1  0.94529611  0.78481939  0.95690860  1  0  -0.082633  -0.176976  0  3.949133  0
C  C32  1  0.91923851  0.35012779  0.84077301  1  0  0.04596  0.087468  0  3.916247  0
C  C33  1  0.08076590  0.64987270  0.15922990  1  0  0.045948  0.087424  0  3.916241  0
C  C34  1  0.04217695  0.22962264  0.83753702  1  0  -0.07416  -0.139295  0  3.908125  0
C  C35  1  0.95782470  0.77037889  0.16246333  1  0  -0.074209  -0.139317  0  3.90809  0
C  C36  1  0.30061641  0.95035080  0.04622563  1  0  -0.079969  -0.169216  0  3.935282  0
C  C37  1  0.69938420  0.04964966  0.95377486  1  0  -0.079938  -0.169144  0  3.935332  0
C  C38  1  0.41745255  0.82628381  0.04473213  1  0  0.041081  0.082401  0  3.949504  0
C  C39  1  0.58254655  0.17371769  0.95526832  1  0  0.041059  0.082331  0  3.949514  0
C  C40  1  0.29952771  0.96752027  0.83982183  1  0  -0.077587  -0.158886  0  3.898344  0
C  C41  1  0.70047244  0.03248229  0.16017761  1  0  -0.077577  -0.158881  0  3.898326  0
C  C42  1  0.41478077  0.84185524  0.84536258  1  0  0.047404  0.094411  0  3.922925  0
C  C43  1  0.58521960  0.15814627  0.15463781  1  0  0.047423  0.094532  0  3.922791  0
C  C44  1  0.11192027  0.15710963  0.94048146  1  0  0.012729  0.102704  0  3.948513  0
C  C45  1  0.88808013  0.84289189  0.05951722  1  0  0.012821  0.102828  0  3.948509  0
C  C46  1  0.23818845  0.02533678  0.94190809  1  0  0.013938  0.103636  0  3.95783  0
C  C47  1  0.76181192  0.97466473  0.05809231  1  0  0.01394  0.10362  0  3.957888  0
C  C48  1  0.58003198  0.61823729  0.38050797  1  0  -0.016752  -0.078839  0  3.964966  0
C  C49  1  0.41996840  0.38176423  0.61949156  1  0  -0.016734  -0.07879  0  3.964889  0
C  C50  1  0.42103374  0.70764521  0.38675854  1  0  -0.068333  -0.080901  0  3.91081  0
C  C51  1  0.57896436  0.29235525  0.61323948  1  0  -0.068295  -0.080838  0  3.910783  0
C  C52  1  0.39509059  0.80712805  0.46496262  1  0  -0.013295  -0.042787  0  3.981153  0
C  C53  1  0.60491179  0.19287034  0.53503631  1  0  -0.013241  -0.042775  0  3.981182  0
C  C54  1  0.52858799  0.81713304  0.53539364  1  0  -0.060972  -0.077123  0  3.91369  0
C  C55  1  0.47141181  0.18286531  0.46460710  1  0  -0.060981  -0.077128  0  3.913804  0
C  C56  1  0.68623195  0.72558832  0.53038728  1  0  -0.011791  -0.030983  0  3.961392  0
C  C57  1  0.31376960  0.27440795  0.46961361  1  0  -0.01178  -0.031039  0  3.961533  0
C  C58  1  0.71259783  0.62595117  0.45207248  1  0  -0.067306  -0.080935  0  3.893709  0
C  C59  1  0.28739893  0.37404925  0.54792902  1  0  -0.067347  -0.080977  0  3.89367  0
C  C60  1  0.22241560  0.89491355  0.47983392  1  0  0.24477  0.602841  0  4.079218  0
C  C61  1  0.77758575  0.10508379  0.52016430  1  0  0.244815  0.60293  0  4.07912  0
C  C62  1  0.82275921  0.73170135  0.61217175  1  0  0.231213  0.590428  0  4.120278  0
C  C63  1  0.17724314  0.26830224  0.38783606  1  0  0.231175  0.590469  0  4.120229  0
S  S64  1  0.61275728  0.49904960  0.27407044  1  0  0.503757  1.160098  0  6.198612  0
S  S65  1  0.38724082  0.50095085  0.72592758  1  0  0.503758  1.160083  0  6.198696  0
N  N66  1  0.86112369  0.40191598  0.94049296  1  0  -0.347224  -0.185291  0  3.604396  0
N  N67  1  0.13887819  0.59808450  0.05950748  1  0  -0.347247  -0.185323  0  3.604337  0
N  N68  1  0.47393863  0.77158884  0.94601865  1  0  -0.348803  -0.19186  0  3.613111  0
N  N69  1  0.52606175  0.22841267  0.05398174  1  0  -0.348838  -0.191961  0  3.61317  0
O  O70  1  0.68410343  0.57854248  0.17165236  1  0  -0.346046  -0.612365  0  2.321754  0
O  O71  1  0.31588988  0.42146211  0.82834627  1  0  -0.346043  -0.612375  0  2.32186  0
O  O72  1  0.73728076  0.37465666  0.31830041  1  0  -0.339441  -0.601808  0  2.246616  0
O  O73  1  0.26272176  0.62534699  0.68169539  1  0  -0.339407  -0.60178  0  2.246634  0
O  O74  1  0.44095438  0.46568316  0.25964286  1  0  -0.342746  -0.603941  0  2.303384  0
O  O75  1  0.55904697  0.53431418  0.74035536  1  0  -0.342781  -0.603983  0  2.303387  0
O  O76  1  0.10735569  0.88214913  0.40622083  1  0  -0.32255  -0.475245  0  2.328543  0
O  O77  1  0.89264519  0.11785030  0.59377719  1  0  -0.322571  -0.475304  0  2.328509  0
O  O78  1  0.19055166  0.97203392  0.55870082  1  0  -0.280289  -0.500164  0  2.229132  0
O  O79  1  0.80944791  0.02796548  0.44129982  1  0  -0.280319  -0.500186  0  2.229178  0
O  O80  1  0.96248966  0.63351885  0.59954757  1  0  -0.333569  -0.495892  0  2.34204  0
O  O81  1  0.03751280  0.36647322  0.40045630  1  0  -0.333566  -0.495884  0  2.342372  0
O  O82  1  0.80706687  0.81711997  0.68249341  1  0  -0.298033  -0.508619  0  2.125701  0
O  O83  1  0.19293615  0.18287006  0.31750379  1  0  -0.298027  -0.508689  0  2.125248  0
