# generated using pymatgen
data_H16PbC14S2O17
_symmetry_space_group_name_H-M   'P 1'
_cell_length_a   6.81212437
_cell_length_b   11.79297700
_cell_length_c   14.23845874
_cell_angle_alpha   109.84642567
_cell_angle_beta   101.51612818
_cell_angle_gamma   97.70847183
_symmetry_Int_Tables_number   1
_chemical_formula_structural   H16PbC14S2O17
_chemical_formula_sum   'H32 Pb2 C28 S4 O34'
_cell_volume   1028.64322001
_cell_formula_units_Z   2
loop_
 _symmetry_equiv_pos_site_id
 _symmetry_equiv_pos_as_xyz
  1  'x, y, z'
loop_
 _atom_site_type_symbol
 _atom_site_label
 _atom_site_symmetry_multiplicity
 _atom_site_fract_x
 _atom_site_fract_y
 _atom_site_fract_z
 _atom_site_occupancy
 _atom_site_hle17_bader_spin_density
 _atom_site_hle17_ddec_charge
 _atom_site_hle17_ddec_spin_density
 _atom_site_hle17_ddec_sum_bond_order
 _atom_site_hle17_magmom
 _atom_site_hse06_10hf_bader_spin_density
 _atom_site_hse06_10hf_ddec_charge
 _atom_site_hse06_10hf_ddec_spin_density
 _atom_site_hse06_10hf_ddec_sum_bond_order
 _atom_site_hse06_10hf_magmom
 _atom_site_hse06_bader_spin_density
 _atom_site_hse06_ddec_charge
 _atom_site_hse06_ddec_spin_density
 _atom_site_hse06_ddec_sum_bond_order
 _atom_site_hse06_magmom
 _atom_site_pbe_bader_spin_density
 _atom_site_pbe_cm5_charge
 _atom_site_pbe_ddec_charge
 _atom_site_pbe_ddec_spin_density
 _atom_site_pbe_ddec_sum_bond_order
 _atom_site_pbe_magmom
H  H0  1  0.34318138  0.42534297  0.56426721  1  0  0.439868  0  0.846665  0  0  0.408082  0  0.912697  0  0  0.418343  0  0.897843  0  0  0.305634  0.400828  0  0.92319  0
H  H1  1  0.65684407  0.57465174  0.43572644  1  0  0.439836  0  0.84682  0  0  0.408126  0  0.91267  0  0  0.418347  0  0.897863  0  0  0.3056  0.400878  0  0.923159  0
H  H2  1  0.57780461  0.43806269  0.56082037  1  0  0.439649  0  0.847863  0  0  0.408667  0  0.912746  0  0  0.419142  0  0.897557  0  0  0.305981  0.401222  0  0.923531  0
H  H3  1  0.42221416  0.56194223  0.43918040  1  0  0.43967  0  0.847941  0  0  0.408736  0  0.912678  0  0  0.419216  0  0.897481  0  0  0.306029  0.401292  0  0.923461  0
H  H4  1  0.74707280  0.98512566  0.89224223  1  0  0.448871  0  0.84145  0  0  0.415643  0  0.906833  0  0  0.426822  0  0.890636  0  0  0.303344  0.407711  0  0.9183  0
H  H5  1  0.25291883  0.01487082  0.10774890  1  0  0.448829  0  0.841489  0  0  0.415624  0  0.906832  0  0  0.426802  0  0.890637  0  0  0.303355  0.407691  0  0.9183  0
H  H6  1  0.92244961  0.90213586  0.88046632  1  0  0.44926  0  0.837269  0  0  0.417316  0  0.89954  0  0  0.428074  0  0.88384  0  0  0.306662  0.409675  0  0.910666  0
H  H7  1  0.07755168  0.09785794  0.11952914  1  0  0.449229  0  0.837323  0  0  0.417274  0  0.899609  0  0  0.42803  0  0.883915  0  0  0.306646  0.409632  0  0.910738  0
H  H8  1  0.97680723  0.71055474  0.76587498  1  0  0.43313  0  0.865187  0  0  0.400277  0  0.932559  0  0  0.410617  0  0.917473  0  0  0.298708  0.39292  0  0.943275  0
H  H9  1  0.02318407  0.28944083  0.23411587  1  0  0.433233  0  0.865042  0  0  0.400382  0  0.932403  0  0  0.410723  0  0.917315  0  0  0.298752  0.393021  0  0.943125  0
H  H10  1  0.90721732  0.67353130  0.64177485  1  0  0.438241  0  0.859462  0  0  0.404874  0  0.926453  0  0  0.415714  0  0.910708  0  0  0.296258  0.397217  0  0.937554  0
H  H11  1  0.09278109  0.32646710  0.35822092  1  0  0.43824  0  0.85947  0  0  0.404827  0  0.926525  0  0  0.415677  0  0.910765  0  0  0.296235  0.397173  0  0.937623  0
H  H12  1  0.28437192  0.93412393  0.76615014  1  0  0.415999  0  0.784559  0  0  0.399533  0  0.838138  0  0  0.408591  0  0.828602  0  0  0.349652  0.393089  0  0.844958  0
H  H13  1  0.71563038  0.06586888  0.23384092  1  0  0.416006  0  0.784631  0  0  0.399546  0  0.838197  0  0  0.408602  0  0.828656  0  0  0.349678  0.393106  0  0.845001  0
H  H14  1  0.16469251  0.01462881  0.23286690  1  0  0.413736  0  0.875993  0  0  0.382507  0  0.95131  0  0  0.39553  0  0.935471  0  0  0.304563  0.373374  0  0.960968  0
H  H15  1  0.83530563  0.98537245  0.76713595  1  0  0.413906  0  0.875741  0  0  0.382696  0  0.95102  0  0  0.39572  0  0.935199  0  0  0.304647  0.373549  0  0.960708  0
H  H16  1  0.37500291  0.21774652  0.52515745  1  0  0.377606  0  0.901775  0  0  0.348075  0  0.981458  0  0  0.359998  0  0.968686  0  0  0.304292  0.339681  0  0.990343  0
H  H17  1  0.62501909  0.78226682  0.47485296  1  0  0.377642  0  0.901686  0  0  0.348112  0  0.981378  0  0  0.360039  0  0.968606  0  0  0.304291  0.339706  0  0.990284  0
H  H18  1  0.22911287  0.29745520  0.01738815  1  0  0.392186  0  0.875622  0  0  0.365099  0  0.948847  0  0  0.376955  0  0.935752  0  0  0.30907  0.356731  0  0.958009  0
H  H19  1  0.77086104  0.70254057  0.98261806  1  0  0.39211  0  0.875494  0  0  0.364935  0  0.948875  0  0  0.376793  0  0.935766  0  0  0.308912  0.356569  0  0.958037  0
H  H20  1  0.42886350  0.57420490  0.29256902  1  0  0.415255  0  0.85783  0  0  0.382775  0  0.936609  0  0  0.395151  0  0.92309  0  0  0.311519  0.374055  0  0.946123  0
H  H21  1  0.57115483  0.42579451  0.70743160  1  0  0.41536  0  0.857722  0  0  0.382883  0  0.936495  0  0  0.395261  0  0.922967  0  0  0.311569  0.374158  0  0.946011  0
H  H22  1  0.11072897  0.49831695  0.71146306  1  0  0.409915  0  0.87851  0  0  0.382286  0  0.949538  0  0  0.393651  0  0.936989  0  0  0.311805  0.374318  0  0.958215  0
H  H23  1  0.88926611  0.50166764  0.28853212  1  0  0.409899  0  0.878625  0  0  0.382255  0  0.949689  0  0  0.393621  0  0.937138  0  0  0.311742  0.374287  0  0.95837  0
H  H24  1  0.12568564  0.81498284  0.35923978  1  0  0.127485  0  0.931252  0  0  0.136526  0  0.989869  0  0  0.14023  0  0.98595  0  0  0.120135  0.133813  0  0.992731  0
H  H25  1  0.87431964  0.18502205  0.64075979  1  0  0.127532  0  0.931092  0  0  0.136531  0  0.989771  0  0  0.140236  0  0.985855  0  0  0.120156  0.133817  0  0.992628  0
H  H26  1  0.35853314  0.10603478  0.72743824  1  0  0.155997  0  0.912526  0  0  0.168793  0  0.964116  0  0  0.173354  0  0.96173  0  0  0.121557  0.165537  0  0.966039  0
H  H27  1  0.64147816  0.89397014  0.27256258  1  0  0.155982  0  0.912756  0  0  0.168757  0  0.964364  0  0  0.173311  0  0.961996  0  0  0.121557  0.165503  0  0.966288  0
H  H28  1  0.15021214  0.35306968  0.78500046  1  0  0.154824  0  0.925031  0  0  0.165868  0  0.978935  0  0  0.170416  0  0.976667  0  0  0.117188  0.162662  0  0.980706  0
H  H29  1  0.84975290  0.64691860  0.21499658  1  0  0.154779  0  0.925058  0  0  0.165821  0  0.979014  0  0  0.170367  0  0.976746  0  0  0.117142  0.16262  0  0.980787  0
H  H30  1  0.33628370  0.71213445  0.12013378  1  0  0.121958  0  0.929232  0  0  0.131974  0  0.987765  0  0  0.135659  0  0.983742  0  0  0.116367  0.129305  0  0.990615  0
H  H31  1  0.66369408  0.28786028  0.87986406  1  0  0.121783  0  0.929261  0  0  0.131925  0  0.987679  0  0  0.135537  0  0.983749  0  0  0.116315  0.129299  0  0.990474  0
Pb  Pb32  1  0.53484315  0.70674853  0.72474519  1  0  1.469974  0  1.337166  0  0  1.295253  0  1.732785  0  0  1.349816  0  1.685056  0  0  0.673061  1.255367  0  1.7666  0
Pb  Pb33  1  0.46516282  0.29328615  0.27527950  1  0  1.469996  0  1.33708  0  0  1.295331  0  1.732669  0  0  1.349893  0  1.684948  0  0  0.6731  1.255433  0  1.766472  0
C  C34  1  0.24077769  0.91590218  0.62219516  1  0  0.382067  0  3.802234  0  0  0.357648  0  4.080021  0  0  0.376423  0  4.091864  0  0  0.095123  0.345196  0  4.071671  0
C  C35  1  0.75923740  0.08409712  0.37779813  1  0  0.382096  0  3.801802  0  0  0.357683  0  4.079707  0  0  0.37646  0  4.091545  0  0  0.095118  0.34523  0  4.071357  0
C  C36  1  0.17408168  0.83294966  0.51736682  1  0  -0.278079  0  3.717426  0  0  -0.260293  0  3.986354  0  0  -0.27508  0  4.0054  0  0  -0.045542  -0.25082  0  3.973702  0
C  C37  1  0.82593762  0.16704795  0.48263691  1  0  -0.277693  0  3.717026  0  0  -0.26009  0  3.986259  0  0  -0.274878  0  4.005302  0  0  -0.045426  -0.250612  0  3.973598  0
C  C38  1  0.17431369  0.87873582  0.43960822  1  0  0.010004  0  3.742532  0  0  -0.033109  0  4.005531  0  0  -0.021883  0  4.019758  0  0  -0.070121  -0.040171  0  3.995758  0
C  C39  1  0.82569903  0.12126154  0.56037870  1  0  0.00991  0  3.742975  0  0  -0.033137  0  4.006072  0  0  -0.021917  0  4.020311  0  0  -0.070163  -0.040193  0  3.996288  0
C  C40  1  0.24094769  0.00467153  0.46249478  1  0  -0.257712  0  3.812501  0  0  -0.242824  0  4.064765  0  0  -0.262246  0  4.090561  0  0  -0.048421  -0.230203  0  4.047577  0
C  C41  1  0.75907700  0.99533715  0.53751036  1  0  -0.257809  0  3.812935  0  0  -0.242978  0  4.065231  0  0  -0.262408  0  4.091031  0  0  -0.048511  -0.230342  0  4.048025  0
C  C42  1  0.30948367  0.08687324  0.56781108  1  0  0.392524  0  3.797225  0  0  0.373514  0  4.062066  0  0  0.39249  0  4.075384  0  0  0.103787  0.360878  0  4.052804  0
C  C43  1  0.69053515  0.91313170  0.43219111  1  0  0.392563  0  3.796917  0  0  0.3736  0  4.061751  0  0  0.392579  0  4.075065  0  0  0.103866  0.360962  0  4.052492  0
C  C44  1  0.30680756  0.04173035  0.64689082  1  0  -0.328229  0  3.664456  0  0  -0.356613  0  3.927564  0  0  -0.369478  0  3.942572  0  0  -0.117147  -0.348351  0  3.917656  0
C  C45  1  0.69320694  0.95826713  0.35310401  1  0  -0.328283  0  3.664503  0  0  -0.356655  0  3.927681  0  0  -0.369518  0  3.942679  0  0  -0.117216  -0.3484  0  3.917787  0
C  C46  1  0.24548768  0.05198917  0.38015753  1  0  0.669063  0  3.824843  0  0  0.614965  0  4.127293  0  0  0.650127  0  4.120045  0  0  0.225688  0.591072  0  4.131795  0
C  C47  1  0.75452711  0.94802961  0.61984811  1  0  0.668991  0  3.824745  0  0  0.615009  0  4.12701  0  0  0.650181  0  4.119757  0  0  0.225669  0.591093  0  4.131542  0
C  C48  1  0.26850463  0.65425255  0.95541376  1  0  -0.272834  0  3.7076  0  0  -0.256108  0  3.976087  0  0  -0.271052  0  3.995732  0  0  -0.043963  -0.246598  0  3.963198  0
C  C49  1  0.73147585  0.34575712  0.04459968  1  0  -0.272422  0  3.707262  0  0  -0.256015  0  3.976166  0  0  -0.270945  0  3.995783  0  0  -0.043919  -0.246465  0  3.963221  0
C  C50  1  0.21762452  0.55153347  0.85997236  1  0  0.389179  0  3.793555  0  0  0.365885  0  4.063527  0  0  0.384908  0  4.075521  0  0  0.094603  0.353206  0  4.055217  0
C  C51  1  0.78237008  0.44847431  0.14003619  1  0  0.389032  0  3.793735  0  0  0.365847  0  4.063738  0  0  0.384856  0  4.075751  0  0  0.094639  0.353171  0  4.055417  0
C  C52  1  0.18798624  0.43158025  0.85823870  1  0  -0.322934  0  3.658395  0  0  -0.3507  0  3.920006  0  0  -0.364203  0  3.936042  0  0  -0.118642  -0.342026  0  3.909517  0
C  C53  1  0.81199197  0.56841545  0.14176226  1  0  -0.322683  0  3.658346  0  0  -0.350516  0  3.920073  0  0  -0.364018  0  3.93611  0  0  -0.118537  -0.341836  0  3.909552  0
C  C54  1  0.21588514  0.41079705  0.95054855  1  0  0.386502  0  3.799196  0  0  0.368351  0  4.065721  0  0  0.387221  0  4.079738  0  0  0.102514  0.355759  0  4.056076  0
C  C55  1  0.78407928  0.58920602  0.04945462  1  0  0.38649  0  3.799005  0  0  0.368329  0  4.065574  0  0  0.387213  0  4.07957  0  0  0.102549  0.355738  0  4.055939  0
C  C56  1  0.27309273  0.51339759  0.04680840  1  0  -0.261765  0  3.800737  0  0  -0.246713  0  4.054398  0  0  -0.266774  0  4.080355  0  0  -0.047946  -0.233659  0  4.037241  0
C  C57  1  0.72692052  0.48660376  0.95319933  1  0  -0.261979  0  3.800712  0  0  -0.246888  0  4.054471  0  0  -0.266957  0  4.080415  0  0  -0.04799  -0.233839  0  4.037325  0
C  C58  1  0.29534852  0.63364864  0.04676269  1  0  0.014824  0  3.730977  0  0  -0.028564  0  3.992962  0  0  -0.017173  0  4.007255  0  0  -0.068749  -0.035712  0  3.98317  0
C  C59  1  0.70462320  0.36634527  0.95324212  1  0  0.014886  0  3.730487  0  0  -0.028482  0  3.992569  0  0  -0.017042  0  4.006892  0  0  -0.068675  -0.035686  0  3.982753  0
C  C60  1  0.32225068  0.49331515  0.14342735  1  0  0.678922  0  3.813486  0  0  0.621271  0  4.114936  0  0  0.657784  0  4.106845  0  0  0.232025  0.596427  0  4.120025  0
C  C61  1  0.67773568  0.50667786  0.85657781  1  0  0.679171  0  3.813295  0  0  0.621299  0  4.115006  0  0  0.657805  0  4.10692  0  0  0.232  0.596457  0  4.120085  0
S  S62  1  0.09857749  0.67130670  0.48057344  1  0  1.373407  0  5.559625  0  0  1.260721  0  6.089089  0  0  1.31059  0  6.063662  0  0  0.534589  1.226332  0  6.105739  0
S  S63  1  0.90142865  0.32868804  0.51942342  1  0  1.373219  0  5.559706  0  0  1.260498  0  6.08924  0  0  1.310391  0  6.063806  0  0  0.534491  1.226111  0  6.105887  0
S  S64  1  0.30134772  0.80725975  0.95744449  1  0  1.366418  0  5.592903  0  0  1.261514  0  6.122317  0  0  1.311401  0  6.096441  0  0  0.522366  1.227029  0  6.139271  0
S  S65  1  0.69863060  0.19274510  0.04255337  1  0  1.366403  0  5.592962  0  0  1.261579  0  6.122436  0  0  1.311461  0  6.096559  0  0  0.52235  1.227078  0  6.139393  0
O  O66  1  0.91676223  0.64619283  0.51791916  1  0  -0.680221  0  2.033105  0  0  -0.617382  0  2.280903  0  0  -0.639392  0  2.265115  0  0  -0.324601  -0.602038  0  2.291547  0
O  O67  1  0.08323862  0.35380832  0.48207617  1  0  -0.680197  0  2.033058  0  0  -0.617208  0  2.280789  0  0  -0.639302  0  2.265056  0  0  -0.324534  -0.601867  0  2.29143  0
O  O68  1  0.48655415  0.46317060  0.60698401  1  0  -0.835865  0  1.886756  0  0  -0.767643  0  2.068582  0  0  -0.790331  0  2.037932  0  0  -0.546771  -0.751503  0  2.089924  0
O  O69  1  0.51346081  0.53682786  0.39301465  1  0  -0.835851  0  1.88704  0  0  -0.767736  0  2.068573  0  0  -0.790399  0  2.038009  0  0  -0.546759  -0.751607  0  2.089896  0
O  O70  1  0.27556183  0.63099821  0.52831420  1  0  -0.722935  0  2.033765  0  0  -0.661546  0  2.297342  0  0  -0.686292  0  2.283478  0  0  -0.328078  -0.643961  0  2.306416  0
O  O71  1  0.72445089  0.36899837  0.47168164  1  0  -0.722889  0  2.033875  0  0  -0.661465  0  2.297498  0  0  -0.686209  0  2.283625  0  0  -0.328016  -0.643878  0  2.306563  0
O  O72  1  0.80257641  0.92323426  0.84283623  1  0  -0.84634  0  1.904489  0  0  -0.774503  0  2.07874  0  0  -0.799021  0  2.046715  0  0  -0.543692  -0.7571  0  2.100712  0
O  O73  1  0.19741013  0.07675584  0.15715901  1  0  -0.846316  0  1.904516  0  0  -0.774462  0  2.078704  0  0  -0.798975  0  2.046677  0  0  -0.54373  -0.757073  0  2.10067  0
O  O74  1  0.05215173  0.62082892  0.36738441  1  0  -0.651804  0  2.025963  0  0  -0.593024  0  2.273012  0  0  -0.614445  0  2.258137  0  0  -0.322204  -0.57796  0  2.282754  0
O  O75  1  0.94784340  0.37916857  0.63261222  1  0  -0.651902  0  2.0261  0  0  -0.593092  0  2.273135  0  0  -0.614499  0  2.258241  0  0  -0.322276  -0.578028  0  2.282876  0
O  O76  1  0.86367422  0.66669002  0.70241614  1  0  -0.848042  0  1.892136  0  0  -0.783187  0  2.08843  0  0  -0.806442  0  2.0576  0  0  -0.568909  -0.766595  0  2.109831  0
O  O77  1  0.13631639  0.33330368  0.29757343  1  0  -0.84812  0  1.892197  0  0  -0.783243  0  2.088571  0  0  -0.806495  0  2.05772  0  0  -0.568897  -0.766639  0  2.109938  0
O  O78  1  0.24075426  0.86807795  0.69731548  1  0  -0.532326  0  2.132975  0  0  -0.481537  0  2.354766  0  0  -0.500117  0  2.343358  0  0  -0.324598  -0.468303  0  2.362296  0
O  O79  1  0.75925849  0.13191487  0.30267511  1  0  -0.532402  0  2.133096  0  0  -0.481584  0  2.354874  0  0  -0.500155  0  2.343466  0  0  -0.324638  -0.468351  0  2.362401  0
O  O80  1  0.15517252  0.97237753  0.28516556  1  0  -0.529409  0  2.071994  0  0  -0.477413  0  2.284633  0  0  -0.499029  0  2.268516  0  0  -0.324136  -0.462489  0  2.294329  0
O  O81  1  0.84482181  0.02763390  0.71484116  1  0  -0.529553  0  2.071913  0  0  -0.477611  0  2.284509  0  0  -0.499213  0  2.268366  0  0  -0.324184  -0.462671  0  2.29424  0
O  O82  1  0.33007554  0.16238064  0.39985977  1  0  -0.62038  0  2.024701  0  0  -0.56698  0  2.259392  0  0  -0.591763  0  2.252157  0  0  -0.288386  -0.549924  0  2.264146  0
O  O83  1  0.66994788  0.83762436  0.60014565  1  0  -0.620401  0  2.02427  0  0  -0.566994  0  2.25885  0  0  -0.591792  0  2.251623  0  0  -0.288402  -0.54992  0  2.263615  0
O  O84  1  0.37707115  0.20784365  0.59316107  1  0  -0.484242  0  2.127675  0  0  -0.435664  0  2.346515  0  0  -0.455147  0  2.336758  0  0  -0.337416  -0.421882  0  2.352744  0
O  O85  1  0.62293954  0.79216320  0.40684654  1  0  -0.484223  0  2.127528  0  0  -0.435707  0  2.34641  0  0  -0.455193  0  2.336651  0  0  -0.337383  -0.421911  0  2.352663  0
O  O86  1  0.10135149  0.81588667  0.89873676  1  0  -0.714103  0  1.997998  0  0  -0.653314  0  2.243313  0  0  -0.67458  0  2.224871  0  0  -0.344109  -0.638261  0  2.255602  0
O  O87  1  0.89864109  0.18412088  0.10125680  1  0  -0.714263  0  1.997875  0  0  -0.65342  0  2.243118  0  0  -0.674676  0  2.224665  0  0  -0.344175  -0.638371  0  2.255415  0
O  O88  1  0.46398619  0.82360107  0.90598343  1  0  -0.717762  0  2.011063  0  0  -0.662714  0  2.278069  0  0  -0.687318  0  2.263272  0  0  -0.339012  -0.645192  0  2.287666  0
O  O89  1  0.53601431  0.17639083  0.09400792  1  0  -0.717765  0  2.011452  0  0  -0.662735  0  2.278394  0  0  -0.687336  0  2.263598  0  0  -0.339001  -0.64522  0  2.287999  0
O  O90  1  0.35690078  0.89010596  0.06673834  1  0  -0.663821  0  1.947042  0  0  -0.613173  0  2.190074  0  0  -0.633943  0  2.172757  0  0  -0.338361  -0.598461  0  2.201467  0
O  O91  1  0.64309184  0.10988419  0.93325956  1  0  -0.663938  0  1.946892  0  0  -0.613272  0  2.189911  0  0  -0.634042  0  2.172591  0  0  -0.338426  -0.598563  0  2.201316  0
O  O92  1  0.19243170  0.29332590  0.94430417  1  0  -0.48459  0  2.057737  0  0  -0.440515  0  2.260487  0  0  -0.459134  0  2.249387  0  0  -0.343385  -0.427325  0  2.267739  0
O  O93  1  0.80754476  0.70667723  0.05570148  1  0  -0.484503  0  2.05776  0  0  -0.440352  0  2.260528  0  0  -0.458972  0  2.249425  0  0  -0.343248  -0.427168  0  2.267778  0
O  O94  1  0.38234784  0.59352898  0.22854754  1  0  -0.516798  0  2.12711  0  0  -0.466271  0  2.353284  0  0  -0.487658  0  2.338567  0  0  -0.316558  -0.451505  0  2.363057  0
O  O95  1  0.61766447  0.40647417  0.77145779  1  0  -0.516968  0  2.127186  0  0  -0.466451  0  2.353525  0  0  -0.487848  0  2.338821  0  0  -0.316602  -0.451671  0  2.36329  0
O  O96  1  0.31245238  0.38547878  0.14367698  1  0  -0.6255  0  2.053064  0  0  -0.556494  0  2.284447  0  0  -0.58351  0  2.275847  0  0  -0.277342  -0.537853  0  2.290114  0
O  O97  1  0.68756334  0.61452156  0.85632508  1  0  -0.625644  0  2.052762  0  0  -0.55636  0  2.284094  0  0  -0.583361  0  2.275475  0  0  -0.277349  -0.537722  0  2.289766  0
O  O98  1  0.20249710  0.57305718  0.77135205  1  0  -0.571034  0  2.185096  0  0  -0.511118  0  2.412436  0  0  -0.532959  0  2.401928  0  0  -0.338358  -0.495509  0  2.419178  0
O  O99  1  0.79749521  0.42693582  0.22865223  1  0  -0.571124  0  2.185119  0  0  -0.511168  0  2.412397  0  0  -0.533007  0  2.401889  0  0  -0.338391  -0.495548  0  2.41909  0
