# generated using pymatgen
data_CuH12C17IN3
_symmetry_space_group_name_H-M   'P 1'
_cell_length_a   9.94773611
_cell_length_b   9.94760976
_cell_length_c   16.34836345
_cell_angle_alpha   96.00047906
_cell_angle_beta   96.00032546
_cell_angle_gamma   91.27872190
_symmetry_Int_Tables_number   1
_chemical_formula_structural   CuH12C17IN3
_chemical_formula_sum   'Cu4 H48 C68 I4 N12'
_cell_volume   1599.18934336
_cell_formula_units_Z   4
loop_
 _symmetry_equiv_pos_site_id
 _symmetry_equiv_pos_as_xyz
  1  'x, y, z'
loop_
 _atom_site_type_symbol
 _atom_site_label
 _atom_site_symmetry_multiplicity
 _atom_site_fract_x
 _atom_site_fract_y
 _atom_site_fract_z
 _atom_site_occupancy
 _atom_site_pbe_bader_charge
 _atom_site_pbe_bader_spin_density
 _atom_site_pbe_cm5_charge
 _atom_site_pbe_ddec_charge
 _atom_site_pbe_ddec_spin_density
 _atom_site_pbe_ddec_sum_bond_order
 _atom_site_pbe_magmom
Cu  Cu0  1  0.26067993  0.94066181  0.17081444  1  0.521827  0  0.366185  0.201935  0  2.623176  0
Cu  Cu1  1  0.94064832  0.26067880  0.67081681  1  0.521626  0  0.366189  0.201963  0  2.623202  0
Cu  Cu2  1  0.43736681  0.76486233  0.20990826  1  0.518229  0  0.364092  0.205184  0  2.644018  0
Cu  Cu3  1  0.76485466  0.43737294  0.70990916  1  0.518172  0  0.364105  0.205229  0  2.643878  0
H  H4  1  0.08745213  0.97003939  0.30035046  1  0.08399  0  0.100029  0.078174  0  1.059682  0
H  H5  1  0.97003457  0.08745013  0.80035387  1  0.083879  0  0.100038  0.07816  0  1.059643  0
H  H6  1  0.11828484  0.38678771  0.40824203  1  0.084424  0  0.1065  0.107785  0  1.005203  0
H  H7  1  0.38678438  0.11828788  0.90823325  1  0.084469  0  0.106454  0.107696  0  1.005247  0
H  H8  1  0.29053929  0.42597789  0.31089264  1  0.080499  0  0.097082  0.098728  0  1.03955  0
H  H9  1  0.42596672  0.29054265  0.81088161  1  0.080563  0  0.097116  0.098749  0  1.039546  0
H  H10  1  0.35615049  0.23040232  0.21495247  1  0.110142  0  0.10134  0.071892  0  1.040848  0
H  H11  1  0.23038414  0.35615187  0.71494647  1  0.110653  0  0.101304  0.071851  0  1.040749  0
H  H12  1  0.07801781  0.27762635  0.52435032  1  0.087567  0  0.101033  0.068102  0  1.054271  0
H  H13  1  0.27762713  0.07802088  0.02434874  1  0.08758  0  0.101008  0.068054  0  1.054296  0
H  H14  1  0.88214360  0.98484612  0.33260292  1  0.094905  0  0.110875  0.117914  0  1.009524  0
H  H15  1  0.98484681  0.88214142  0.83260392  1  0.094797  0  0.110876  0.11787  0  1.009531  0
H  H16  1  0.75984803  0.04135337  0.57955909  1  0.096932  0  0.104198  0.087354  0  1.04237  0
H  H17  1  0.04135325  0.75985309  0.07956223  1  0.096717  0  0.10421  0.087383  0  1.04242  0
H  H18  1  0.65389619  0.94575374  0.30386851  1  0.120679  0  0.101121  0.083622  0  1.04862  0
H  H19  1  0.94575505  0.65390146  0.80387055  1  0.120588  0  0.101131  0.083588  0  1.048627  0
H  H20  1  0.71708480  0.81111017  0.54752123  1  0.124512  0  0.107935  0.119165  0  1.042725  0
H  H21  1  0.81112086  0.71707860  0.04752645  1  0.124364  0  0.107919  0.119143  0  1.042734  0
H  H22  1  0.42875953  0.61563348  0.35296799  1  0.090732  0  0.101477  0.070875  0  1.048982  0
H  H23  1  0.61563753  0.42876193  0.85296945  1  0.090801  0  0.101472  0.070898  0  1.048994  0
H  H24  1  0.73691666  0.60299529  0.57550113  1  0.118467  0  0.101033  0.078736  0  1.062013  0
H  H25  1  0.60299580  0.73691538  0.07550061  1  0.118519  0  0.101031  0.07869  0  1.062068  0
H  H26  1  0.31974781  0.57021954  0.46883728  1  0.090508  0  0.105812  0.105619  0  1.00835  0
H  H27  1  0.57023367  0.31974047  0.96884242  1  0.090404  0  0.105774  0.105553  0  1.008387  0
H  H28  1  0.28272134  0.39602452  0.56556096  1  0.086345  0  0.097808  0.098882  0  1.035423  0
H  H29  1  0.39603747  0.28271560  0.06556330  1  0.085959  0  0.097767  0.098782  0  1.035495  0
H  H30  1  0.47867008  0.33507826  0.66296051  1  0.085868  0  0.099272  0.069274  0  1.050481  0
H  H31  1  0.33508005  0.47866863  0.16296007  1  0.085915  0  0.099257  0.069267  0  1.050457  0
H  H32  1  0.44326817  0.67563153  0.67823507  1  0.088957  0  0.099149  0.098649  0  1.046522  0
H  H33  1  0.67563529  0.44327675  0.17823340  1  0.088693  0  0.099123  0.098599  0  1.046532  0
H  H34  1  0.26233384  0.62588619  0.76603380  1  0.096431  0  0.091484  0.094981  0  1.037917  0
H  H35  1  0.62588679  0.26233661  0.26602967  1  0.096457  0  0.09146  0.09498  0  1.037879  0
H  H36  1  0.28477596  0.71603962  0.91434736  1  0.132767  0  0.100249  0.10692  0  1.029667  0
H  H37  1  0.71603761  0.28477092  0.41434255  1  0.13278  0  0.100253  0.106951  0  1.029659  0
H  H38  1  0.48118406  0.86925933  0.97368254  1  0.083666  0  0.083969  0.087225  0  1.066978  0
H  H39  1  0.86925369  0.48118193  0.47368075  1  0.083685  0  0.083966  0.087257  0  1.066998  0
H  H40  1  0.66416480  0.91604513  0.88623566  1  0.081107  0  0.099301  0.100432  0  1.021517  0
H  H41  1  0.91603990  0.66417011  0.38623932  1  0.08109  0  0.099273  0.100386  0  1.021563  0
H  H42  1  0.89898293  0.27728973  0.89945693  1  0.094931  0  0.094189  0.102855  0  1.048528  0
H  H43  1  0.27727396  0.89897356  0.39945567  1  0.094821  0  0.094202  0.102887  0  1.048475  0
H  H44  1  0.76398044  0.10776871  0.95889522  1  0.059613  0  0.094973  0.08953  0  1.028211  0
H  H45  1  0.10775271  0.76397797  0.45889746  1  0.059494  0  0.094933  0.089444  0  1.028176  0
H  H46  1  0.79691539  0.08551501  0.11041869  1  0.108303  0  0.091835  0.101904  0  1.027384  0
H  H47  1  0.08550778  0.79691424  0.61042264  1  0.108167  0  0.091835  0.101899  0  1.027318  0
H  H48  1  0.96099287  0.24073242  0.20262028  1  0.093897  0  0.099525  0.09914  0  1.017655  0
H  H49  1  0.24073314  0.96098897  0.70262273  1  0.093798  0  0.099557  0.099173  0  1.017691  0
H  H50  1  0.09676664  0.41251381  0.14350288  1  0.088507  0  0.093331  0.094938  0  1.052486  0
H  H51  1  0.41251312  0.09675358  0.64350240  1  0.088642  0  0.093341  0.094935  0  1.052516  0
C  C52  1  0.12885712  0.07344266  0.30484423  1  0.517331  0  0.039501  0.03242  0  3.903805  0
C  C53  1  0.07343745  0.12885527  0.80484310  1  0.518353  0  0.03951  0.03243  0  3.903765  0
C  C54  1  0.08987038  0.17389362  0.36330608  1  -0.086201  0  -0.003112  0.029759  0  4.011284  0
C  C55  1  0.17389002  0.08986620  0.86330362  1  -0.086235  0  -0.003074  0.029768  0  4.011079  0
C  C56  1  0.14861643  0.30400455  0.36570875  1  -0.00057  0  -0.070484  -0.088119  0  3.930407  0
C  C57  1  0.30400008  0.14861447  0.86569962  1  -0.000494  0  -0.070433  -0.087965  0  3.930041  0
C  C58  1  0.24413789  0.32587960  0.31155942  1  -0.022177  0  -0.084684  -0.112716  0  3.993272  0
C  C59  1  0.32586974  0.24413532  0.81154873  1  -0.021889  0  -0.084651  -0.112739  0  3.993138  0
C  C60  1  0.27901945  0.21898100  0.25677655  1  0.461626  0  0.037963  0.082275  0  3.917835  0
C  C61  1  0.21896599  0.27901701  0.75676927  1  0.460851  0  0.037968  0.082318  0  3.917741  0
C  C62  1  0.00233301  0.19780159  0.50157483  1  0.446134  0  0.040062  0.035335  0  3.899308  0
C  C63  1  0.19780279  0.00233536  0.00157322  1  0.446046  0  0.040142  0.035437  0  3.899082  0
C  C64  1  0.99333006  0.13686643  0.42014828  1  0.002404  0  -0.004067  0.034401  0  4.038542  0
C  C65  1  0.13686968  0.99333014  0.92014814  1  0.002358  0  -0.004128  0.034361  0  4.038629  0
C  C66  1  0.89350857  0.03495672  0.39566485  1  0.015857  0  -0.066126  -0.138722  0  3.8964  0
C  C67  1  0.03495851  0.89350790  0.89566701  1  0.015672  0  -0.06612  -0.138668  0  3.896418  0
C  C68  1  0.80842734  0.99699166  0.45264703  1  0.011532  0  0.00046  0.043  0  4.011022  0
C  C69  1  0.99699570  0.80842688  0.95265015  1  0.011973  0  0.000535  0.043042  0  4.010956  0
C  C70  1  0.82520648  0.06432720  0.53286183  1  0.470956  0  0.049645  0.051801  0  3.857387  0
C  C71  1  0.06432960  0.82520901  0.03286560  1  0.471101  0  0.049541  0.051557  0  3.857554  0
C  C72  1  0.63413395  0.87628300  0.34899036  1  0.44421  0  0.042927  0.040096  0  3.888739  0
C  C73  1  0.87628660  0.63413568  0.84899296  1  0.444313  0  0.04299  0.040265  0  3.888674  0
C  C74  1  0.70260873  0.89025125  0.42879974  1  0.023348  0  -0.003407  0.035524  0  4.025526  0
C  C75  1  0.89025688  0.70260415  0.92880453  1  0.023335  0  -0.003467  0.035483  0  4.025418  0
C  C76  1  0.66698785  0.80164493  0.48443659  1  -0.051454  0  -0.067963  -0.138915  0  3.884048  0
C  C77  1  0.80165123  0.66698247  0.98444263  1  -0.051143  0  -0.067975  -0.138964  0  3.883994  0
C  C78  1  0.56710843  0.70024474  0.45831990  1  0.040519  0  -0.00352  0.038535  0  4.023403  0
C  C79  1  0.70025197  0.56710897  0.95832331  1  0.040467  0  -0.003534  0.03867  0  4.023254  0
C  C80  1  0.50609122  0.69316106  0.37699590  1  0.467196  0  0.038125  0.032848  0  3.907174  0
C  C81  1  0.69316530  0.50609477  0.87699867  1  0.467126  0  0.038123  0.032767  0  3.907162  0
C  C82  1  0.63401215  0.56071123  0.57118951  1  0.495957  0  0.042447  0.043719  0  3.888123  0
C  C83  1  0.56071673  0.63401497  0.07119077  1  0.496592  0  0.04254  0.043987  0  3.888011  0
C  C84  1  0.53244678  0.60014901  0.51357009  1  0.019382  0  -0.00152  0.034581  0  3.992925  0
C  C85  1  0.60015539  0.53244651  0.01357360  1  0.018983  0  -0.001528  0.034395  0  3.993039  0
C  C86  1  0.40296689  0.54001771  0.51110305  1  -0.119051  0  -0.069797  -0.085394  0  3.930373  0
C  C87  1  0.54002648  0.40296043  0.01110751  1  -0.118949  0  -0.069783  -0.085344  0  3.930328  0
C  C88  1  0.38223005  0.44377020  0.56500264  1  0.014255  0  -0.086839  -0.119274  0  4.009031  0
C  C89  1  0.44377790  0.38222458  0.06500468  1  0.013631  0  -0.086808  -0.119133  0  4.009054  0
C  C90  1  0.48948535  0.41066761  0.62009172  1  0.437638  0  0.035398  0.077113  0  3.933454  0
C  C91  1  0.41067160  0.48948466  0.12009144  1  0.438616  0  0.035481  0.077178  0  3.933334  0
C  C92  1  0.56609892  0.79641640  0.77750762  1  0.03487  0  -0.004404  0.042351  0  4.095765  0
C  C93  1  0.79641826  0.56610641  0.27750882  1  0.034914  0  -0.00441  0.042343  0  4.095627  0
C  C94  1  0.45168776  0.71622579  0.74305873  1  -0.051298  0  -0.079067  -0.103937  0  3.944427  0
C  C95  1  0.71622757  0.45169292  0.24305793  1  -0.05107  0  -0.07901  -0.10379  0  3.944368  0
C  C96  1  0.35064285  0.68900105  0.79249582  1  -0.059882  0  -0.089624  -0.074951  0  3.979905  0
C  C97  1  0.68900206  0.35064563  0.29249356  1  -0.059831  0  -0.089632  -0.075079  0  3.97992  0
C  C98  1  0.36203539  0.74225078  0.87563162  1  -0.017071  0  -0.080668  -0.057413  0  3.943159  0
C  C99  1  0.74224868  0.36203843  0.37563284  1  -0.017116  0  -0.080656  -0.057379  0  3.943248  0
C  C100  1  0.47327639  0.82609941  0.90902881  1  -0.062916  0  -0.094484  -0.085724  0  4.007653  0
C  C101  1  0.82609703  0.47327417  0.40902908  1  -0.062903  0  -0.094543  -0.085882  0  4.007752  0
C  C102  1  0.57560511  0.85314614  0.86054154  1  -0.023043  0  -0.082099  -0.112114  0  3.962494  0
C  C103  1  0.85314376  0.57560792  0.36054276  1  -0.022966  0  -0.081977  -0.111907  0  3.962269  0
C  C104  1  0.67536091  0.81587599  0.72970672  1  0.839202  0  0.183047  0.250184  0  4.009673  0
C  C105  1  0.81587968  0.67537498  0.22970727  1  0.838934  0  0.182947  0.250022  0  4.010053  0
C  C106  1  0.01000264  0.35197288  0.01753829  1  0.053697  0  -0.002502  0.047631  0  4.091574  0
C  C107  1  0.35196829  0.00999415  0.51753784  1  0.053644  0  -0.002585  0.0475  0  4.091544  0
C  C108  1  0.91391698  0.26789289  0.96562551  1  -0.00293  0  -0.082807  -0.114987  0  3.957361  0
C  C109  1  0.26788541  0.91390769  0.46562541  1  -0.002676  0  -0.082879  -0.115102  0  3.957025  0
C  C110  1  0.83795308  0.17290453  0.99957368  1  -0.041459  0  -0.091492  -0.08285  0  4.016666  0
C  C111  1  0.17289267  0.83794869  0.49957668  1  -0.041481  0  -0.091429  -0.082661  0  4.016355  0
C  C112  1  0.85618101  0.16106206  0.08447891  1  -0.048049  0  -0.080729  -0.056834  0  3.946293  0
C  C113  1  0.16105181  0.85617530  0.58447870  1  -0.047862  0  -0.080682  -0.05678  0  3.946083  0
C  C114  1  0.94886904  0.24758244  0.13618888  1  -0.039384  0  -0.087604  -0.067506  0  3.986089  0
C  C115  1  0.24757695  0.94886258  0.63619016  1  -0.039163  0  -0.087681  -0.067686  0  3.986085  0
C  C116  1  0.02586187  0.34328582  0.10338206  1  -0.070254  0  -0.080872  -0.110798  0  3.939888  0
C  C117  1  0.34328131  0.02585385  0.60338350  1  -0.070727  0  -0.08084  -0.110686  0  3.939911  0
C  C118  1  0.09331072  0.44399360  0.98231722  1  0.808522  0  0.182863  0.244703  0  4.003987  0
C  C119  1  0.44399073  0.09329507  0.48231599  1  0.809  0  0.182998  0.244805  0  4.004296  0
I  I120  1  0.18712331  0.71331306  0.23986871  1  -0.500075  0  -0.219784  -0.423776  0  1.751849  0
I  I121  1  0.71331047  0.18711867  0.73986611  1  -0.499968  0  -0.219812  -0.42383  0  1.751886  0
I  I122  1  0.51601993  0.99440838  0.14740092  1  -0.504861  0  -0.21168  -0.418128  0  1.734039  0
I  I123  1  0.99440264  0.51601851  0.64740079  1  -0.504832  0  -0.211674  -0.418117  0  1.734021  0
N  N124  1  0.22131521  0.09387655  0.25272715  1  -1.233667  0  -0.361478  -0.177307  0  3.67391  0
N  N125  1  0.09386663  0.22131564  0.75272529  1  -1.234734  0  -0.36158  -0.177405  0  3.674021  0
N  N126  1  0.91961062  0.16350502  0.55681495  1  -1.212235  0  -0.357722  -0.166591  0  3.670524  0
N  N127  1  0.16350551  0.91961470  0.05681625  1  -1.212191  0  -0.357707  -0.166453  0  3.670436  0
N  N128  1  0.53745726  0.78007788  0.32341914  1  -1.225645  0  -0.360371  -0.176807  0  3.690148  0
N  N129  1  0.78007974  0.53746051  0.82342295  1  -1.225439  0  -0.360371  -0.17684  0  3.690107  0
N  N130  1  0.61413699  0.46917046  0.62392327  1  -1.216849  0  -0.360928  -0.177935  0  3.664893  0
N  N131  1  0.46917218  0.61414012  0.12392189  1  -1.217323  0  -0.360994  -0.178062  0  3.664733  0
N  N132  1  0.76718108  0.82933923  0.69174957  1  -1.190912  0  -0.315153  -0.383722  0  2.826006  0
N  N133  1  0.82934668  0.76719245  0.19175450  1  -1.190794  0  -0.315097  -0.383605  0  2.82649  0
N  N134  1  0.16310907  0.51697111  0.95268082  1  -1.148466  0  -0.301245  -0.361597  0  2.782435  0
N  N135  1  0.51697161  0.16309088  0.45268331  1  -1.148748  0  -0.301316  -0.361619  0  2.782763  0
