# generated using pymatgen
data_CdH98C86(N5Cl)2
_symmetry_space_group_name_H-M   'P 1'
_cell_length_a   8.83797905
_cell_length_b   13.71540935
_cell_length_c   19.16291581
_cell_angle_alpha   80.72358327
_cell_angle_beta   89.65911071
_cell_angle_gamma   80.35028788
_symmetry_Int_Tables_number   1
_chemical_formula_structural   CdH98C86(N5Cl)2
_chemical_formula_sum   'Cd1 H98 C86 N10 Cl2'
_cell_volume   2259.51708668
_cell_formula_units_Z   1
loop_
 _symmetry_equiv_pos_site_id
 _symmetry_equiv_pos_as_xyz
  1  'x, y, z'
loop_
 _atom_site_type_symbol
 _atom_site_label
 _atom_site_symmetry_multiplicity
 _atom_site_fract_x
 _atom_site_fract_y
 _atom_site_fract_z
 _atom_site_occupancy
 _atom_site_pbe_bader_charge
 _atom_site_pbe_bader_spin_density
 _atom_site_pbe_cm5_charge
 _atom_site_pbe_ddec_charge
 _atom_site_pbe_ddec_spin_density
 _atom_site_pbe_ddec_sum_bond_order
 _atom_site_pbe_magmom
Cd  Cd0  1  0.99999956  0.99999938  0.00000034  1  1.163488  0  0.67892  0.689297  0  2.38701  0
H  H1  1  0.76734142  0.13938909  0.09121799  1  0.107495  0  0.101309  0.078583  0  1.054633  0
H  H2  1  0.23267214  0.86061034  0.90878406  1  0.107482  0  0.101308  0.078507  0  1.05471  0
H  H3  1  0.68223915  0.32132310  0.10284040  1  0.079535  0  0.100858  0.098426  0  1.04837  0
H  H4  1  0.31776626  0.67867706  0.89715900  1  0.079632  0  0.10087  0.098441  0  1.048288  0
H  H5  1  0.79237445  0.45228642  0.02178187  1  0.075135  0  0.105483  0.10314  0  1.019364  0
H  H6  1  0.20761865  0.54771296  0.97821353  1  0.075325  0  0.105481  0.103143  0  1.019313  0
H  H7  1  0.02859125  0.21398419  0.91826531  1  0.131041  0  0.097721  0.080111  0  1.066496  0
H  H8  1  0.97139922  0.78601671  0.08173043  1  0.131132  0  0.097677  0.080089  0  1.066434  0
H  H9  1  0.80995517  0.53550600  0.90497252  1  0.045839  0  0.098923  0.099658  0  1.037582  0
H  H10  1  0.19004268  0.46449715  0.09502446  1  0.045835  0  0.098926  0.099602  0  1.037668  0
H  H11  1  0.21552030  0.31166561  0.92151910  1  0.085913  0  0.099108  0.10152  0  1.042335  0
H  H12  1  0.78446640  0.68833234  0.07847860  1  0.086083  0  0.099138  0.101518  0  1.042272  0
H  H13  1  0.00137429  0.72901001  0.79703354  1  0.029981  0  0.093253  0.05985  0  0.982158  0
H  H14  1  0.99863837  0.27099325  0.20297221  1  0.030032  0  0.093286  0.059893  0  0.982094  0
H  H15  1  0.76266644  0.80763373  0.84582339  1  0.036446  0  0.080259  0.110894  0  1.053077  0
H  H16  1  0.23733121  0.19236568  0.15417406  1  0.036397  0  0.080246  0.1109  0  1.053141  0
H  H17  1  0.88287161  0.73516584  0.91585139  1  0.055122  0  0.08117  0.116109  0  1.039704  0
H  H18  1  0.11711360  0.26482918  0.08414930  1  0.055189  0  0.081108  0.116036  0  1.039782  0
H  H19  1  0.72073752  0.69057788  0.88646748  1  0.012654  0  0.078966  0.106052  0  1.018163  0
H  H20  1  0.27925383  0.30941918  0.11352404  1  0.012384  0  0.078986  0.106099  0  1.018128  0
H  H21  1  0.88531624  0.64384333  0.70861837  1  0.022418  0  0.081707  0.112685  0  1.026752  0
H  H22  1  0.11470842  0.35617014  0.29137454  1  0.022966  0  0.081679  0.112717  0  1.026626  0
H  H23  1  0.75923727  0.75279008  0.72546153  1  0.019942  0  0.081512  0.110859  0  1.036353  0
H  H24  1  0.24078759  0.24722268  0.27453355  1  0.020495  0  0.081559  0.110912  0  1.036343  0
H  H25  1  0.72648380  0.63174410  0.76458471  1  0.015509  0  0.082377  0.114009  0  1.009986  0
H  H26  1  0.27353267  0.36826554  0.23540299  1  0.015115  0  0.082263  0.113843  0  1.010148  0
H  H27  1  0.41535500  0.44390719  0.78007698  1  0.029388  0  0.093995  0.060735  0  0.964322  0
H  H28  1  0.58465238  0.55609461  0.21992951  1  0.029556  0  0.093958  0.060682  0  0.96422  0
H  H29  1  0.47476765  0.55388790  0.86359960  1  0.036198  0  0.080915  0.106906  0  1.048821  0
H  H30  1  0.52523541  0.44610873  0.13641070  1  0.036087  0  0.08091  0.106895  0  1.048888  0
H  H31  1  0.62606048  0.45015281  0.86431313  1  0.029383  0  0.084949  0.117245  0  1.019577  0
H  H32  1  0.37394090  0.54984164  0.13570006  1  0.029379  0  0.084911  0.117217  0  1.019617  0
H  H33  1  0.49412844  0.45079564  0.93463389  1  0.038643  0  0.082195  0.113659  0  1.011906  0
H  H34  1  0.50586496  0.54919874  0.06537466  1  0.038943  0  0.082146  0.11359  0  1.011798  0
H  H35  1  0.38355204  0.26392073  0.82659477  1  0.022987  0  0.084863  0.114032  0  1.029236  0
H  H36  1  0.61644603  0.73608173  0.17340543  1  0.022953  0  0.084873  0.114073  0  1.029217  0
H  H37  1  0.46256737  0.27649859  0.90911463  1  -0.003283  0  0.084413  0.115366  0  1.012342  0
H  H38  1  0.53742787  0.72349717  0.09088799  1  -0.003123  0  0.084388  0.115361  0  1.012276  0
H  H39  1  0.57454119  0.28739419  0.83241944  1  0.032966  0  0.089838  0.12564  0  0.992159  0
H  H40  1  0.42546180  0.71260232  0.16758461  1  0.033025  0  0.089848  0.125677  0  0.99222  0
H  H41  1  0.13093305  0.49859338  0.70445299  1  0.053873  0  0.098141  0.141528  0  1.008195  0
H  H42  1  0.86907088  0.50140387  0.29555044  1  0.054318  0  0.09815  0.141529  0  1.008125  0
H  H43  1  0.28243233  0.51834782  0.64384140  1  0.051591  0  0.100751  0.145734  0  0.997473  0
H  H44  1  0.71757898  0.48164718  0.35616435  1  0.051705  0  0.100731  0.145705  0  0.997619  0
H  H45  1  0.10576319  0.59932727  0.63034573  1  0.087058  0  0.101411  0.147101  0  0.993947  0
H  H46  1  0.89424712  0.40066690  0.36965492  1  0.086956  0  0.101454  0.147178  0  0.993996  0
H  H47  1  0.38568800  0.75332834  0.77460832  1  0.09146  0  0.108939  0.112537  0  1.013474  0
H  H48  1  0.61429818  0.24668088  0.22538953  1  0.091405  0  0.108997  0.112598  0  1.013284  0
H  H49  1  0.49286321  0.89968047  0.70724590  1  0.104393  0  0.103023  0.09827  0  1.047719  0
H  H50  1  0.50712406  0.10032422  0.29275095  1  0.104328  0  0.103043  0.098293  0  1.047777  0
H  H51  1  0.47087197  0.92997699  0.57446074  1  0.127333  0  0.109367  0.112105  0  1.04662  0
H  H52  1  0.52912192  0.07002394  0.42553759  1  0.127337  0  0.109379  0.112115  0  1.046603  0
H  H53  1  0.24781659  0.76969931  0.40460114  1  0.044573  0  0.098475  0.143022  0  1.005738  0
H  H54  1  0.75217732  0.23030614  0.59539767  1  0.044622  0  0.098435  0.142974  0  1.005675  0
H  H55  1  0.14020252  0.75418694  0.48431675  1  0.054633  0  0.099515  0.140922  0  1.007434  0
H  H56  1  0.85978931  0.24581776  0.51568164  1  0.054666  0  0.099535  0.140939  0  1.007371  0
H  H57  1  0.31123264  0.67115977  0.47748130  1  0.047764  0  0.101211  0.149003  0  0.985145  0
H  H58  1  0.68875729  0.32884344  0.52251728  1  0.047632  0  0.101191  0.148976  0  0.985159  0
H  H59  1  0.61391510  0.88724356  0.23988551  1  0.083175  0  0.10069  0.108728  0  1.024935  0
H  H60  1  0.38609013  0.11275289  0.76011592  1  0.083293  0  0.100737  0.108783  0  1.024951  0
H  H61  1  0.16198933  0.05495236  0.25244244  1  0.074498  0  0.102611  0.109147  0  1.03166  0
H  H62  1  0.83801060  0.94504707  0.74755657  1  0.074456  0  0.102588  0.109105  0  1.031713  0
H  H63  1  0.64308228  0.79968375  0.43740527  1  -0.005648  0  0.093738  0.060447  0  0.980423  0
H  H64  1  0.35692012  0.20031496  0.56259589  1  -0.005602  0  0.093763  0.060479  0  0.980408  0
H  H65  1  0.76416645  0.65112444  0.38624399  1  0.029098  0  0.083648  0.111855  0  1.009986  0
H  H66  1  0.23583864  0.34887285  0.61376203  1  0.029269  0  0.083676  0.111891  0  1.009974  0
H  H67  1  0.68791897  0.70820816  0.30102687  1  0.036373  0  0.086847  0.118686  0  1.01587  0
H  H68  1  0.31208667  0.29178237  0.69897895  1  0.036285  0  0.086837  0.1187  0  1.015781  0
H  H69  1  0.56192511  0.67417868  0.36982384  1  0.039697  0  0.081841  0.109104  0  1.013919  0
H  H70  1  0.43808109  0.32581409  0.63018170  1  0.039701  0  0.081849  0.109136  0  1.013932  0
H  H71  1  0.90697044  0.79663740  0.39130468  1  -0.001328  0  0.082152  0.110092  0  1.01651  0
H  H72  1  0.09303078  0.20336122  0.60869181  1  -0.001328  0  0.082124  0.110047  0  1.016461  0
H  H73  1  0.80406301  0.92112237  0.38331614  1  0.036186  0  0.085255  0.117998  0  1.02948  0
H  H74  1  0.19593820  0.07887623  0.61667931  1  0.03608  0  0.085232  0.117974  0  1.029452  0
H  H75  1  0.83255604  0.86126845  0.30749746  1  0.039805  0  0.084836  0.119192  0  1.019479  0
H  H76  1  0.16743499  0.13872575  0.69250069  1  0.039823  0  0.084867  0.119223  0  1.019466  0
H  H77  1  0.10053487  0.95785820  0.43338128  1  0.031175  0  0.092848  0.057547  0  0.972233  0
H  H78  1  0.89946034  0.04214200  0.56661765  1  0.031177  0  0.092844  0.057549  0  0.972256  0
H  H79  1  0.89333107  0.09113490  0.38730580  1  0.001414  0  0.081434  0.112443  0  1.043581  0
H  H80  1  0.10666600  0.90886672  0.61268981  1  0.001493  0  0.081421  0.112409  0  1.043603  0
H  H81  1  0.95246515  0.02461922  0.31699694  1  0.021364  0  0.088341  0.122229  0  1.020976  0
H  H82  1  0.04753947  0.97537938  0.68299901  1  0.021373  0  0.088336  0.122246  0  1.020972  0
H  H83  1  0.00725928  0.14291287  0.31968538  1  0.022618  0  0.083809  0.115469  0  1.016604  0
H  H84  1  0.99274760  0.85708573  0.68031107  1  0.022658  0  0.083793  0.115401  0  1.016625  0
H  H85  1  0.28108201  0.05999491  0.47599368  1  0.068617  0  0.085226  0.117124  0  1.047333  0
H  H86  1  0.71891660  0.94000528  0.52400576  1  0.068605  0  0.085218  0.117124  0  1.047335  0
H  H87  1  0.08670699  0.12095057  0.47492876  1  0.028784  0  0.081672  0.110575  0  1.023381  0
H  H88  1  0.91329275  0.87904960  0.52507014  1  0.028759  0  0.081668  0.110587  0  1.023398  0
H  H89  1  0.21164204  0.16057142  0.40698660  1  0.031875  0  0.082693  0.114831  0  1.015965  0
H  H90  1  0.78835788  0.83942798  0.59301136  1  0.031831  0  0.082728  0.114882  0  1.015951  0
H  H91  1  0.59652496  0.05749751  0.15010388  1  0.10247  0  0.098598  0.107387  0  1.023858  0
H  H92  1  0.40347388  0.94250647  0.84989769  1  0.102488  0  0.098592  0.107396  0  1.023883  0
H  H93  1  0.54931371  0.12791118  0.02126552  1  0.079779  0  0.103974  0.105159  0  1.021491  0
H  H94  1  0.45068229  0.87209056  0.97873583  1  0.080228  0  0.103972  0.105199  0  1.021422  0
H  H95  1  0.30510733  0.10640720  0.96250946  1  0.125217  0  0.101956  0.079015  0  1.039854  0
H  H96  1  0.69489056  0.89359156  0.03749381  1  0.125134  0  0.102007  0.079116  0  1.039776  0
H  H97  1  0.15474270  0.96184094  0.14927099  1  0.139517  0  0.097854  0.084638  0  1.057289  0
H  H98  1  0.84525822  0.03815932  0.85073259  1  0.139503  0  0.097872  0.084657  0  1.057306  0
C  C99  1  0.80277080  0.20042495  0.05442887  1  0.460421  0  0.033767  0.070205  0  3.9609  0
C  C100  1  0.19723081  0.79957667  0.94556775  1  0.460392  0  0.033791  0.070347  0  3.960744  0
C  C101  1  0.75812350  0.30088106  0.06068567  1  0.006503  0  -0.088094  -0.123239  0  3.995848  0
C  C102  1  0.24188134  0.69911686  0.93931401  1  0.006564  0  -0.088145  -0.123353  0  3.995715  0
C  C103  1  0.81976230  0.37365620  0.01548844  1  -0.099032  0  -0.067228  -0.081124  0  3.934516  0
C  C104  1  0.18023004  0.62634617  0.98450606  1  -0.099519  0  -0.067209  -0.08109  0  3.934472  0
C  C105  1  0.92415319  0.34433884  0.96424597  1  0.00537  0  -0.00368  0.029962  0  3.998569  0
C  C106  1  0.07583745  0.65566130  0.03574934  1  0.004951  0  -0.003718  0.029921  0  3.998459  0
C  C107  1  0.95498554  0.24193555  0.95929887  1  0.474489  0  0.040762  0.034412  0  3.91295  0
C  C108  1  0.04500944  0.75806531  0.04069581  1  0.47475  0  0.040806  0.034449  0  3.912731  0
C  C109  1  0.00297223  0.41515042  0.91766207  1  0.024627  0  -0.022358  0.054343  0  4.08349  0
C  C110  1  0.99702125  0.58484748  0.08233455  1  0.024639  0  -0.022379  0.05426  0  4.08347  0
C  C111  1  0.92841682  0.51195588  0.89061306  1  -0.065108  0  -0.09525  -0.182537  0  3.989922  0
C  C112  1  0.07158102  0.48804277  0.10938449  1  -0.065074  0  -0.095177  -0.182399  0  3.98991  0
C  C113  1  0.00039160  0.57843639  0.84456252  1  -0.028621  0  -0.009338  0.013432  0  3.903775  0
C  C114  1  0.99960871  0.42156155  0.15543718  1  -0.028676  0  -0.009388  0.01335  0  3.903705  0
C  C115  1  0.15342721  0.54650528  0.82521613  1  0.326798  0  0.089861  0.109267  0  4.036115  0
C  C116  1  0.84657577  0.45349567  0.17478475  1  0.327109  0  0.089869  0.109277  0  4.036141  0
C  C117  1  0.23391672  0.44990750  0.85366423  1  0.015509  0  -0.014483  -0.000649  0  3.907552  0
C  C118  1  0.76608342  0.55009121  0.14633695  1  0.015497  0  -0.014398  -0.000471  0  3.907331  0
C  C119  1  0.15584849  0.38610869  0.89900412  1  -0.085725  0  -0.097924  -0.188452  0  3.985071  0
C  C120  1  0.84414559  0.61389150  0.10099430  1  -0.085877  0  -0.097978  -0.188444  0  3.984837  0
C  C121  1  0.91442307  0.68182025  0.81434650  1  0.05512  0  -0.088487  0.083224  0  3.885103  0
C  C122  1  0.08558595  0.31818366  0.18565345  1  0.054859  0  -0.088582  0.083167  0  3.885112  0
C  C123  1  0.81507677  0.73114901  0.86895708  1  -0.100061  0  -0.250203  -0.387606  0  3.921046  0
C  C124  1  0.18491671  0.26884889  0.13103954  1  -0.099637  0  -0.25009  -0.387541  0  3.921085  0
C  C125  1  0.81628265  0.67734776  0.74926715  1  -0.068183  0  -0.245289  -0.386803  0  3.917066  0
C  C126  1  0.18373633  0.32266123  0.25072636  1  -0.068882  0  -0.245188  -0.386734  0  3.917041  0
C  C127  1  0.40194985  0.41867336  0.83705257  1  0.01099  0  -0.085261  0.091069  0  3.885533  0
C  C128  1  0.59805241  0.58132618  0.16295267  1  0.010644  0  -0.085314  0.09098  0  3.885494  0
C  C129  1  0.50504592  0.47201086  0.87717522  1  -0.10272  0  -0.245916  -0.389925  0  3.911745  0
C  C130  1  0.49495335  0.52798278  0.12283495  1  -0.102785  0  -0.245784  -0.38976  0  3.911671  0
C  C131  1  0.45775358  0.30524978  0.85201248  1  -0.026939  0  -0.2439  -0.393206  0  3.934452  0
C  C132  1  0.54224526  0.69474974  0.14799069  1  -0.027101  0  -0.243897  -0.393295  0  3.9345  0
C  C133  1  0.24206638  0.62323522  0.71622456  1  0.654785  0  0.163826  0.275615  0  3.938707  0
C  C134  1  0.75793643  0.37676652  0.28377779  1  0.654619  0  0.163822  0.275701  0  3.938659  0
C  C135  1  0.18595553  0.55532836  0.67179019  1  -0.090839  0  -0.236866  -0.463608  0  3.969138  0
C  C136  1  0.81404782  0.44466662  0.32821248  1  -0.091342  0  -0.236909  -0.463711  0  3.969509  0
C  C137  1  0.31510191  0.70715385  0.67919774  1  0.589018  0  0.117266  0.148405  0  4.00317  0
C  C138  1  0.68488880  0.29285088  0.32080222  1  0.589452  0  0.117237  0.148359  0  4.003128  0
C  C139  1  0.38236612  0.76892698  0.71706560  1  -0.026972  0  -0.069624  -0.127206  0  3.915981  0
C  C140  1  0.61762761  0.23107923  0.28293363  1  -0.02742  0  -0.069657  -0.127248  0  3.915805  0
C  C141  1  0.44082424  0.84965236  0.67968822  1  -0.111416  0  -0.068382  -0.028418  0  3.965526  0
C  C142  1  0.55916042  0.15035386  0.32031002  1  -0.111371  0  -0.068379  -0.028477  0  3.965587  0
C  C143  1  0.42979048  0.86680221  0.60615417  1  0.032018  0  -0.070606  -0.137765  0  3.921667  0
C  C144  1  0.57019965  0.13320026  0.39384503  1  0.032021  0  -0.070711  -0.137807  0  3.921699  0
C  C145  1  0.36197517  0.80095050  0.57241793  1  0.5014  0  0.115087  0.144364  0  4.01124  0
C  C146  1  0.63801949  0.19905196  0.42758176  1  0.501181  0  0.115089  0.144373  0  4.011302  0
C  C147  1  0.34375064  0.81729077  0.49394251  1  0.71123  0  0.162363  0.273025  0  3.937075  0
C  C148  1  0.65624252  0.18270872  0.50605861  1  0.71134  0  0.16239  0.273021  0  3.937237  0
C  C149  1  0.25589160  0.74968919  0.46231315  1  -0.049983  0  -0.237118  -0.462306  0  3.963761  0
C  C150  1  0.74409928  0.25031476  0.53768534  1  -0.050048  0  -0.237045  -0.462203  0  3.963605  0
C  C151  1  0.39433268  0.91378847  0.38511464  1  0.375648  0  0.089799  0.107002  0  4.043762  0
C  C152  1  0.60566764  0.08620950  0.61488663  1  0.375576  0  0.089815  0.107022  0  4.043604  0
C  C153  1  0.52137875  0.88003521  0.34487857  1  -0.000628  0  -0.011574  0.008205  0  3.899892  0
C  C154  1  0.47861969  0.11996126  0.65512290  1  -0.000599  0  -0.011558  0.008226  0  3.899856  0
C  C155  1  0.51629205  0.91183975  0.27174613  1  -0.054924  0  -0.092574  -0.181756  0  3.974752  0
C  C156  1  0.48370886  0.08815600  0.72825698  1  -0.055095  0  -0.092693  -0.181894  0  3.974929  0
C  C157  1  0.38659514  0.97348621  0.23810172  1  -0.004398  0  -0.023378  0.047871  0  4.091272  0
C  C158  1  0.61340784  0.02651027  0.76190076  1  -0.004449  0  -0.023355  0.04789  0  4.09125  0
C  C159  1  0.26191833  0.00611478  0.27912235  1  -0.067277  0  -0.096987  -0.194247  0  3.996294  0
C  C160  1  0.73808312  0.99388316  0.72087788  1  -0.067248  0  -0.096959  -0.194203  0  3.99621  0
C  C161  1  0.26376931  0.97969060  0.35253035  1  -0.057296  0  -0.012058  0.00579  0  3.900637  0
C  C162  1  0.73623252  0.02030585  0.64747058  1  -0.057211  0  -0.01204  0.005776  0  3.900553  0
C  C163  1  0.65945940  0.80811875  0.37993426  1  0.079528  0  -0.087911  0.088251  0  3.885416  0
C  C164  1  0.34054054  0.19187623  0.62006739  1  0.079502  0  -0.087914  0.088272  0  3.885269  0
C  C165  1  0.66862433  0.70435199  0.35808827  1  -0.112182  0  -0.242404  -0.386149  0  3.935016  0
C  C166  1  0.33137960  0.29564080  0.64191728  1  -0.112142  0  -0.24243  -0.386244  0  3.934929  0
C  C167  1  0.80919589  0.84929290  0.36441171  1  -0.072954  0  -0.244307  -0.391213  0  3.915649  0
C  C168  1  0.19080365  0.15070351  0.63558662  1  -0.072928  0  -0.244307  -0.391213  0  3.915546  0
C  C169  1  0.13200376  0.02147961  0.39649038  1  0.020494  0  -0.08488  0.096337  0  3.876443  0
C  C170  1  0.86799636  0.97851906  0.60350872  1  0.020468  0  -0.084866  0.096369  0  3.876475  0
C  C171  1  0.98861862  0.07240375  0.35226977  1  -0.029497  0  -0.250037  -0.403047  0  3.937991  0
C  C172  1  0.01138583  0.92759562  0.64772764  1  -0.029616  0  -0.250003  -0.402959  0  3.937957  0
C  C173  1  0.18148805  0.09468436  0.44144918  1  -0.118352  0  -0.246313  -0.393435  0  3.905358  0
C  C174  1  0.81851207  0.90531432  0.55854992  1  -0.118251  0  -0.246359  -0.393538  0  3.905409  0
C  C175  1  0.37703680  0.00701445  0.16099365  1  -0.082231  0  -0.003864  0.034071  0  3.99948  0
C  C176  1  0.62296411  0.99298578  0.83900838  1  -0.081774  0  -0.003861  0.034191  0  3.999474  0
C  C177  1  0.49011951  0.05254803  0.12334070  1  0.012015  0  -0.068813  -0.083138  0  3.928808  0
C  C178  1  0.50987801  0.94745671  0.87666078  1  0.012006  0  -0.068893  -0.083252  0  3.928822  0
C  C179  1  0.46448878  0.09103289  0.05180567  1  -0.017934  0  -0.087965  -0.123982  0  4.004547  0
C  C180  1  0.53551044  0.90896960  0.94819660  1  -0.018849  0  -0.087858  -0.123959  0  4.004434  0
C  C181  1  0.32961515  0.08022751  0.01884487  1  0.417961  0  0.037601  0.075478  0  3.961949  0
C  C182  1  0.67038407  0.91977499  0.98115741  1  0.418374  0  0.03753  0.07536  0  3.962086  0
C  C183  1  0.24618007  0.99801600  0.12329850  1  0.497239  0  0.041613  0.035426  0  3.90786  0
C  C184  1  0.75381915  0.00198650  0.87670377  1  0.49614  0  0.0416  0.035336  0  3.907832  0
N  N185  1  0.89724789  0.17200076  0.00347241  1  -1.250143  0  -0.330953  -0.220544  0  3.532331  0
N  N186  1  0.10275638  0.82799938  0.99652543  1  -1.249916  0  -0.330937  -0.22056  0  3.532179  0
N  N187  1  0.22838005  0.61678679  0.78351703  1  -1.189472  0  -0.296978  -0.325072  0  3.396378  0
N  N188  1  0.77162592  0.38321112  0.21648213  1  -1.189598  0  -0.29695  -0.32511  0  3.396154  0
N  N189  1  0.30671125  0.72226669  0.60819124  1  -1.256701  0  -0.309334  -0.315633  0  3.309918  0
N  N190  1  0.69328849  0.27773349  0.39180766  1  -1.256281  0  -0.309318  -0.315597  0  3.309897  0
N  N191  1  0.40449115  0.88850705  0.45898853  1  -1.259542  0  -0.296046  -0.314754  0  3.380986  0
N  N192  1  0.59550672  0.11149167  0.54101214  1  -1.259542  0  -0.296084  -0.314801  0  3.381023  0
N  N193  1  0.22399711  0.03270555  0.05402011  1  -1.248337  0  -0.331652  -0.220314  0  3.535321  0
N  N194  1  0.77600304  0.96729318  0.94598211  1  -1.247681  0  -0.331629  -0.220252  0  3.535455  0
Cl  Cl195  1  0.11939110  0.05216908  0.87293356  1  -0.726051  0  -0.378043  -0.591602  0  0.976515  0
Cl  Cl196  1  0.88061303  0.94783191  0.12706940  1  -0.726063  0  -0.37805  -0.591627  0  0.976547  0
