# generated using pymatgen
data_CuH9C5NO5
_symmetry_space_group_name_H-M   'P 1'
_cell_length_a   6.94432204
_cell_length_b   9.94983755
_cell_length_c   11.37883297
_cell_angle_alpha   90.00102530
_cell_angle_beta   90.00007734
_cell_angle_gamma   90.00168329
_symmetry_Int_Tables_number   1
_chemical_formula_structural   CuH9C5NO5
_chemical_formula_sum   'Cu4 H36 C20 N4 O20'
_cell_volume   786.21905437
_cell_formula_units_Z   4
loop_
 _symmetry_equiv_pos_site_id
 _symmetry_equiv_pos_as_xyz
  1  'x, y, z'
loop_
 _atom_site_type_symbol
 _atom_site_label
 _atom_site_symmetry_multiplicity
 _atom_site_fract_x
 _atom_site_fract_y
 _atom_site_fract_z
 _atom_site_occupancy
 _atom_site_hle17_ddec_charge
 _atom_site_hle17_ddec_spin_density
 _atom_site_hle17_ddec_sum_bond_order
 _atom_site_hle17_magmom
 _atom_site_hse06_10hf_ddec_charge
 _atom_site_hse06_10hf_ddec_spin_density
 _atom_site_hse06_10hf_ddec_sum_bond_order
 _atom_site_hse06_10hf_magmom
 _atom_site_hse06_ddec_charge
 _atom_site_hse06_ddec_spin_density
 _atom_site_hse06_ddec_sum_bond_order
 _atom_site_hse06_magmom
 _atom_site_pbe_cm5_charge
 _atom_site_pbe_ddec_charge
 _atom_site_pbe_ddec_spin_density
 _atom_site_pbe_ddec_sum_bond_order
 _atom_site_pbe_magmom
Cu  Cu0  1  0.61984921  0.05043645  0.98180088  1  0.942241  0.684341  1.699438  0.517  0.933102  0.782481  2.092412  0.641  1.025668  0.843204  2.019876  0.725  0.709074  0.869845  0.738838  2.150156  0.586
Cu  Cu1  1  0.88013723  0.94956943  0.48180782  1  0.942228  0.684363  1.699352  0.517  0.93299  0.782508  2.092448  0.641  1.025631  0.843241  2.019815  0.725  0.709002  0.869759  0.738859  2.150145  0.586
Cu  Cu2  1  0.11984948  0.44958669  0.01818914  1  0.942465  0.684421  1.699069  0.517  0.93307  0.782511  2.092403  0.641  1.0259  0.843244  2.019479  0.725  0.709083  0.869866  0.738886  2.150086  0.586
Cu  Cu3  1  0.38015379  0.55041224  0.51819566  1  0.942395  0.684367  1.699036  0.517  0.932946  0.782482  2.092468  0.641  1.025763  0.843227  2.019593  0.725  0.709019  0.869733  0.738849  2.15015  0.586
H  H4  1  0.71954504  0.29315742  0.22441148  1  0.08493  0.002829  0.910979  0.004  0.09486  0.001932  0.967495  0.002  0.096331  0.001311  0.966602  0.001  0.118013  0.093678  0.00237  0.968491  0.003
H  H5  1  0.78043090  0.70684224  0.72439927  1  0.085015  0.002821  0.911031  0.004  0.094849  0.001932  0.967634  0.002  0.096312  0.001311  0.96674  0.001  0.118  0.093669  0.00237  0.968623  0.003
H  H6  1  0.21956980  0.20685577  0.77559271  1  0.084921  0.002823  0.910925  0.004  0.094811  0.001931  0.967491  0.002  0.096282  0.001311  0.966593  0.001  0.117998  0.093626  0.002368  0.968486  0.003
H  H7  1  0.28042668  0.79313731  0.27559971  1  0.084932  0.002822  0.910914  0.004  0.094826  0.001932  0.967467  0.002  0.096297  0.001311  0.966566  0.001  0.118  0.093638  0.002369  0.968469  0.003
H  H8  1  0.77122065  0.81207721  0.04668209  1  0.434746  0.000573  0.866682  0.001  0.408262  0.001002  0.922594  0.002  0.420792  0.000772  0.904809  0.002  0.296119  0.39951  0.001132  0.934991  0.002
H  H9  1  0.72878237  0.18793796  0.54667393  1  0.434744  0.000577  0.866689  0.001  0.40823  0.001002  0.922632  0.002  0.42076  0.000772  0.904846  0.002  0.296097  0.399478  0.001132  0.935026  0.002
H  H10  1  0.27121181  0.68796346  0.95330809  1  0.434669  0.000576  0.866741  0.001  0.408159  0.001002  0.922666  0.002  0.420689  0.000773  0.904883  0.002  0.29614  0.399416  0.001132  0.935043  0.002
H  H11  1  0.22879072  0.31204227  0.45331445  1  0.434779  0.000578  0.866594  0.001  0.408302  0.001002  0.922471  0.002  0.420833  0.000772  0.904684  0.002  0.296184  0.399555  0.001132  0.934853  0.002
H  H12  1  0.59410116  0.81352869  0.94755207  1  0.417437  -9.1e-05  0.896361  -0.001  0.385135  0.00037  0.961637  0.0  0.398139  9.7e-05  0.943234  0.0  0.289265  0.376062  0.000606  0.974468  0.0
H  H13  1  0.90588666  0.18647449  0.44754345  1  0.417404  -8.8e-05  0.896429  -0.001  0.385176  0.00037  0.961582  0.0  0.39818  9.8e-05  0.943181  0.0  0.289285  0.376105  0.000606  0.974412  0.0
H  H14  1  0.09411530  0.68650319  0.05244495  1  0.417493  -8.8e-05  0.896256  -0.001  0.385331  0.000371  0.961321  0.0  0.398333  9.8e-05  0.94292  0.0  0.289317  0.376264  0.000606  0.974147  0.0
H  H15  1  0.40588947  0.31351050  0.55245126  1  0.417536  -8.9e-05  0.896224  -0.001  0.38538  0.00037  0.961278  0.0  0.398384  9.7e-05  0.942871  0.0  0.289318  0.376309  0.000605  0.974108  0.0
H  H16  1  0.73242935  0.02962339  0.20288259  1  0.320925  -0.000261  0.864087  0.0  0.313655  0.000809  0.918861  0.001  0.319615  0.000335  0.91698  0.0  0.309163  0.309219  0.00124  0.920809  0.001
H  H17  1  0.76757536  0.97037484  0.70289387  1  0.320904  -0.000256  0.864197  0.0  0.313674  0.000809  0.918902  0.001  0.319634  0.000334  0.91702  0.0  0.309142  0.309232  0.001239  0.920853  0.001
H  H18  1  0.23244755  0.47039410  0.79711107  1  0.320751  -0.000256  0.864326  0.0  0.31349  0.000811  0.919063  0.001  0.31945  0.000336  0.917186  0.0  0.309032  0.309049  0.001241  0.921012  0.001
H  H19  1  0.26757633  0.52959239  0.29710861  1  0.320742  -0.000258  0.864314  0.0  0.31349  0.00081  0.919069  0.001  0.31945  0.000335  0.91719  0.0  0.309  0.309043  0.00124  0.921032  0.001
H  H20  1  0.85920692  0.13434819  0.11716028  1  0.313264  -0.002507  0.902336  -0.003  0.30284  -0.000663  0.960456  -0.001  0.311462  -0.000937  0.954793  -0.001  0.297366  0.296839  -0.000335  0.964532  -0.001
H  H21  1  0.64078181  0.86566639  0.61716186  1  0.313349  -0.002502  0.902246  -0.003  0.302874  -0.000664  0.960456  -0.001  0.311497  -0.000937  0.954794  -0.001  0.297356  0.296871  -0.000336  0.964523  -0.001
H  H22  1  0.35920661  0.36568305  0.88284494  1  0.313273  -0.002504  0.902416  -0.003  0.302829  -0.000664  0.960548  -0.001  0.311446  -0.000937  0.954896  -0.001  0.297323  0.296823  -0.000335  0.964633  -0.001
H  H23  1  0.14080012  0.63430517  0.38284048  1  0.313369  -0.002504  0.902389  -0.003  0.302973  -0.000664  0.960474  -0.001  0.311593  -0.000937  0.954817  -0.001  0.297376  0.29696  -0.000335  0.96456  -0.001
H  H24  1  0.53654786  0.13624064  0.35250236  1  0.105256  0.000104  0.961032  0.0  0.121322  0.00016  1.017668  0.0  0.123356  0.000112  1.017073  0.0  0.096412  0.119843  0.00022  1.018119  0.0
H  H25  1  0.96344845  0.86374554  0.85251041  1  0.105149  9.4e-05  0.961105  0.0  0.121256  0.00016  1.017714  0.0  0.123296  0.000112  1.017125  0.0  0.096393  0.119774  0.000219  1.01816  0.0
H  H26  1  0.03653989  0.36375961  0.64749109  1  0.105295  0.000104  0.960883  0.0  0.121394  0.00016  1.017518  0.0  0.123436  0.000112  1.016923  0.0  0.096442  0.119911  0.000219  1.017972  0.0
H  H27  1  0.46346646  0.63623992  0.14749228  1  0.105312  9.1e-05  0.960996  0.0  0.121409  0.00016  1.017598  0.0  0.123439  0.000112  1.017003  0.0  0.096474  0.119925  0.00022  1.018057  0.0
H  H28  1  0.41035274  0.28327243  0.31032338  1  0.072977  4.1e-05  0.966983  0.001  0.085096  -1.5e-05  1.038629  0.0  0.086297  -0.000117  1.038035  0.0  0.095005  0.083887  0.00012  1.039703  0.001
H  H29  1  0.08964091  0.71670930  0.81030762  1  0.07292  2.9e-05  0.967048  0.001  0.085051  -1.4e-05  1.038696  0.0  0.086251  -0.000116  1.038116  0.0  0.095028  0.083845  0.00012  1.039761  0.001
H  H30  1  0.91036883  0.21670864  0.68968452  1  0.07298  4.3e-05  0.966914  0.001  0.085123  -1.4e-05  1.038593  0.0  0.086327  -0.000117  1.038005  0.0  0.095  0.083912  0.00012  1.039663  0.001
H  H31  1  0.58961714  0.78328429  0.18968413  1  0.072977  3.3e-05  0.96708  0.001  0.085118  -1.4e-05  1.038723  0.0  0.086321  -0.000116  1.038125  0.0  0.094999  0.083907  0.00012  1.039803  0.001
H  H32  1  0.33967201  0.99911454  0.21301235  1  0.099267  -0.000238  0.945197  0.0  0.110958  -8.4e-05  1.011955  0.0  0.113532  -0.000187  1.009609  0.0  0.096619  0.10887  4e-05  1.014284  0.0
H  H33  1  0.16032293  0.00087225  0.71302225  1  0.099192  -0.000228  0.945389  0.0  0.110939  -8.4e-05  1.01216  0.0  0.113549  -0.000187  1.009781  0.0  0.096671  0.108853  4e-05  1.014463  0.0
H  H34  1  0.83966510  0.50086728  0.78700603  1  0.099323  -0.000227  0.945194  0.0  0.110907  -8.4e-05  1.012031  0.0  0.113535  -0.000187  1.009643  0.0  0.096641  0.108816  4e-05  1.014359  0.0
H  H35  1  0.66035415  0.49913164  0.28699155  1  0.099238  -0.000227  0.945168  0.0  0.110837  -8.4e-05  1.012097  0.0  0.113466  -0.000188  1.009706  0.0  0.096628  0.108755  4e-05  1.014374  0.0
H  H36  1  0.23346291  0.14756424  0.15459271  1  0.111066  -0.000601  0.947234  0.0  0.123483  -0.000367  1.011728  0.0  0.125862  -0.00037  1.011003  0.0  0.101603  0.121874  -0.000299  1.012249  0.0
H  H37  1  0.26652330  0.85243745  0.65459686  1  0.111046  -0.000586  0.947295  0.0  0.123546  -0.000367  1.011762  0.0  0.125928  -0.00037  1.011034  0.0  0.10165  0.121928  -0.0003  1.01227  0.0
H  H38  1  0.73344874  0.35239899  0.84540622  1  0.110982  -0.000596  0.94723  0.0  0.12345  -0.000367  1.011632  0.0  0.125839  -0.00037  1.010913  0.0  0.101563  0.121833  -0.000299  1.012149  0.0
H  H39  1  0.76655907  0.64761116  0.34539859  1  0.110896  -0.000588  0.947199  0.0  0.123392  -0.000366  1.011672  0.0  0.125775  -0.00037  1.010961  0.0  0.10156  0.121779  -0.000299  1.012161  0.0
C  C40  1  0.51569351  0.29343625  0.08429683  1  0.630356  -0.00812  3.842509  -0.006  0.591683  -0.0015  4.145647  -0.001  0.627786  -0.001504  4.141186  -0.001  0.209457  0.567069  -0.001207  4.146933  -0.001
C  C41  1  0.98429230  0.70656560  0.58429010  1  0.630587  -0.008107  3.842323  -0.006  0.591857  -0.0015  4.1455  -0.001  0.627944  -0.001504  4.141065  -0.001  0.209493  0.567241  -0.001209  4.146781  -0.001
C  C42  1  0.01571559  0.20658869  0.91571418  1  0.63048  -0.008139  3.842544  -0.006  0.591697  -0.001502  4.145827  -0.001  0.627797  -0.001507  4.141379  -0.001  0.209422  0.56707  -0.001211  4.147118  -0.001
C  C43  1  0.48428831  0.79340623  0.41571261  1  0.630373  -0.008129  3.842054  -0.006  0.591633  -0.001505  4.145277  -0.001  0.627746  -0.001508  4.140817  -0.001  0.209392  0.567004  -0.001214  4.146572  -0.001
C  C44  1  0.61617855  0.22180602  0.18581990  1  0.055614  -0.002547  3.61743  -0.003  0.042387  0.000607  3.861977  -0.001  0.043074  -0.000221  3.876224  -0.001  -0.003563  0.04203  0.0015  3.852569  0.0
C  C45  1  0.88380886  0.77818985  0.68581772  1  0.055169  -0.002515  3.617801  -0.003  0.042092  0.000608  3.86227  -0.001  0.042795  -0.000221  3.876525  -0.001  -0.003576  0.041729  0.001501  3.852857  0.0
C  C46  1  0.11618754  0.27819693  0.81418593  1  0.055518  -0.002514  3.617418  -0.003  0.042404  0.000608  3.861902  -0.001  0.043099  -0.00022  3.876157  -0.001  -0.003479  0.042091  0.001501  3.852404  0.0
C  C47  1  0.38381765  0.72179593  0.31418839  1  0.055501  -0.002524  3.617592  -0.003  0.042375  0.000612  3.862085  -0.001  0.043068  -0.000218  3.876324  -0.001  -0.003493  0.042045  0.001503  3.852621  0.0
C  C48  1  0.46563765  0.18667715  0.27858126  1  -0.141864  0.001738  3.678411  0.002  -0.18616  0.001472  3.929458  0.002  -0.187293  0.000863  3.942707  0.001  -0.169835  -0.184893  0.002032  3.920249  0.002
C  C49  1  0.03435163  0.81330796  0.77858278  1  -0.141538  0.001776  3.678434  0.002  -0.185869  0.001471  3.929569  0.002  -0.187028  0.000863  3.942858  0.001  -0.16979  -0.184576  0.002031  3.920299  0.002
C  C50  1  0.96564043  0.31331514  0.72141792  1  -0.141801  0.001732  3.678189  0.002  -0.18631  0.001471  3.929372  0.002  -0.187463  0.000863  3.942672  0.001  -0.169864  -0.185024  0.002031  3.920121  0.002
C  C51  1  0.53436432  0.68667943  0.22141858  1  -0.142017  0.001779  3.678469  0.002  -0.186398  0.001471  3.929645  0.002  -0.187519  0.000863  3.942903  0.001  -0.169934  -0.185133  0.002031  3.920414  0.002
C  C52  1  0.29634796  0.10220920  0.23438440  1  -0.267142  0.006054  3.665735  0.007  -0.308248  0.003474  3.920315  0.004  -0.314581  0.002108  3.928031  0.003  -0.168963  -0.303667  0.004721  3.914894  0.006
C  C53  1  0.20363837  0.89778003  0.73439096  1  -0.267016  0.006002  3.665815  0.007  -0.308346  0.003474  3.920577  0.004  -0.314709  0.002108  3.928303  0.003  -0.169086  -0.303805  0.004719  3.915248  0.006
C  C54  1  0.79634703  0.39776743  0.76561899  1  -0.267105  0.006025  3.665658  0.007  -0.308036  0.003475  3.920041  0.004  -0.314443  0.002107  3.927822  0.003  -0.168886  -0.303458  0.00472  3.914635  0.006
C  C55  1  0.70366498  0.60223508  0.26561497  1  -0.266751  0.006006  3.665205  0.007  -0.307915  0.003476  3.919847  0.004  -0.314345  0.002109  3.927651  0.003  -0.168859  -0.303251  0.004721  3.914333  0.006
C  C56  1  0.13575202  0.09919529  0.32461587  1  0.717331  -0.004068  3.774409  -0.004  0.677813  0.000269  4.068982  0.0  0.714492  -0.000389  4.062264  0.0  0.223875  0.652734  0.000686  4.072464  0.0
C  C57  1  0.36423302  0.90079577  0.82462000  1  0.717463  -0.004057  3.774271  -0.004  0.678086  0.00027  4.068741  0.0  0.714764  -0.000389  4.062024  0.0  0.224086  0.652996  0.000687  4.072208  0.0
C  C58  1  0.63575971  0.40079099  0.67538032  1  0.717346  -0.004048  3.774154  -0.004  0.677841  0.000269  4.068646  0.0  0.714502  -0.000389  4.061978  0.0  0.223996  0.652757  0.000686  4.072123  0.0
C  C59  1  0.86425504  0.59922276  0.17537555  1  0.717277  -0.004056  3.774392  -0.004  0.677872  0.00027  4.06883  0.0  0.714539  -0.000387  4.062146  0.0  0.223963  0.652778  0.000689  4.072316  0.0
N  N60  1  0.72280424  0.10375150  0.14067204  1  -0.619125  0.097976  3.109709  0.125  -0.611433  0.063581  3.388001  0.085  -0.645855  0.048592  3.388891  0.071  -0.632113  -0.590083  0.07175  3.389446  0.091
N  N61  1  0.77719030  0.89624847  0.64067865  1  -0.619083  0.09795  3.109774  0.125  -0.611394  0.063575  3.387993  0.085  -0.645825  0.048586  3.388867  0.071  -0.63207  -0.590046  0.071747  3.389431  0.091
N  N62  1  0.22280512  0.39627281  0.85933215  1  -0.619033  0.097958  3.109836  0.125  -0.611219  0.06358  3.387995  0.085  -0.645701  0.048591  3.388893  0.071  -0.631994  -0.589882  0.071748  3.389451  0.091
N  N63  1  0.27720301  0.60372096  0.35932824  1  -0.619014  0.097968  3.109846  0.125  -0.611303  0.063586  3.387998  0.085  -0.645787  0.048594  3.388904  0.071  -0.631954  -0.589966  0.071753  3.389459  0.091
O  O64  1  0.70926679  0.86343961  0.98149362  1  -0.841325  0.051742  2.001347  0.072  -0.799877  0.040584  2.2257  0.06  -0.833606  0.031838  2.18628  0.051  -0.592369  -0.777037  0.04612  2.253959  0.064
O  O65  1  0.79072829  0.13656325  0.48149024  1  -0.841333  0.051729  2.00141  0.072  -0.799867  0.040577  2.225765  0.06  -0.833609  0.031832  2.186338  0.051  -0.592371  -0.777035  0.046112  2.254018  0.064
O  O66  1  0.20926301  0.63659170  0.01849737  1  -0.841382  0.051732  2.001107  0.072  -0.799941  0.040579  2.225428  0.06  -0.833717  0.03183  2.185971  0.051  -0.592428  -0.77712  0.046115  2.253675  0.064
O  O67  1  0.29073738  0.36341327  0.51850172  1  -0.841481  0.051736  2.001116  0.072  -0.800027  0.040584  2.225384  0.06  -0.833804  0.031835  2.185929  0.051  -0.592437  -0.777209  0.046119  2.253644  0.064
O  O68  1  0.51969632  0.23575599  0.98175748  1  -0.604676  0.083744  2.044026  0.119  -0.572044  0.054122  2.319528  0.083  -0.614703  0.040473  2.310302  0.067  -0.323559  -0.54342  0.062376  2.326435  0.091
O  O69  1  0.98030308  0.76424586  0.48175192  1  -0.604672  0.083747  2.043967  0.119  -0.572026  0.054126  2.319511  0.083  -0.614693  0.040474  2.310289  0.067  -0.323537  -0.543408  0.062383  2.32641  0.091
O  O70  1  0.01970924  0.26427707  0.01824914  1  -0.604638  0.083753  2.044074  0.119  -0.571929  0.054132  2.319642  0.083  -0.614636  0.04048  2.3104  0.067  -0.323488  -0.543317  0.062387  2.326547  0.091
O  O71  1  0.48030555  0.73573292  0.51824551  1  -0.604479  0.083718  2.044222  0.119  -0.5718  0.054119  2.319808  0.083  -0.614506  0.040468  2.310567  0.067  -0.323454  -0.543191  0.062372  2.326709  0.091
O  O72  1  0.42758630  0.40050159  0.10413709  1  -0.592953  0.024288  1.972278  0.034  -0.567558  0.010051  2.221696  0.016  -0.599991  0.004034  2.212826  0.008  -0.312133  -0.54271  0.017184  2.226701  0.024
O  O73  1  0.07240127  0.59950009  0.60412649  1  -0.593067  0.024289  1.972061  0.034  -0.567642  0.010052  2.221501  0.016  -0.600072  0.004034  2.212645  0.008  -0.312166  -0.542787  0.017186  2.226503  0.024
O  O74  1  0.92761236  0.09950498  0.89587522  1  -0.59304  0.024288  1.971883  0.034  -0.567616  0.010048  2.221283  0.016  -0.600023  0.004033  2.212442  0.008  -0.3122  -0.542761  0.017181  2.226287  0.024
O  O75  1  0.57240850  0.90050821  0.39586876  1  -0.593089  0.024319  1.971181  0.034  -0.56765  0.010054  2.22057  0.016  -0.60008  0.004035  2.211724  0.008  -0.3122  -0.54279  0.017193  2.225574  0.024
O  O76  1  0.04926339  0.98729147  0.34250693  1  -0.608533  0.06443  2.00125  0.09  -0.582069  0.041499  2.27859  0.063  -0.620576  0.030495  2.264848  0.051  -0.327559  -0.555312  0.049614  2.288441  0.071
O  O77  1  0.45073319  0.01270297  0.84250589  1  -0.608747  0.064429  2.00118  0.09  -0.582352  0.041498  2.278509  0.063  -0.620847  0.030495  2.26477  0.051  -0.327774  -0.555581  0.049615  2.288369  0.071
O  O78  1  0.54927260  0.51269222  0.65749093  1  -0.608723  0.064419  2.001221  0.09  -0.582232  0.041495  2.278592  0.063  -0.620767  0.030492  2.264838  0.051  -0.327727  -0.555483  0.049607  2.288448  0.071
O  O79  1  0.95074068  0.48732619  0.15748008  1  -0.608748  0.064407  2.001576  0.09  -0.582294  0.041487  2.278909  0.063  -0.62083  0.030486  2.265139  0.051  -0.327774  -0.555551  0.0496  2.288779  0.071
O  O80  1  0.09207688  0.20930468  0.37571071  1  -0.629816  0.000536  1.994544  0.001  -0.56323  0.000206  2.197466  0.001  -0.589879  -0.000527  2.184817  0.0  -0.311881  -0.544374  0.00128  2.205678  0.002
O  O81  1  0.40791688  0.79069646  0.87571402  1  -0.629752  0.000544  1.994636  0.001  -0.563161  0.000205  2.197532  0.001  -0.589801  -0.000527  2.184878  0.0  -0.311864  -0.544304  0.001279  2.205745  0.002
O  O82  1  0.59208291  0.29067565  0.62428456  1  -0.62975  0.000533  1.994269  0.001  -0.563188  0.000205  2.197165  0.001  -0.589815  -0.000527  2.184516  0.0  -0.31186  -0.544333  0.001279  2.205381  0.002
O  O83  1  0.90793176  0.70934108  0.12428421  1  -0.629708  0.000546  1.994325  0.001  -0.563136  0.000205  2.197164  0.001  -0.589757  -0.000527  2.184506  0.0  -0.311802  -0.544294  0.00128  2.205392  0.002
