# generated using pymatgen
data_H8PbC10(NCl)2
_symmetry_space_group_name_H-M   'P 1'
_cell_length_a   8.21991993
_cell_length_b   9.42359526
_cell_length_c   14.95613876
_cell_angle_alpha   89.99998784
_cell_angle_beta   91.00089465
_cell_angle_gamma   89.99990190
_symmetry_Int_Tables_number   1
_chemical_formula_structural   H8PbC10(NCl)2
_chemical_formula_sum   'H32 Pb4 C40 N8 Cl8'
_cell_volume   1158.34366848
_cell_formula_units_Z   4
loop_
 _symmetry_equiv_pos_site_id
 _symmetry_equiv_pos_as_xyz
  1  'x, y, z'
loop_
 _atom_site_type_symbol
 _atom_site_label
 _atom_site_symmetry_multiplicity
 _atom_site_fract_x
 _atom_site_fract_y
 _atom_site_fract_z
 _atom_site_occupancy
 _atom_site_hle17_bader_spin_density
 _atom_site_hle17_ddec_charge
 _atom_site_hle17_ddec_spin_density
 _atom_site_hle17_ddec_sum_bond_order
 _atom_site_hle17_magmom
 _atom_site_hse06_10hf_bader_spin_density
 _atom_site_hse06_10hf_ddec_charge
 _atom_site_hse06_10hf_ddec_spin_density
 _atom_site_hse06_10hf_ddec_sum_bond_order
 _atom_site_hse06_10hf_magmom
 _atom_site_hse06_bader_spin_density
 _atom_site_hse06_ddec_charge
 _atom_site_hse06_ddec_spin_density
 _atom_site_hse06_ddec_sum_bond_order
 _atom_site_hse06_magmom
 _atom_site_pbe_bader_spin_density
 _atom_site_pbe_cm5_charge
 _atom_site_pbe_ddec_charge
 _atom_site_pbe_ddec_spin_density
 _atom_site_pbe_ddec_sum_bond_order
 _atom_site_pbe_magmom
H  H0  1  0.83585274  0.95992265  0.92656071  1  0  0.075092  0  0.961988  0  0  0.083986  0  1.026541  0  0  0.086176  0  1.025026  0  0  0.106445  0.080952  0  1.029842  0
H  H1  1  0.66415537  0.45991843  0.07343581  1  0  0.07501  0  0.962028  0  0  0.083928  0  1.026569  0  0  0.086107  0  1.025043  0  0  0.106436  0.080896  0  1.029867  0
H  H2  1  0.16415990  0.04007905  0.07343351  1  0  0.075004  0  0.962046  0  0  0.083921  0  1.026597  0  0  0.086102  0  1.025065  0  0  0.106437  0.080889  0  1.029898  0
H  H3  1  0.33583760  0.54008221  0.92656541  1  0  0.075005  0  0.962082  0  0  0.083921  0  1.026647  0  0  0.086102  0  1.025112  0  0  0.106452  0.080886  0  1.02995  0
H  H4  1  0.91724543  0.19671705  0.99311993  1  0  0.104812  0  0.980791  0  0  0.110866  0  1.048138  0  0  0.114264  0  1.046758  0  0  0.092936  0.108401  0  1.049166  0
H  H5  1  0.58274969  0.69671454  0.00688041  1  0  0.104814  0  0.980806  0  0  0.110884  0  1.048126  0  0  0.114281  0  1.046749  0  0  0.092964  0.108421  0  1.049155  0
H  H6  1  0.08275485  0.80328146  0.00688076  1  0  0.104751  0  0.980834  0  0  0.110816  0  1.048167  0  0  0.114214  0  1.04679  0  0  0.092918  0.108353  0  1.049194  0
H  H7  1  0.41724822  0.30328610  0.99311823  1  0  0.104814  0  0.980798  0  0  0.110852  0  1.048169  0  0  0.114253  0  1.046786  0  0  0.092892  0.108385  0  1.04919  0
H  H8  1  0.82603730  0.41846583  0.91291861  1  0  0.103392  0  0.955977  0  0  0.111998  0  1.018977  0  0  0.115095  0  1.016604  0  0  0.097955  0.108293  0  1.023023  0
H  H9  1  0.67395619  0.91846422  0.08708167  1  0  0.103365  0  0.955987  0  0  0.111965  0  1.018995  0  0  0.115061  0  1.016622  0  0  0.097925  0.108264  0  1.023032  0
H  H10  1  0.17395925  0.58153374  0.08708535  1  0  0.103387  0  0.955993  0  0  0.111997  0  1.018998  0  0  0.115093  0  1.016628  0  0  0.09794  0.108297  0  1.023045  0
H  H11  1  0.32604539  0.08153748  0.91291637  1  0  0.103374  0  0.956101  0  0  0.111976  0  1.019111  0  0  0.115072  0  1.016739  0  0  0.097943  0.108279  0  1.023135  0
H  H12  1  0.65330013  0.39691158  0.77649982  1  0  0.103183  0  0.955525  0  0  0.114026  0  1.017913  0  0  0.11696  0  1.016995  0  0  0.107832  0.113651  0  1.014987  0
H  H13  1  0.84669830  0.89690753  0.22349922  1  0  0.103131  0  0.955621  0  0  0.11398  0  1.018012  0  0  0.116911  0  1.017098  0  0  0.107808  0.113604  0  1.015087  0
H  H14  1  0.34670252  0.60309012  0.22350359  1  0  0.103203  0  0.955511  0  0  0.114042  0  1.017892  0  0  0.116976  0  1.016974  0  0  0.107831  0.113663  0  1.014971  0
H  H15  1  0.15329837  0.10308992  0.77650007  1  0  0.103244  0  0.955528  0  0  0.114091  0  1.017907  0  0  0.117024  0  1.016992  0  0  0.107836  0.113716  0  1.014981  0
H  H16  1  0.36876418  0.87964266  0.59488631  1  0  0.067378  0  0.990917  0  0  0.07311  0  1.062647  0  0  0.075349  0  1.061336  0  0  0.09969  0.071798  0  1.063357  0
H  H17  1  0.13123633  0.37964156  0.40511196  1  0  0.067377  0  0.990911  0  0  0.073109  0  1.06264  0  0  0.075347  0  1.061329  0  0  0.099705  0.071792  0  1.063356  0
H  H18  1  0.63123113  0.12035585  0.40511830  1  0  0.06738  0  0.990959  0  0  0.073096  0  1.062693  0  0  0.075333  0  1.061387  0  0  0.09967  0.071781  0  1.063412  0
H  H19  1  0.86876531  0.62035801  0.59488407  1  0  0.067398  0  0.990854  0  0  0.073109  0  1.062611  0  0  0.075347  0  1.061304  0  0  0.099679  0.071792  0  1.063321  0
H  H20  1  0.25926640  0.07753170  0.49688310  1  0  0.109707  0  0.975827  0  0  0.11557  0  1.043096  0  0  0.119282  0  1.041484  0  0  0.093803  0.112559  0  1.044645  0
H  H21  1  0.24073098  0.57753090  0.50311715  1  0  0.109704  0  0.975753  0  0  0.1156  0  1.04299  0  0  0.119312  0  1.041377  0  0  0.09381  0.112584  0  1.044549  0
H  H22  1  0.74073010  0.92246894  0.50312220  1  0  0.109703  0  0.97558  0  0  0.115565  0  1.042864  0  0  0.119278  0  1.041251  0  0  0.093784  0.112552  0  1.044417  0
H  H23  1  0.75926322  0.42246867  0.49688343  1  0  0.109699  0  0.975794  0  0  0.115585  0  1.043039  0  0  0.119297  0  1.041428  0  0  0.0938  0.112568  0  1.044593  0
H  H24  1  0.35479176  0.32648544  0.53006706  1  0  0.099422  0  0.934969  0  0  0.111623  0  0.993232  0  0  0.114315  0  0.991243  0  0  0.105216  0.108702  0  0.996163  0
H  H25  1  0.14520148  0.82648480  0.46993376  1  0  0.09943  0  0.934923  0  0  0.111664  0  0.993154  0  0  0.114357  0  0.991164  0  0  0.105222  0.108737  0  0.996087  0
H  H26  1  0.64520604  0.67351308  0.46993559  1  0  0.09941  0  0.934938  0  0  0.111645  0  0.993178  0  0  0.11434  0  0.991183  0  0  0.105219  0.108723  0  0.996108  0
H  H27  1  0.85479026  0.17351478  0.53006811  1  0  0.099476  0  0.934934  0  0  0.111686  0  0.993182  0  0  0.114378  0  0.991191  0  0  0.105226  0.108762  0  0.996116  0
H  H28  1  0.53374670  0.37000795  0.65995320  1  0  0.10587  0  0.994106  0  0  0.112565  0  1.062528  0  0  0.116202  0  1.060733  0  0  0.093263  0.109922  0  1.064154  0
H  H29  1  0.96625185  0.87000580  0.34004316  1  0  0.105878  0  0.9941  0  0  0.112534  0  1.06254  0  0  0.116201  0  1.060714  0  0  0.093265  0.10989  0  1.064169  0
H  H30  1  0.46625362  0.62999163  0.34004615  1  0  0.105803  0  0.994024  0  0  0.11246  0  1.062497  0  0  0.116126  0  1.060672  0  0  0.093229  0.109815  0  1.06412  0
H  H31  1  0.03374727  0.12998847  0.65995550  1  0  0.10578  0  0.994033  0  0  0.112407  0  1.06254  0  0  0.116095  0  1.06069  0  0  0.093197  0.109763  0  1.064166  0
Pb  Pb32  1  0.64545929  0.80565792  0.75563924  1  0  1.05106  0  1.705299  0  0  0.858646  0  2.144158  0  0  0.911686  0  2.108008  0  0  0.470916  0.821033  0  2.167133  0
Pb  Pb33  1  0.85454682  0.30566396  0.24435259  1  0  1.051086  0  1.705342  0  0  0.858679  0  2.144234  0  0  0.911732  0  2.108046  0  0  0.470949  0.821044  0  2.167257  0
Pb  Pb34  1  0.35454351  0.19433104  0.24435882  1  0  1.051072  0  1.705362  0  0  0.858679  0  2.144237  0  0  0.9117  0  2.108085  0  0  0.470944  0.821046  0  2.167219  0
Pb  Pb35  1  0.14545011  0.69434304  0.75563734  1  0  1.051056  0  1.705322  0  0  0.858655  0  2.144215  0  0  0.911684  0  2.108041  0  0  0.470942  0.821007  0  2.16724  0
C  C36  1  0.79802749  0.06010794  0.89585869  1  0  0.127069  0  3.705944  0  0  0.097843  0  3.951661  0  0  0.104134  0  3.970736  0  0  0.050359  0.094117  0  3.940503  0
C  C37  1  0.70197647  0.56010733  0.10413981  1  0  0.127215  0  3.70613  0  0  0.097955  0  3.951853  0  0  0.104269  0  3.970913  0  0  0.050433  0.094233  0  3.940688  0
C  C38  1  0.20198017  0.93989270  0.10413946  1  0  0.127156  0  3.705941  0  0  0.097883  0  3.951666  0  0  0.104199  0  3.97072  0  0  0.050387  0.094153  0  3.940507  0
C  C39  1  0.29801775  0.43989755  0.89586010  1  0  0.127124  0  3.70577  0  0  0.097838  0  3.9515  0  0  0.104153  0  3.970557  0  0  0.05034  0.094117  0  3.940334  0
C  C40  1  0.84292439  0.19066422  0.93216640  1  0  -0.095734  0  3.713058  0  0  -0.108117  0  3.962832  0  0  -0.113984  0  3.983451  0  0  -0.08047  -0.104518  0  3.948929  0
C  C41  1  0.65707803  0.69066264  0.06783473  1  0  -0.095817  0  3.713193  0  0  -0.108217  0  3.962983  0  0  -0.114088  0  3.983597  0  0  -0.080529  -0.104624  0  3.94908  0
C  C42  1  0.15707958  0.80933217  0.06783302  1  0  -0.09565  0  3.71296  0  0  -0.108037  0  3.962746  0  0  -0.113906  0  3.983359  0  0  -0.080456  -0.10444  0  3.948846  0
C  C43  1  0.34292460  0.30933269  0.93216934  1  0  -0.095752  0  3.712928  0  0  -0.108097  0  3.962682  0  0  -0.113967  0  3.983296  0  0  -0.080426  -0.104492  0  3.948767  0
C  C44  1  0.79154316  0.31359612  0.88811777  1  0  0.001484  0  3.694446  0  0  -0.017233  0  3.944784  0  0  -0.014134  0  3.962591  0  0  -0.066489  -0.018619  0  3.934486  0
C  C45  1  0.70845657  0.81359444  0.11188397  1  0  0.001582  0  3.694474  0  0  -0.017115  0  3.944801  0  0  -0.014017  0  3.962611  0  0  -0.066424  -0.018502  0  3.934507  0
C  C46  1  0.20845711  0.68640345  0.11188359  1  0  0.001458  0  3.69438  0  0  -0.017272  0  3.944743  0  0  -0.014175  0  3.962555  0  0  -0.06645  -0.018668  0  3.934452  0
C  C47  1  0.29154849  0.18640513  0.88812015  1  0  0.00154  0  3.694653  0  0  -0.017182  0  3.944989  0  0  -0.014087  0  3.962805  0  0  -0.066497  -0.018571  0  3.93469  0
C  C48  1  0.69608157  0.30165066  0.81072581  1  0  -0.134506  0  3.699846  0  0  -0.153265  0  3.947143  0  0  -0.160002  0  3.969145  0  0  -0.077409  -0.149408  0  3.931601  0
C  C49  1  0.80392073  0.80165412  0.18927197  1  0  -0.134445  0  3.69983  0  0  -0.153262  0  3.947126  0  0  -0.159998  0  3.969129  0  0  -0.077388  -0.149392  0  3.93157  0
C  C50  1  0.30392113  0.69834998  0.18927559  1  0  -0.134472  0  3.699735  0  0  -0.153222  0  3.946995  0  0  -0.159961  0  3.969001  0  0  -0.077383  -0.149357  0  3.931454  0
C  C51  1  0.19607956  0.19835289  0.81072872  1  0  -0.134595  0  3.699873  0  0  -0.153387  0  3.94716  0  0  -0.160126  0  3.969169  0  0  -0.077347  -0.149525  0  3.931618  0
C  C52  1  0.65468325  0.16670857  0.77797320  1  0  0.172609  0  3.756549  0  0  0.168046  0  3.997515  0  0  0.174601  0  4.018457  0  0  0.122387  0.163758  0  3.983447  0
C  C53  1  0.84532171  0.66670558  0.22202598  1  0  0.172562  0  3.756555  0  0  0.168111  0  3.997372  0  0  0.174665  0  4.018317  0  0  0.122448  0.163818  0  3.983306  0
C  C54  1  0.34531708  0.83329313  0.22202615  1  0  0.172677  0  3.756426  0  0  0.168133  0  3.997308  0  0  0.174686  0  4.018255  0  0  0.122445  0.163845  0  3.983237  0
C  C55  1  0.15467497  0.33329611  0.77797331  1  0  0.172604  0  3.756632  0  0  0.168116  0  3.997469  0  0  0.17467  0  4.018416  0  0  0.122419  0.163829  0  3.983407  0
C  C56  1  0.40115747  0.99042519  0.60720404  1  0  0.114833  0  3.738871  0  0  0.086945  0  3.985474  0  0  0.092709  0  4.006175  0  0  0.044252  0.083007  0  3.97209  0
C  C57  1  0.09884410  0.49042309  0.39279223  1  0  0.114909  0  3.73882  0  0  0.087013  0  3.985438  0  0  0.092782  0  4.006136  0  0  0.044254  0.083078  0  3.972056  0
C  C58  1  0.59884031  0.00957756  0.39279928  1  0  0.114793  0  3.738812  0  0  0.086927  0  3.985416  0  0  0.092691  0  4.006117  0  0  0.044269  0.082991  0  3.972038  0
C  C59  1  0.90115626  0.50957330  0.60720578  1  0  0.114887  0  3.738589  0  0  0.086984  0  3.985238  0  0  0.092749  0  4.005935  0  0  0.044256  0.083055  0  3.971845  0
C  C60  1  0.34225699  0.09962511  0.55290230  1  0  -0.114523  0  3.721533  0  0  -0.125031  0  3.969595  0  0  -0.131969  0  3.990952  0  0  -0.083466  -0.120351  0  3.955487  0
C  C61  1  0.15774161  0.59962976  0.44709664  1  0  -0.114595  0  3.721524  0  0  -0.125107  0  3.969581  0  0  -0.132048  0  3.990936  0  0  -0.083475  -0.120421  0  3.955467  0
C  C62  1  0.65773594  0.90037235  0.44710026  1  0  -0.11455  0  3.721262  0  0  -0.125058  0  3.969349  0  0  -0.131996  0  3.990702  0  0  -0.083443  -0.120374  0  3.955242  0
C  C63  1  0.84225748  0.40036663  0.55290336  1  0  -0.114562  0  3.721644  0  0  -0.125069  0  3.969694  0  0  -0.132009  0  3.991052  0  0  -0.083448  -0.12038  0  3.955575  0
C  C64  1  0.39369484  0.23750238  0.57174058  1  0  0.008612  0  3.703031  0  0  -0.010356  0  3.95261  0  0  -0.006777  0  3.970587  0  0  -0.064567  -0.012729  0  3.941974  0
C  C65  1  0.10630592  0.73749757  0.42825838  1  0  0.008663  0  3.703113  0  0  -0.010363  0  3.952713  0  0  -0.006786  0  3.970699  0  0  -0.064553  -0.012731  0  3.942066  0
C  C66  1  0.60629813  0.76249720  0.42826065  1  0  0.008713  0  3.703089  0  0  -0.010284  0  3.95267  0  0  -0.006707  0  3.970658  0  0  -0.064504  -0.012663  0  3.942033  0
C  C67  1  0.89369199  0.26249989  0.57174026  1  0  0.008514  0  3.703293  0  0  -0.010456  0  3.952844  0  0  -0.00688  0  3.970836  0  0  -0.064596  -0.012833  0  3.942205  0
C  C68  1  0.49712753  0.26159606  0.64479880  1  0  -0.137589  0  3.696112  0  0  -0.157016  0  3.944271  0  0  -0.163927  0  3.965263  0  0  -0.081455  -0.152906  0  3.931321  0
C  C69  1  0.00286959  0.76159356  0.35519809  1  0  -0.137647  0  3.69614  0  0  -0.157002  0  3.94432  0  0  -0.163935  0  3.965292  0  0  -0.081475  -0.152894  0  3.931369  0
C  C70  1  0.50287147  0.73840882  0.35520454  1  0  -0.13757  0  3.696239  0  0  -0.156973  0  3.944424  0  0  -0.163909  0  3.9654  0  0  -0.081497  -0.152862  0  3.931466  0
C  C71  1  0.99712714  0.23840920  0.64479920  1  0  -0.137447  0  3.695981  0  0  -0.156811  0  3.944153  0  0  -0.163761  0  3.965115  0  0  -0.081379  -0.152695  0  3.931198  0
C  C72  1  0.54961050  0.14693489  0.69740863  1  0  0.177023  0  3.759114  0  0  0.17147  0  4.000426  0  0  0.178412  0  4.020896  0  0  0.1227  0.167117  0  3.986696  0
C  C73  1  0.95039212  0.64693809  0.30258850  1  0  0.177053  0  3.75921  0  0  0.171431  0  4.000538  0  0  0.178365  0  4.021018  0  0  0.12267  0.167085  0  3.986802  0
C  C74  1  0.45038730  0.85306468  0.30259402  1  0  0.176916  0  3.759095  0  0  0.171381  0  4.000353  0  0  0.178322  0  4.020829  0  0  0.122694  0.167031  0  3.986618  0
C  C75  1  0.04961064  0.35306679  0.69741090  1  0  0.176894  0  3.759371  0  0  0.171304  0  4.000665  0  0  0.17824  0  4.02115  0  0  0.12261  0.16695  0  3.986942  0
N  N76  1  0.70728943  0.04858269  0.82078879  1  0  -0.341646  0  3.233057  0  0  -0.265591  0  3.476889  0  0  -0.285326  0  3.499393  0  0  -0.29408  -0.253914  0  3.462719  0
N  N77  1  0.79272068  0.54858299  0.17920849  1  0  -0.341703  0  3.233152  0  0  -0.265694  0  3.477029  0  0  -0.285431  0  3.499521  0  0  -0.294214  -0.254015  0  3.46286  0
N  N78  1  0.29271823  0.95141794  0.17920936  1  0  -0.341741  0  3.233176  0  0  -0.265678  0  3.477039  0  0  -0.285411  0  3.499525  0  0  -0.294197  -0.254  0  3.462863  0
N  N79  1  0.20727721  0.45141871  0.82079082  1  0  -0.341582  0  3.232959  0  0  -0.265552  0  3.476879  0  0  -0.285282  0  3.499363  0  0  -0.294132  -0.253876  0  3.46271  0
N  N80  1  0.50289420  0.01301152  0.67691829  1  0  -0.35454  0  3.230048  0  0  -0.279051  0  3.473814  0  0  -0.299019  0  3.496521  0  0  -0.297418  -0.266001  0  3.460484  0
N  N81  1  0.99711109  0.51300827  0.32307957  1  0  -0.35453  0  3.230096  0  0  -0.279034  0  3.473898  0  0  -0.298999  0  3.496592  0  0  -0.297379  -0.265992  0  3.460577  0
N  N82  1  0.49710487  0.98698911  0.32308237  1  0  -0.354407  0  3.230022  0  0  -0.278941  0  3.473802  0  0  -0.298907  0  3.496502  0  0  -0.297392  -0.265898  0  3.460476  0
N  N83  1  0.00289163  0.48698812  0.67692116  1  0  -0.354448  0  3.230102  0  0  -0.278946  0  3.473885  0  0  -0.298909  0  3.496583  0  0  -0.297336  -0.265903  0  3.460565  0
Cl  Cl84  1  0.39777829  0.81215667  0.88366488  1  0  -0.607369  0  0.864936  0  0  -0.535288  0  1.110533  0  0  -0.557145  0  1.095404  0  0  -0.269594  -0.517907  0  1.121421  0
Cl  Cl85  1  0.10222474  0.31214934  0.11633478  1  0  -0.607359  0  0.865044  0  0  -0.535267  0  1.110646  0  0  -0.557127  0  1.095515  0  0  -0.269576  -0.51788  0  1.121535  0
Cl  Cl86  1  0.60222566  0.18784715  0.11633521  1  0  -0.607389  0  0.865008  0  0  -0.535293  0  1.110609  0  0  -0.557151  0  1.095476  0  0  -0.269591  -0.517905  0  1.121492  0
Cl  Cl87  1  0.89777802  0.68785023  0.88366462  1  0  -0.607361  0  0.865011  0  0  -0.535266  0  1.11061  0  0  -0.557126  0  1.095484  0  0  -0.269573  -0.517881  0  1.121503  0
Cl  Cl88  1  0.92395145  0.87605443  0.64131506  1  0  -0.635633  0  0.814889  0  0  -0.565732  0  1.057519  0  0  -0.586896  0  1.042189  0  0  -0.292817  -0.546932  0  1.0663  0
Cl  Cl89  1  0.57605672  0.37605131  0.35868549  1  0  -0.635682  0  0.814798  0  0  -0.5658  0  1.057428  0  0  -0.586956  0  1.042077  0  0  -0.292871  -0.546997  0  1.066209  0
Cl  Cl90  1  0.07605616  0.12394621  0.35868509  1  0  -0.635656  0  0.814822  0  0  -0.565773  0  1.057458  0  0  -0.586931  0  1.042111  0  0  -0.292855  -0.546971  0  1.066237  0
Cl  Cl91  1  0.42394853  0.62394827  0.64131195  1  0  -0.635653  0  0.814826  0  0  -0.565777  0  1.057468  0  0  -0.586934  0  1.042123  0  0  -0.292848  -0.546975  0  1.066245  0
