# generated using pymatgen
data_Zn4H24C42S3O19
_symmetry_space_group_name_H-M   'P 1'
_cell_length_a   24.68955503
_cell_length_b   25.09362702
_cell_length_c   25.15997305
_cell_angle_alpha   60.96458455
_cell_angle_beta   60.69998578
_cell_angle_gamma   60.42456594
_symmetry_Int_Tables_number   1
_chemical_formula_structural   Zn4H24C42S3O19
_chemical_formula_sum   'Zn8 H48 C84 S6 O38'
_cell_volume   11195.04987566
_cell_formula_units_Z   2
loop_
 _symmetry_equiv_pos_site_id
 _symmetry_equiv_pos_as_xyz
  1  'x, y, z'
loop_
 _atom_site_type_symbol
 _atom_site_label
 _atom_site_symmetry_multiplicity
 _atom_site_fract_x
 _atom_site_fract_y
 _atom_site_fract_z
 _atom_site_occupancy
 _atom_site_pbe_bader_charge
 _atom_site_pbe_bader_spin_density
 _atom_site_pbe_cm5_charge
 _atom_site_pbe_ddec_charge
 _atom_site_pbe_ddec_spin_density
 _atom_site_pbe_ddec_sum_bond_order
 _atom_site_pbe_magmom
Zn  Zn0  1  0.96202908  0.11311011  0.93869478  1  1.304359  0  0.675239  0.967629  0  2.382535  0
Zn  Zn1  1  0.95949218  0.98655386  0.93643453  1  1.330056  0  0.676401  0.971942  0  2.355501  0
Zn  Zn2  1  0.96181467  0.98644199  0.06271484  1  1.309338  0  0.674388  0.96421  0  2.387871  0
Zn  Zn3  1  0.08978243  0.98598686  0.93677954  1  1.31095  0  0.672835  0.962984  0  2.372751  0
Zn  Zn4  1  0.52294009  0.42153709  0.49923158  1  1.316031  0  0.674519  0.969355  0  2.351707  0
Zn  Zn5  1  0.52484283  0.55088404  0.49747497  1  1.318973  0  0.675352  0.970963  0  2.347834  0
Zn  Zn6  1  0.39546518  0.54796886  0.49967798  1  1.312591  0  0.671859  0.954919  0  2.428722  0
Zn  Zn7  1  0.51909281  0.54905453  0.37279753  1  1.323591  0  0.675298  0.966283  0  2.371767  0
H  H8  1  0.79718597  0.07942709  0.87762523  1  0.090951  0  0.112511  0.117549  0  0.986671  0
H  H9  1  0.68766541  0.14786906  0.85969979  1  0.114475  0  0.115025  0.123253  0  0.985305  0
H  H10  1  0.71796615  0.31867503  0.82475900  1  0.073958  0  0.114484  0.120294  0  0.981509  0
H  H11  1  0.82643853  0.24990620  0.84418555  1  0.094906  0  0.112685  0.118052  0  0.985444  0
H  H12  1  0.62573347  0.23343994  0.75160665  1  0.112931  0  0.114439  0.119838  0  0.981995  0
H  H13  1  0.60950293  0.29067873  0.64396391  1  0.105987  0  0.112927  0.11841  0  0.985258  0
H  H14  1  0.59321154  0.46904605  0.64466739  1  0.109223  0  0.112135  0.117355  0  0.987517  0
H  H15  1  0.60834769  0.41223502  0.75323580  1  0.097057  0  0.114953  0.12409  0  0.98521  0
H  H16  1  0.90715421  0.07520364  0.19177517  1  0.084839  0  0.111947  0.116754  0  0.988601  0
H  H17  1  0.88970311  0.14019758  0.25310828  1  0.132296  0  0.11546  0.124408  0  0.985247  0
H  H18  1  0.85378913  0.31434525  0.09409462  1  0.061552  0  0.114865  0.120994  0  0.981562  0
H  H19  1  0.87215776  0.24908186  0.03290213  1  0.097666  0  0.112915  0.118427  0  0.985846  0
H  H20  1  0.77568580  0.22760341  0.33624883  1  0.098332  0  0.114573  0.11942  0  0.981846  0
H  H21  1  0.66555707  0.28823459  0.39960338  1  0.092726  0  0.113085  0.118604  0  0.984779  0
H  H22  1  0.67604915  0.46624592  0.24439535  1  0.123535  0  0.113156  0.118554  0  0.986932  0
H  H23  1  0.78746041  0.40603075  0.18105733  1  0.132628  0  0.11512  0.12423  0  0.985741  0
H  H24  1  0.21510199  0.07459973  0.76800870  1  0.111476  0  0.112981  0.118087  0  0.986737  0
H  H25  1  0.26965501  0.14195694  0.65901768  1  0.12828  0  0.115065  0.123763  0  0.985678  0
H  H26  1  0.10977349  0.31439518  0.69521658  1  0.094364  0  0.114525  0.120426  0  0.981141  0
H  H27  1  0.05539666  0.24671574  0.80349379  1  0.128132  0  0.113339  0.118899  0  0.986491  0
H  H28  1  0.35422547  0.22824353  0.60146748  1  0.095681  0  0.114136  0.118828  0  0.980636  0
H  H29  1  0.42280890  0.28686186  0.58318203  1  0.097864  0  0.11321  0.118167  0  0.983417  0
H  H30  1  0.26239232  0.46665972  0.55801846  1  0.112549  0  0.112738  0.118586  0  0.986888  0
H  H31  1  0.19334607  0.40833220  0.57575519  1  0.109036  0  0.114853  0.124258  0  0.987907  0
H  H32  1  0.80256239  0.92871575  0.19103312  1  0.105295  0  0.112983  0.118661  0  0.987329  0
H  H33  1  0.69319413  0.91089917  0.25241094  1  0.07085  0  0.115024  0.123565  0  0.98585  0
H  H34  1  0.71089677  0.87469772  0.09281476  1  0.089015  0  0.114765  0.120573  0  0.979838  0
H  H35  1  0.81968040  0.89320939  0.03166196  1  0.109022  0  0.112436  0.1171  0  0.986615  0
H  H36  1  0.63743082  0.79770927  0.33468422  1  0.09076  0  0.114304  0.118934  0  0.981105  0
H  H37  1  0.62090778  0.69015565  0.39861856  1  0.098304  0  0.113216  0.118296  0  0.984467  0
H  H38  1  0.57952590  0.70070250  0.24579005  1  0.088259  0  0.112107  0.117454  0  0.98966  0
H  H39  1  0.59478092  0.80940694  0.18167727  1  0.147857  0  0.115283  0.124712  0  0.985395  0
H  H40  1  0.21521456  0.82346523  0.88257773  1  0.087406  0  0.112675  0.118379  0  0.988005  0
H  H41  1  0.27458162  0.71604241  0.86335971  1  0.128489  0  0.115183  0.123697  0  0.984023  0
H  H42  1  0.11130325  0.74511374  0.82017473  1  0.086688  0  0.11457  0.120188  0  0.980947  0
H  H43  1  0.05217650  0.85187676  0.84015460  1  0.107368  0  0.113023  0.118489  0  0.984768  0
H  H44  1  0.36131665  0.65301687  0.75325721  1  0.081469  0  0.114492  0.119471  0  0.982321  0
H  H45  1  0.42761068  0.63512923  0.64600440  1  0.072697  0  0.112444  0.117418  0  0.985873  0
H  H46  1  0.26349000  0.61567712  0.64714185  1  0.092522  0  0.112671  0.11851  0  0.989181  0
H  H47  1  0.19667484  0.63343723  0.75468947  1  0.118133  0  0.115373  0.124634  0  0.984945  0
H  H48  1  0.21632140  0.93542811  0.03150408  1  0.126332  0  0.113197  0.119048  0  0.986402  0
H  H49  1  0.27007879  0.91975449  0.10339374  1  0.109391  0  0.115503  0.124082  0  0.986227  0
H  H50  1  0.10521715  0.87535845  0.26925815  1  0.098395  0  0.114378  0.12042  0  0.981533  0
H  H51  1  0.05185046  0.89130863  0.19710036  1  0.096087  0  0.112696  0.118355  0  0.985926  0
H  H52  1  0.35134267  0.80754259  0.18706916  1  0.082959  0  0.114373  0.119348  0  0.981503  0
H  H53  1  0.41846199  0.69775128  0.24203405  1  0.107848  0  0.112701  0.11739  0  0.986402  0
H  H54  1  0.25881931  0.69783558  0.42134739  1  0.126555  0  0.11282  0.118609  0  0.988067  0
H  H55  1  0.19091052  0.80784517  0.36644811  1  0.123914  0  0.115074  0.124513  0  0.986962  0
C  C56  1  0.87790625  0.11941881  0.88199103  1  1.538474  0  0.230628  0.606124  0  4.163918  0
C  C57  1  0.81775592  0.16084353  0.86207997  1  -0.033324  0  -0.01078  -0.030933  0  3.955451  0
C  C58  1  0.77987908  0.13185713  0.86490127  1  -0.085725  0  -0.073235  -0.077152  0  3.942239  0
C  C59  1  0.71947595  0.16972734  0.85441094  1  0.065289  0  -0.075996  -0.089053  0  3.975316  0
C  C60  1  0.69791415  0.23662883  0.84044687  1  -0.215045  0  -0.013725  -0.063076  0  3.961961  0
C  C61  1  0.73642587  0.26652733  0.83481967  1  0.015979  0  -0.076142  -0.087226  0  3.979812  0
C  C62  1  0.79642497  0.22831198  0.84590974  1  0.034532  0  -0.073101  -0.077566  0  3.943911  0
C  C63  1  0.61834247  0.32004609  0.75749123  1  -0.184538  0  -0.013972  -0.063561  0  3.964341  0
C  C64  1  0.62012015  0.28460998  0.72723556  1  -0.007088  0  -0.075657  -0.087633  0  3.979756  0
C  C65  1  0.61079977  0.31648004  0.66759841  1  -0.003272  0  -0.0733  -0.077845  0  3.946282  0
C  C66  1  0.60009280  0.38316321  0.63845875  1  -0.014181  0  -0.01051  -0.030375  0  3.95357  0
C  C67  1  0.60156700  0.41732682  0.66802864  1  -0.031651  0  -0.073253  -0.077343  0  3.942708  0
C  C68  1  0.61043792  0.38589106  0.72792695  1  -0.033111  0  -0.076641  -0.089833  0  3.977505  0
C  C69  1  0.58086416  0.41934465  0.57900732  1  1.558046  0  0.230279  0.606607  0  4.160226  0
C  C70  1  0.91044174  0.11859854  0.06935137  1  1.561298  0  0.229909  0.605239  0  4.164348  0
C  C71  1  0.89101497  0.15843308  0.10881560  1  -0.047781  0  -0.011069  -0.032096  0  3.954648  0
C  C72  1  0.89427879  0.12762538  0.17143476  1  0.034681  0  -0.073195  -0.075612  0  3.94385  0
C  C73  1  0.88408198  0.16355906  0.20572304  1  -0.040248  0  -0.076054  -0.089843  0  3.97814  0
C  C74  1  0.87020275  0.23041554  0.17694086  1  -0.154352  0  -0.013914  -0.062989  0  3.96567  0
C  C75  1  0.86395476  0.26224853  0.11563257  1  -0.008372  0  -0.076144  -0.089025  0  3.981637  0
C  C76  1  0.87451140  0.22594575  0.08157829  1  -0.025281  0  -0.072523  -0.07622  0  3.943086  0
C  C77  1  0.78668734  0.31395446  0.25516282  1  -0.188098  0  -0.01408  -0.063821  0  3.966473  0
C  C78  1  0.75295528  0.27956190  0.31592432  1  0.020464  0  -0.075739  -0.087044  0  3.982129  0
C  C79  1  0.69192370  0.31325599  0.35120836  1  -0.032442  0  -0.072955  -0.078683  0  3.947788  0
C  C80  1  0.66490306  0.38062554  0.32554486  1  -0.0671  0  -0.010794  -0.03073  0  3.959859  0
C  C81  1  0.69792004  0.41394721  0.26339469  1  0.019046  0  -0.073273  -0.077251  0  3.945408  0
C  C82  1  0.75932307  0.38068513  0.22802830  1  -0.071569  0  -0.076444  -0.089497  0  3.977867  0
C  C83  1  0.60394997  0.41813456  0.36632863  1  1.597882  0  0.231593  0.607836  0  4.163314  0
C  C84  1  0.09533281  0.11612706  0.85185421  1  1.563861  0  0.23  0.60495  0  4.162789  0
C  C85  1  0.13209734  0.15689474  0.79153111  1  -0.007894  0  -0.010312  -0.030868  0  3.957785  0
C  C86  1  0.19322605  0.12712707  0.75200555  1  0.01533  0  -0.073019  -0.07558  0  3.945847  0
C  C87  1  0.22377349  0.16434140  0.69182863  1  -0.033922  0  -0.076741  -0.090743  0  3.980248  0
C  C88  1  0.19274588  0.23136864  0.67204325  1  -0.1848  0  -0.014729  -0.064792  0  3.966046  0
C  C89  1  0.13315554  0.26208423  0.71210194  1  -0.00343  0  -0.075853  -0.08826  0  3.979476  0
C  C90  1  0.10286424  0.22450539  0.77203605  1  -0.093007  0  -0.072757  -0.076464  0  3.943463  0
C  C91  1  0.27009787  0.31550817  0.58999431  1  -0.141721  0  -0.014131  -0.064218  0  3.965994  0
C  C92  1  0.33402092  0.28016854  0.59326438  1  -0.078669  0  -0.075896  -0.087561  0  3.978341  0
C  C93  1  0.37222892  0.31278539  0.58277051  1  0.00416  0  -0.072049  -0.076879  0  3.942604  0
C  C94  1  0.34646496  0.38013287  0.56921745  1  0.007251  0  -0.010657  -0.030644  0  3.953421  0
C  C95  1  0.28143865  0.41442230  0.56858398  1  -0.078384  0  -0.072989  -0.075626  0  3.94235  0
C  C96  1  0.24296860  0.38222233  0.57884550  1  0.025695  0  -0.077129  -0.090989  0  3.982544  0
C  C97  1  0.38901189  0.41702829  0.55049591  1  1.540687  0  0.230717  0.606153  0  4.165233  0
C  C98  1  0.87706377  0.93202559  0.06875791  1  1.546204  0  0.230694  0.605975  0  4.162432  0
C  C99  1  0.81698333  0.91232957  0.10786020  1  0.080285  0  -0.01126  -0.032104  0  3.955938  0
C  C100  1  0.78257329  0.91566795  0.17060545  1  -0.052923  0  -0.073197  -0.076176  0  3.944047  0
C  C101  1  0.72227907  0.90526554  0.20492497  1  -0.011001  0  -0.076989  -0.090578  0  3.981854  0
C  C102  1  0.69710412  0.89111755  0.17602947  1  -0.174352  0  -0.013884  -0.063422  0  3.96566  0
C  C103  1  0.73208905  0.88497738  0.11450766  1  -0.004161  0  -0.075933  -0.088514  0  3.977793  0
C  C104  1  0.79225781  0.89566488  0.08042657  1  -0.059212  0  -0.072638  -0.076083  0  3.944236  0
C  C105  1  0.61736126  0.80865451  0.25465410  1  -0.152073  0  -0.014009  -0.06489  0  3.964936  0
C  C106  1  0.62620528  0.77555689  0.31492591  1  -0.029488  0  -0.076196  -0.087291  0  3.980786  0
C  C107  1  0.61669918  0.71593225  0.35061172  1  -0.031486  0  -0.072948  -0.078352  0  3.945032  0
C  C108  1  0.59880582  0.68968057  0.32589349  1  -0.05575  0  -0.010509  -0.029636  0  3.953836  0
C  C109  1  0.59336237  0.72197035  0.26410425  1  0.012004  0  -0.073518  -0.077326  0  3.944785  0
C  C110  1  0.60229898  0.78187519  0.22828401  1  -0.027628  0  -0.076826  -0.08942  0  3.977822  0
C  C111  1  0.57924038  0.63048843  0.36703566  1  1.566438  0  0.229531  0.604699  0  4.164655  0
C  C112  1  0.09166152  0.90201947  0.88398504  1  1.566468  0  0.231555  0.607759  0  4.158606  0
C  C113  1  0.13022082  0.84327214  0.86303461  1  -0.053283  0  -0.010352  -0.031581  0  3.957479  0
C  C114  1  0.19361411  0.80628856  0.86777679  1  0.012046  0  -0.073543  -0.077267  0  3.946304  0
C  C115  1  0.22681195  0.74706354  0.85663665  1  -0.017298  0  -0.076983  -0.08932  0  3.979062  0
C  C116  1  0.19618391  0.72558224  0.84031952  1  -0.133622  0  -0.013942  -0.064273  0  3.965152  0
C  C117  1  0.13432300  0.76332290  0.83234097  1  -0.022352  0  -0.075633  -0.08685  0  3.978698  0
C  C118  1  0.10134218  0.82239206  0.84381491  1  -0.056556  0  -0.072596  -0.077299  0  3.943413  0
C  C119  1  0.27538738  0.64475223  0.75892270  1  -0.207953  0  -0.013452  -0.063751  0  3.965342  0
C  C120  1  0.33975692  0.64642596  0.72896048  1  -0.007425  0  -0.076259  -0.087249  0  3.97776  0
C  C121  1  0.37670941  0.63605159  0.66961349  1  0.045069  0  -0.072852  -0.077775  0  3.944053  0
C  C122  1  0.34931637  0.62397753  0.64083270  1  -0.02247  0  -0.0104  -0.031728  0  3.954402  0
C  C123  1  0.28379058  0.62520049  0.67027149  1  -0.050625  0  -0.073292  -0.075077  0  3.944247  0
C  C124  1  0.24654703  0.63546834  0.72957834  1  0.025679  0  -0.077336  -0.091038  0  3.980019  0
C  C125  1  0.39072783  0.60418240  0.58164997  1  1.562474  0  0.229873  0.605314  0  4.167368  0
C  C126  1  0.09532410  0.93221325  0.06730749  1  1.562332  0  0.229218  0.604878  0  4.16023  0
C  C127  1  0.13114706  0.91435317  0.11036707  1  -0.025477  0  -0.010655  -0.031561  0  3.957954  0
C  C128  1  0.19322671  0.92103859  0.08360646  1  -0.026503  0  -0.072493  -0.075645  0  3.944419  0
C  C129  1  0.22325711  0.91197039  0.12332033  1  0.025688  0  -0.076479  -0.091146  0  3.979262  0
C  C130  1  0.19071811  0.89598183  0.18975004  1  -0.236876  0  -0.013707  -0.062454  0  3.964902  0
C  C131  1  0.12983566  0.88690016  0.21738102  1  -0.00032  0  -0.075841  -0.088662  0  3.980598  0
C  C132  1  0.10014488  0.89609900  0.17734608  1  -0.016344  0  -0.073473  -0.077653  0  3.943588  0
C  C133  1  0.26756631  0.81283167  0.27420801  1  -0.154215  0  -0.013275  -0.061114  0  3.963136  0
C  C134  1  0.33089932  0.78255368  0.23795553  1  -0.017577  0  -0.075924  -0.089452  0  3.979374  0
C  C135  1  0.36829859  0.72176323  0.26854578  1  -0.016551  0  -0.072977  -0.07674  0  3.944318  0
C  C136  1  0.34247239  0.69189877  0.33488430  1  -0.049781  0  -0.010827  -0.032661  0  3.958374  0
C  C137  1  0.27791171  0.72180775  0.36990992  1  -0.030193  0  -0.073212  -0.074473  0  3.943999  0
C  C138  1  0.24011438  0.78249324  0.33964283  1  -0.029313  0  -0.076908  -0.091649  0  3.980332  0
C  C139  1  0.38503532  0.63124875  0.37027516  1  1.571112  0  0.22916  0.603282  0  4.165482  0
S  S140  1  0.61518080  0.28337923  0.83973217  1  2.497337  0  0.46761  0.947349  0  5.777698  0
S  S141  1  0.87070818  0.27411306  0.21546760  1  2.510643  0  0.466866  0.946717  0  5.781372  0
S  S142  1  0.22516451  0.27715017  0.59028672  1  2.502711  0  0.466704  0.949317  0  5.781489  0
S  S143  1  0.61405670  0.89119018  0.21481646  1  2.504492  0  0.467288  0.948131  0  5.778778  0
S  S144  1  0.23226330  0.64369815  0.84065575  1  2.499423  0  0.466621  0.946989  0  5.782145  0
S  S145  1  0.22386595  0.89565784  0.23912983  1  2.503655  0  0.466775  0.946653  0  5.78191  0
O  O146  1  0.99280382  0.01819587  0.96829381  1  -1.211459  0  -0.571465  -1.029958  0  2.530092  0
O  O147  1  0.89836128  0.05898025  0.89082921  1  -1.159165  0  -0.314314  -0.547168  0  2.332002  0
O  O148  1  0.90276900  0.14793151  0.89015927  1  -1.174737  0  -0.314562  -0.547983  0  2.342126  0
O  O149  1  0.59286063  0.33538128  0.86371291  1  -1.285279  0  -0.321987  -0.512789  0  2.108572  0
O  O150  1  0.58036790  0.23801577  0.86996386  1  -1.279764  0  -0.32121  -0.510421  0  2.10541  0
O  O151  1  0.57787910  0.47841839  0.55160226  1  -1.181409  0  -0.316045  -0.550008  0  2.336402  0
O  O152  1  0.56707692  0.38858824  0.56164798  1  -1.169871  0  -0.3132  -0.546466  0  2.32888  0
O  O153  1  0.92242870  0.05779442  0.09764598  1  -1.169939  0  -0.313859  -0.548742  0  2.337738  0
O  O154  1  0.91515261  0.14849954  0.01003641  1  -1.167227  0  -0.314433  -0.546329  0  2.331824  0
O  O155  1  0.89783990  0.32433129  0.16481343  1  -1.291869  0  -0.32207  -0.512378  0  2.107534  0
O  O156  1  0.89969983  0.22644555  0.26542150  1  -1.289448  0  -0.321318  -0.510823  0  2.106682  0
O  O157  1  0.57721334  0.47766832  0.33772247  1  -1.181303  0  -0.316047  -0.547608  0  2.341225  0
O  O158  1  0.58480862  0.38810582  0.42652948  1  -1.178312  0  -0.312282  -0.54525  0  2.33252  0
O  O159  1  0.12507035  0.05503211  0.86790332  1  -1.165841  0  -0.312579  -0.543508  0  2.330872  0
O  O160  1  0.03638162  0.14562191  0.88144130  1  -1.179048  0  -0.315545  -0.549802  0  2.334719  0
O  O161  1  0.16922027  0.32812835  0.57057955  1  -1.293684  0  -0.323291  -0.515123  0  2.109098  0
O  O162  1  0.27274903  0.23108591  0.55592173  1  -1.291551  0  -0.322658  -0.512497  0  2.104903  0
O  O163  1  0.36002842  0.47725416  0.54391224  1  -1.164075  0  -0.315559  -0.547911  0  2.357327  0
O  O164  1  0.45062090  0.38622969  0.54102504  1  -1.166483  0  -0.312017  -0.544611  0  2.319152  0
O  O165  1  0.89706590  0.94491227  0.09803298  1  -1.159552  0  -0.31442  -0.5447  0  2.343908  0
O  O166  1  0.90236015  0.93615862  0.00949724  1  -1.176455  0  -0.31382  -0.549306  0  2.325186  0
O  O167  1  0.58669027  0.91717991  0.16429512  1  -1.283737  0  -0.320777  -0.51069  0  2.10878  0
O  O168  1  0.58393822  0.92018070  0.26475457  1  -1.288536  0  -0.321697  -0.511652  0  2.106054  0
O  O169  1  0.56996301  0.60601593  0.33937456  1  -1.177203  0  -0.314839  -0.550736  0  2.346912  0
O  O170  1  0.57138519  0.61050248  0.42694902  1  -1.174438  0  -0.313882  -0.544124  0  2.322248  0
O  O171  1  0.12163268  0.91827437  0.90003102  1  -1.160641  0  -0.312581  -0.54592  0  2.34399  0
O  O172  1  0.03149584  0.93001641  0.88587863  1  -1.176681  0  -0.31492  -0.547694  0  2.323321  0
O  O173  1  0.17812240  0.62120798  0.86426815  1  -1.28549  0  -0.322079  -0.512761  0  2.110176  0
O  O174  1  0.28157546  0.61091883  0.87192695  1  -1.283932  0  -0.321368  -0.511046  0  2.10797  0
O  O175  1  0.36102285  0.59467770  0.55904366  1  -1.176415  0  -0.316298  -0.547618  0  2.360262  0
O  O176  1  0.45197872  0.59660860  0.55956033  1  -1.177618  0  -0.313333  -0.547468  0  2.317005  0
O  O177  1  0.12495104  0.95094293  0.00668876  1  -1.177677  0  -0.312566  -0.543803  0  2.326322  0
O  O178  1  0.03721032  0.92909825  0.09437920  1  -1.174468  0  -0.318282  -0.552201  0  2.332402  0
O  O179  1  0.16845832  0.91775632  0.29124860  1  -1.290836  0  -0.321426  -0.512318  0  2.110148  0
O  O180  1  0.27254339  0.92772769  0.19645893  1  -1.280908  0  -0.319693  -0.507921  0  2.103517  0
O  O181  1  0.35752443  0.60796939  0.43057002  1  -1.179349  0  -0.31501  -0.54691  0  2.359346  0
O  O182  1  0.44562743  0.60858183  0.33833299  1  -1.175225  0  -0.313232  -0.544593  0  2.317652  0
O  O183  1  0.49202871  0.51687286  0.46725603  1  -1.231244  0  -0.569587  -1.027269  0  2.521927  0
