# generated using pymatgen
data_NaH12C10SN3O7
_symmetry_space_group_name_H-M   'P 1'
_cell_length_a   5.17790570
_cell_length_b   9.91739494
_cell_length_c   14.28898633
_cell_angle_alpha   99.92974972
_cell_angle_beta   95.83115676
_cell_angle_gamma   100.37059281
_symmetry_Int_Tables_number   1
_chemical_formula_structural   NaH12C10SN3O7
_chemical_formula_sum   'Na2 H24 C20 S2 N6 O14'
_cell_volume   704.26661480
_cell_formula_units_Z   2
loop_
 _symmetry_equiv_pos_site_id
 _symmetry_equiv_pos_as_xyz
  1  'x, y, z'
loop_
 _atom_site_type_symbol
 _atom_site_label
 _atom_site_symmetry_multiplicity
 _atom_site_fract_x
 _atom_site_fract_y
 _atom_site_fract_z
 _atom_site_occupancy
 _atom_site_hle17_bader_spin_density
 _atom_site_hle17_ddec_charge
 _atom_site_hle17_ddec_spin_density
 _atom_site_hle17_ddec_sum_bond_order
 _atom_site_hle17_magmom
 _atom_site_hse06_10hf_bader_spin_density
 _atom_site_hse06_10hf_ddec_charge
 _atom_site_hse06_10hf_ddec_spin_density
 _atom_site_hse06_10hf_ddec_sum_bond_order
 _atom_site_hse06_10hf_magmom
 _atom_site_hse06_bader_spin_density
 _atom_site_hse06_ddec_charge
 _atom_site_hse06_ddec_spin_density
 _atom_site_hse06_ddec_sum_bond_order
 _atom_site_hse06_magmom
 _atom_site_pbe_bader_spin_density
 _atom_site_pbe_cm5_charge
 _atom_site_pbe_ddec_charge
 _atom_site_pbe_ddec_spin_density
 _atom_site_pbe_ddec_sum_bond_order
 _atom_site_pbe_magmom
Na  Na0  1  0.42861317  0.96311731  0.61653646  1  0  0.916283  0  0.355086  0  0  0.87873  0  0.499579  0  0  0.888151  0  0.47849  0  0  0.667983  0.871689  0  0.514871  0
Na  Na1  1  0.57137228  0.03687583  0.38346475  1  0  0.916267  0  0.355093  0  0  0.878719  0  0.499574  0  0  0.888145  0  0.478482  0  0  0.667995  0.871678  0  0.514869  0
H  H2  1  0.61833656  0.38663747  0.60717620  1  0  0.114817  0  0.939917  0  0  0.125219  0  0.996356  0  0  0.128871  0  0.993572  0  0  0.115316  0.122524  0  0.998487  0
H  H3  1  0.38164301  0.61334424  0.39282571  1  0  0.114789  0  0.939946  0  0  0.125186  0  0.996401  0  0  0.128796  0  0.993672  0  0  0.115302  0.122517  0  0.998495  0
H  H4  1  0.50098626  0.56006142  0.73409239  1  0  0.099079  0  0.949685  0  0  0.108914  0  1.011665  0  0  0.111993  0  1.010488  0  0  0.105569  0.10675  0  1.012483  0
H  H5  1  0.49901229  0.43993588  0.26590553  1  0  0.099064  0  0.949727  0  0  0.108905  0  1.011699  0  0  0.111986  0  1.010519  0  0  0.105578  0.106743  0  1.012518  0
H  H6  1  0.73971718  0.60333975  0.90112851  1  0  0.08578  0  0.969944  0  0  0.090893  0  1.040882  0  0  0.093028  0  1.039952  0  0  0.097307  0.089438  0  1.041375  0
H  H7  1  0.26030762  0.39667742  0.09886685  1  0  0.085829  0  0.96984  0  0  0.090975  0  1.040732  0  0  0.09311  0  1.039803  0  0  0.09737  0.089521  0  1.041226  0
H  H8  1  0.08496266  0.46852745  0.93868348  1  0  0.100383  0  0.980684  0  0  0.107271  0  1.049842  0  0  0.10993  0  1.0489  0  0  0.103818  0.105348  0  1.050686  0
H  H9  1  0.91506180  0.53148874  0.06131387  1  0  0.100394  0  0.980573  0  0  0.107262  0  1.049759  0  0  0.10992  0  1.048818  0  0  0.103826  0.105338  0  1.050604  0
H  H10  1  0.05822054  0.92593082  0.89957181  1  0  0.099476  0  0.971293  0  0  0.111566  0  1.042747  0  0  0.112296  0  1.042472  0  0  0.100771  0.110857  0  1.043229  0
H  H11  1  0.94176896  0.07406838  0.10042388  1  0  0.099429  0  0.971246  0  0  0.111558  0  1.042691  0  0  0.112293  0  1.042405  0  0  0.100739  0.11085  0  1.043175  0
H  H12  1  0.99830241  0.00361017  0.79587414  1  0  0.101782  0  0.957828  0  0  0.113124  0  1.031174  0  0  0.114463  0  1.030029  0  0  0.108633  0.111863  0  1.032314  0
H  H13  1  0.00169327  0.99639010  0.20412048  1  0  0.101795  0  0.957825  0  0  0.113147  0  1.031169  0  0  0.114486  0  1.030024  0  0  0.108675  0.111883  0  1.032311  0
H  H14  1  0.75618133  0.86412341  0.81727090  1  0  0.102021  0  0.949727  0  0  0.121493  0  1.010231  0  0  0.121642  0  1.010652  0  0  0.108818  0.121248  0  1.009907  0
H  H15  1  0.24380605  0.13588095  0.18272454  1  0  0.101974  0  0.949773  0  0  0.121417  0  1.010314  0  0  0.121564  0  1.010736  0  0  0.108841  0.121178  0  1.009991  0
H  H16  1  0.28272424  0.20363897  0.76492194  1  0  0.291988  0  0.941504  0  0  0.267442  0  1.01168  0  0  0.276917  0  1.004151  0  0  0.32206  0.260768  0  1.017048  0
H  H17  1  0.71728040  0.79636479  0.23508109  1  0  0.291984  0  0.941423  0  0  0.267475  0  1.011603  0  0  0.276959  0  1.004068  0  0  0.322043  0.26079  0  1.016962  0
H  H18  1  0.99387738  0.75128782  0.66578029  1  0  0.429715  0  0.86655  0  0  0.402963  0  0.923472  0  0  0.412512  0  0.909538  0  0  0.28939  0.396169  0  0.933384  0
H  H19  1  0.00612368  0.24870558  0.33422363  1  0  0.429736  0  0.86649  0  0  0.402995  0  0.923395  0  0  0.412543  0  0.909462  0  0  0.289416  0.396203  0  0.933304  0
H  H20  1  0.21959620  0.75865848  0.75138069  1  0  0.407635  0  0.895038  0  0  0.377086  0  0.959967  0  0  0.385954  0  0.94686  0  0  0.28673  0.370868  0  0.969162  0
H  H21  1  0.78040594  0.24133805  0.24862359  1  0  0.407616  0  0.89508  0  0  0.37707  0  0.96  0  0  0.385937  0  0.946895  0  0  0.286722  0.370852  0  0.969194  0
H  H22  1  0.70419192  0.73788671  0.55073823  1  0  0.432436  0  0.865228  0  0  0.404005  0  0.924025  0  0  0.414089  0  0.9092  0  0  0.298189  0.396855  0  0.934536  0
H  H23  1  0.29581159  0.26210250  0.44926394  1  0  0.432425  0  0.865245  0  0  0.403983  0  0.924059  0  0  0.414068  0  0.909232  0  0  0.298197  0.396834  0  0.934569  0
H  H24  1  0.48863504  0.72235760  0.62362037  1  0  0.422876  0  0.866205  0  0  0.397804  0  0.921198  0  0  0.407206  0  0.907108  0  0  0.29519  0.391095  0  0.931256  0
H  H25  1  0.51136601  0.27763571  0.37638144  1  0  0.422916  0  0.866152  0  0  0.397844  0  0.92114  0  0  0.407245  0  0.907051  0  0  0.29522  0.391136  0  0.931198  0
C  C26  1  0.91320692  0.32872102  0.70091463  1  0  -0.192063  0  3.66391  0  0  -0.170063  0  3.914106  0  0  -0.178821  0  3.934734  0  0  -0.012184  -0.164302  0  3.90001  0
C  C27  1  0.08678899  0.67127429  0.29908649  1  0  -0.192064  0  3.663718  0  0  -0.170133  0  3.913998  0  0  -0.178884  0  3.934607  0  0  -0.01226  -0.164374  0  3.899913  0
C  C28  1  0.72118006  0.40591208  0.67998843  1  0  -0.033984  0  3.718496  0  0  -0.061829  0  3.972251  0  0  -0.059107  0  3.989616  0  0  -0.075473  -0.063528  0  3.9605  0
C  C29  1  0.27881052  0.59407906  0.32001347  1  0  -0.033916  0  3.718423  0  0  -0.061759  0  3.972212  0  0  -0.059011  0  3.989593  0  0  -0.075346  -0.063478  0  3.96046  0
C  C30  1  0.65510426  0.50313524  0.75135861  1  0  -0.06314  0  3.727018  0  0  -0.08346  0  3.98889  0  0  -0.087641  0  4.010444  0  0  -0.088582  -0.080376  0  3.97399  0
C  C31  1  0.34489818  0.49686210  0.24863946  1  0  -0.063111  0  3.727031  0  0  -0.083421  0  3.988899  0  0  -0.087596  0  4.010439  0  0  -0.088632  -0.08034  0  3.974013  0
C  C32  1  0.78654195  0.52615977  0.84486750  1  0  -0.040265  0  3.766427  0  0  -0.056015  0  4.024172  0  0  -0.055625  0  4.046548  0  0  -0.089504  -0.056294  0  4.009042  0
C  C33  1  0.21347151  0.47384701  0.15513057  1  0  -0.0403  0  3.766345  0  0  -0.056082  0  4.024107  0  0  -0.055694  0  4.046486  0  0  -0.089545  -0.05636  0  4.008979  0
C  C34  1  0.97808292  0.45083340  0.86678659  1  0  -0.157093  0  3.75011  0  0  -0.181764  0  4.011362  0  0  -0.188996  0  4.03557  0  0  -0.098007  -0.17719  0  3.995471  0
C  C35  1  0.02193393  0.54917761  0.13321274  1  0  -0.1572  0  3.749902  0  0  -0.181845  0  4.011163  0  0  -0.189079  0  4.035374  0  0  -0.098033  -0.177268  0  3.995271  0
C  C36  1  0.04184900  0.35057616  0.79583062  1  0  0.194439  0  3.772098  0  0  0.17601  0  4.025675  0  0  0.18303  0  4.04978  0  0  0.098616  0.171529  0  4.009194  0
C  C37  1  0.95815986  0.64942857  0.20416916  1  0  0.194503  0  3.771964  0  0  0.176147  0  4.025552  0  0  0.183175  0  4.049648  0  0  0.098624  0.171667  0  4.009073  0
C  C38  1  0.50008225  0.20717343  0.93414928  1  0  -0.08876  0  3.84598  0  0  -0.084035  0  4.118867  0  0  -0.094128  0  4.131282  0  0  0.096124  -0.077817  0  4.110853  0
C  C39  1  0.49992199  0.79282917  0.06585011  1  0  -0.08885  0  3.846434  0  0  -0.084066  0  4.119248  0  0  -0.094149  0  4.131649  0  0  0.096104  -0.077847  0  4.111231  0
C  C40  1  0.58136941  0.22617607  0.03411015  1  0  0.297013  0  3.756362  0  0  0.267552  0  4.039041  0  0  0.280963  0  4.054539  0  0  0.200432  0.258465  0  4.028926  0
C  C41  1  0.41863134  0.77382772  0.96589483  1  0  0.296986  0  3.756492  0  0  0.267517  0  4.039159  0  0  0.280929  0  4.054656  0  0  0.200418  0.258426  0  4.02904  0
C  C42  1  0.61156412  0.10968514  0.86801232  1  0  0.566258  0  3.858702  0  0  0.511842  0  4.156593  0  0  0.54526  0  4.149882  0  0  0.234253  0.489319  0  4.160823  0
C  C43  1  0.38843910  0.89032579  0.13198859  1  0  0.566465  0  3.858484  0  0  0.511997  0  4.15643  0  0  0.545411  0  4.149719  0  0  0.234394  0.489475  0  4.16066  0
C  C44  1  0.90973701  0.95529429  0.85158967  1  0  -0.081266  0  3.56368  0  0  -0.183364  0  3.831461  0  0  -0.175581  0  3.834003  0  0  -0.146077  -0.188413  0  3.829804  0
C  C45  1  0.09025587  0.04470909  0.14840587  1  0  -0.081152  0  3.563546  0  0  -0.18328  0  3.831328  0  0  -0.175494  0  3.833868  0  0  -0.146098  -0.188339  0  3.829684  0
S  S46  1  0.98339837  0.21063404  0.60137802  1  0  1.33815  0  5.663265  0  0  1.240406  0  6.189725  0  0  1.288677  0  6.163995  0  0  0.525278  1.207112  0  6.206272  0
S  S47  1  0.01659101  0.78935927  0.39862686  1  0  1.337823  0  5.66339  0  0  1.240107  0  6.189858  0  0  1.288378  0  6.164139  0  0  0.525109  1.206811  0  6.206402  0
N  N48  1  0.23046635  0.27205390  0.82024811  1  0  -0.177124  0  3.47419  0  0  -0.115863  0  3.710267  0  0  -0.133587  0  3.727013  0  0  -0.238493  -0.104343  0  3.698641  0
N  N49  1  0.76954482  0.72795189  0.17975187  1  0  -0.177105  0  3.47408  0  0  -0.115979  0  3.710199  0  0  -0.133721  0  3.726956  0  0  -0.238437  -0.10445  0  3.698582  0
N  N50  1  0.32392910  0.28151123  0.90922662  1  0  -0.062045  0  3.111898  0  0  -0.05973  0  3.386689  0  0  -0.047135  0  3.395522  0  0  -0.152729  -0.066922  0  3.380014  0
N  N51  1  0.67607500  0.71849661  0.09077470  1  0  -0.062066  0  3.11205  0  0  -0.059726  0  3.38688  0  0  -0.047131  0  3.395711  0  0  -0.152776  -0.066917  0  3.380199  0
N  N52  1  0.64869289  0.24003349  0.11637427  1  0  -0.402424  0  2.664069  0  0  -0.36363  0  2.895159  0  0  -0.375254  0  2.905653  0  0  -0.284705  -0.355913  0  2.888356  0
N  N53  1  0.35131206  0.75997115  0.88362396  1  0  -0.402379  0  2.663905  0  0  -0.363586  0  2.895009  0  0  -0.375214  0  2.905508  0  0  -0.284661  -0.355866  0  2.888201  0
O  O54  1  0.14125742  0.11990366  0.64222682  1  0  -0.718356  0  2.004713  0  0  -0.674677  0  2.271067  0  0  -0.692836  0  2.252389  0  0  -0.392183  -0.66167  0  2.283361  0
O  O55  1  0.85871898  0.88008012  0.35777588  1  0  -0.718259  0  2.004906  0  0  -0.674577  0  2.271257  0  0  -0.692739  0  2.252586  0  0  -0.392183  -0.661561  0  2.283537  0
O  O56  1  0.12804723  0.30245205  0.54580398  1  0  -0.652098  0  1.94539  0  0  -0.594659  0  2.172148  0  0  -0.617047  0  2.157983  0  0  -0.324377  -0.578829  0  2.181494  0
O  O57  1  0.87195204  0.69753615  0.45420003  1  0  -0.651893  0  1.945289  0  0  -0.594482  0  2.172051  0  0  -0.616866  0  2.157892  0  0  -0.324248  -0.578655  0  2.181398  0
O  O58  1  0.72452183  0.13204512  0.55045680  1  0  -0.746134  0  1.952957  0  0  -0.704466  0  2.218159  0  0  -0.723411  0  2.199752  0  0  -0.425704  -0.691018  0  2.230385  0
O  O59  1  0.27546507  0.86795225  0.44954630  1  0  -0.746095  0  1.953024  0  0  -0.704412  0  2.218197  0  0  -0.723355  0  2.199791  0  0  -0.425655  -0.690964  0  2.230421  0
O  O60  1  0.54459788  0.08327922  0.78048703  1  0  -0.550634  0  2.023941  0  0  -0.508193  0  2.264027  0  0  -0.527378  0  2.256413  0  0  -0.309064  -0.495046  0  2.269072  0
O  O61  1  0.45540832  0.91673469  0.21950940  1  0  -0.550745  0  2.023948  0  0  -0.508246  0  2.264031  0  0  -0.527432  0  2.256422  0  0  -0.309163  -0.495096  0  2.269069  0
O  O62  1  0.18827887  0.76652208  0.68377137  1  0  -0.873926  0  1.782319  0  0  -0.826219  0  1.936917  0  0  -0.842971  0  1.906775  0  0  -0.626934  -0.814323  0  1.958192  0
O  O63  1  0.81171951  0.23346915  0.31623082  1  0  -0.873906  0  1.782355  0  0  -0.826189  0  1.936919  0  0  -0.84295  0  1.906798  0  0  -0.626926  -0.814288  0  1.958184  0
O  O64  1  0.66715240  0.77038476  0.61665728  1  0  -0.876848  0  1.799016  0  0  -0.827452  0  1.952545  0  0  -0.845808  0  1.922697  0  0  -0.623484  -0.814363  0  1.973416  0
O  O65  1  0.33284864  0.22960853  0.38334382  1  0  -0.876878  0  1.79902  0  0  -0.827493  0  1.952559  0  0  -0.845848  0  1.922709  0  0  -0.623538  -0.814405  0  1.97343  0
O  O66  1  0.79445528  0.05415170  0.91329314  1  0  -0.283989  0  2.319293  0  0  -0.206916  0  2.564528  0  0  -0.22967  0  2.565604  0  0  -0.167009  -0.191572  0  2.563454  0
O  O67  1  0.20554380  0.94585279  0.08670275  1  0  -0.284058  0  2.319225  0  0  -0.207013  0  2.56453  0  0  -0.229768  0  2.565604  0  0  -0.167042  -0.191674  0  2.563467  0
