# generated using pymatgen
data_CdPH10C2NClO5
_symmetry_space_group_name_H-M   'P 1'
_cell_length_a   6.87128560
_cell_length_b   7.12034054
_cell_length_c   16.35538887
_cell_angle_alpha   89.99967087
_cell_angle_beta   100.17744943
_cell_angle_gamma   89.99975018
_symmetry_Int_Tables_number   1
_chemical_formula_structural   CdPH10C2NClO5
_chemical_formula_sum   'Cd4 P4 H40 C8 N4 Cl4 O20'
_cell_volume   787.61101653
_cell_formula_units_Z   4
loop_
 _symmetry_equiv_pos_site_id
 _symmetry_equiv_pos_as_xyz
  1  'x, y, z'
loop_
 _atom_site_type_symbol
 _atom_site_label
 _atom_site_symmetry_multiplicity
 _atom_site_fract_x
 _atom_site_fract_y
 _atom_site_fract_z
 _atom_site_occupancy
 _atom_site_hle17_bader_spin_density
 _atom_site_hle17_ddec_charge
 _atom_site_hle17_ddec_spin_density
 _atom_site_hle17_ddec_sum_bond_order
 _atom_site_hle17_magmom
 _atom_site_hse06_10hf_bader_spin_density
 _atom_site_hse06_10hf_ddec_charge
 _atom_site_hse06_10hf_ddec_spin_density
 _atom_site_hse06_10hf_ddec_sum_bond_order
 _atom_site_hse06_10hf_magmom
 _atom_site_hse06_bader_spin_density
 _atom_site_hse06_ddec_charge
 _atom_site_hse06_ddec_spin_density
 _atom_site_hse06_ddec_sum_bond_order
 _atom_site_hse06_magmom
 _atom_site_pbe_bader_spin_density
 _atom_site_pbe_cm5_charge
 _atom_site_pbe_ddec_charge
 _atom_site_pbe_ddec_spin_density
 _atom_site_pbe_ddec_sum_bond_order
 _atom_site_pbe_magmom
Cd  Cd0  1  0.46759848  0.90590071  0.88539212  1  0  1.259236  0  1.667058  0  0  1.101346  0  2.115834  0  0  1.149951  0  2.060562  0  0  0.710741  1.066715  0  2.153665  0
Cd  Cd1  1  0.96759569  0.59409352  0.38538846  1  0  1.259226  0  1.667036  0  0  1.101343  0  2.115819  0  0  1.149961  0  2.060512  0  0  0.710726  1.066668  0  2.15373  0
Cd  Cd2  1  0.53240689  0.09409621  0.11460596  1  0  1.259305  0  1.667312  0  0  1.101464  0  2.116125  0  0  1.150076  0  2.060817  0  0  0.710809  1.066842  0  2.153968  0
Cd  Cd3  1  0.03242441  0.40590762  0.61460938  1  0  1.259297  0  1.667204  0  0  1.101434  0  2.116021  0  0  1.150053  0  2.060712  0  0  0.710792  1.066808  0  2.15387  0
P  P4  1  0.95494024  0.93931407  0.85667116  1  0  1.464846  0  4.916967  0  0  1.303954  0  5.419078  0  0  1.354281  0  5.38217  0  0  0.320747  1.268995  0  5.443581  0
P  P5  1  0.45493603  0.56068480  0.35666239  1  0  1.464519  0  4.916967  0  0  1.303654  0  5.419106  0  0  1.353978  0  5.382219  0  0  0.320695  1.268698  0  5.443586  0
P  P6  1  0.04505927  0.06073341  0.14332775  1  0  1.463894  0  4.915702  0  0  1.302976  0  5.41782  0  0  1.353324  0  5.380933  0  0  0.320935  1.268013  0  5.442307  0
P  P7  1  0.54507089  0.43928825  0.64333763  1  0  1.464235  0  4.915796  0  0  1.303373  0  5.417872  0  0  1.353707  0  5.380997  0  0  0.320931  1.268414  0  5.442359  0
H  H8  1  0.83944599  0.22906805  0.96525979  1  0  0.29306  0  0.871613  0  0  0.274936  0  0.935211  0  0  0.282209  0  0.930059  0  0  0.299683  0.26963  0  0.939137  0
H  H9  1  0.33946441  0.27093834  0.46525749  1  0  0.293255  0  0.871373  0  0  0.275009  0  0.935098  0  0  0.282279  0  0.929949  0  0  0.299767  0.269704  0  0.939021  0
H  H10  1  0.16052143  0.77093028  0.03474677  1  0  0.293325  0  0.871365  0  0  0.275058  0  0.935121  0  0  0.282332  0  0.929958  0  0  0.299801  0.269754  0  0.939046  0
H  H11  1  0.66053093  0.72905578  0.53474726  1  0  0.293331  0  0.871277  0  0  0.275053  0  0.93503  0  0  0.282321  0  0.929879  0  0  0.299833  0.26975  0  0.938953  0
H  H12  1  0.08128247  0.19431682  0.99235871  1  0  0.310051  0  0.875752  0  0  0.290295  0  0.936522  0  0  0.298788  0  0.930408  0  0  0.308236  0.284193  0  0.941018  0
H  H13  1  0.58130061  0.30568040  0.49235652  1  0  0.309982  0  0.875955  0  0  0.29032  0  0.936542  0  0  0.298815  0  0.930426  0  0  0.308265  0.284214  0  0.941044  0
H  H14  1  0.91871153  0.80568010  0.00764901  1  0  0.310068  0  0.875849  0  0  0.290332  0  0.936525  0  0  0.298825  0  0.930408  0  0  0.308337  0.284229  0  0.941025  0
H  H15  1  0.41871553  0.69432636  0.50765206  1  0  0.31002  0  0.875899  0  0  0.290357  0  0.936482  0  0  0.29885  0  0.930365  0  0  0.308337  0.284251  0  0.940985  0
H  H16  1  0.45018371  0.50184845  0.88394009  1  0  0.404395  0  0.89384  0  0  0.372818  0  0.968187  0  0  0.382694  0  0.953839  0  0  0.267069  0.365802  0  0.978381  0
H  H17  1  0.95018886  0.99814727  0.38393655  1  0  0.404436  0  0.893843  0  0  0.372853  0  0.968157  0  0  0.382728  0  0.95381  0  0  0.267103  0.365836  0  0.978353  0
H  H18  1  0.54980999  0.49814566  0.11606089  1  0  0.404419  0  0.893867  0  0  0.372847  0  0.96816  0  0  0.382722  0  0.953814  0  0  0.26708  0.365832  0  0.978354  0
H  H19  1  0.04981360  0.00185106  0.61606256  1  0  0.404412  0  0.893851  0  0  0.372843  0  0.968156  0  0  0.382717  0  0.95381  0  0  0.267096  0.365828  0  0.97835  0
H  H20  1  0.51743597  0.52008258  0.79689293  1  0  0.433311  0  0.873669  0  0  0.399213  0  0.941203  0  0  0.410501  0  0.925223  0  0  0.2873  0.391303  0  0.952367  0
H  H21  1  0.01743398  0.97991461  0.29688996  1  0  0.433426  0  0.873513  0  0  0.399293  0  0.941105  0  0  0.410583  0  0.92512  0  0  0.287342  0.391385  0  0.952264  0
H  H22  1  0.48256348  0.47990733  0.20310476  1  0  0.43338  0  0.873583  0  0  0.399286  0  0.941116  0  0  0.41058  0  0.925125  0  0  0.28732  0.391376  0  0.952279  0
H  H23  1  0.98257725  0.02008934  0.70310728  1  0  0.433252  0  0.873775  0  0  0.399166  0  0.941296  0  0  0.410458  0  0.925306  0  0  0.287276  0.391257  0  0.952457  0
H  H24  1  0.49752085  0.17288884  0.75284735  1  0  0.429519  0  0.872094  0  0  0.395399  0  0.94089  0  0  0.406568  0  0.924719  0  0  0.286687  0.387517  0  0.952281  0
H  H25  1  0.99751521  0.32711132  0.25284353  1  0  0.429484  0  0.872157  0  0  0.395315  0  0.941003  0  0  0.406486  0  0.924828  0  0  0.286645  0.387436  0  0.952389  0
H  H26  1  0.50248744  0.82710949  0.24715031  1  0  0.429549  0  0.872044  0  0  0.395444  0  0.940807  0  0  0.406615  0  0.924634  0  0  0.286701  0.387561  0  0.952198  0
H  H27  1  0.00248567  0.67288561  0.74715303  1  0  0.429493  0  0.872124  0  0  0.395357  0  0.940917  0  0  0.406525  0  0.92475  0  0  0.286667  0.387475  0  0.952306  0
H  H28  1  0.29385546  0.06626112  0.72268408  1  0  0.420058  0  0.884661  0  0  0.39091  0  0.945561  0  0  0.401928  0  0.929529  0  0  0.283326  0.38308  0  0.956943  0
H  H29  1  0.79384179  0.43373323  0.22267945  1  0  0.420214  0  0.884413  0  0  0.391007  0  0.945395  0  0  0.402019  0  0.929371  0  0  0.283363  0.38318  0  0.956774  0
H  H30  1  0.70615587  0.93373441  0.27731562  1  0  0.420059  0  0.884643  0  0  0.390925  0  0.945526  0  0  0.401943  0  0.929493  0  0  0.283322  0.383096  0  0.956906  0
H  H31  1  0.20615476  0.56626370  0.77731927  1  0  0.419987  0  0.884732  0  0  0.390852  0  0.945616  0  0  0.40187  0  0.929584  0  0  0.283294  0.383022  0  0.956999  0
H  H32  1  0.11283087  0.24079727  0.84353937  1  0  0.124916  0  0.945323  0  0  0.136402  0  1.008779  0  0  0.138629  0  1.007908  0  0  0.11271  0.134714  0  1.009597  0
H  H33  1  0.61284641  0.25920742  0.34353897  1  0  0.124812  0  0.945311  0  0  0.136317  0  1.008755  0  0  0.138546  0  1.007886  0  0  0.112672  0.13463  0  1.009571  0
H  H34  1  0.88714391  0.75921370  0.15646707  1  0  0.124701  0  0.94526  0  0  0.136205  0  1.008735  0  0  0.13844  0  1.00786  0  0  0.112614  0.134508  0  1.009567  0
H  H35  1  0.38716081  0.74078388  0.65646780  1  0  0.124736  0  0.945313  0  0  0.13623  0  1.008806  0  0  0.138462  0  1.007932  0  0  0.112648  0.134539  0  1.009637  0
H  H36  1  0.85093465  0.26378784  0.81989754  1  0  0.15031  0  0.948575  0  0  0.159399  0  1.00852  0  0  0.162664  0  1.007174  0  0  0.118218  0.156937  0  1.009726  0
H  H37  1  0.35094453  0.23620218  0.31989721  1  0  0.15026  0  0.948419  0  0  0.159372  0  1.008367  0  0  0.16265  0  1.007004  0  0  0.118197  0.15691  0  1.009573  0
H  H38  1  0.14906391  0.73621049  0.18011355  1  0  0.150319  0  0.948257  0  0  0.159452  0  1.008188  0  0  0.16273  0  1.006828  0  0  0.118208  0.157033  0  1.009326  0
H  H39  1  0.64907608  0.76379615  0.68011229  1  0  0.150193  0  0.948389  0  0  0.159333  0  1.008315  0  0  0.162608  0  1.006957  0  0  0.118178  0.15692  0  1.009456  0
H  H40  1  0.89600065  0.53914758  0.90977242  1  0  0.099239  0  0.912086  0  0  0.113686  0  0.970251  0  0  0.115581  0  0.968909  0  0  0.119029  0.112197  0  0.971414  0
H  H41  1  0.39601533  0.96085503  0.40977735  1  0  0.099048  0  0.912271  0  0  0.11354  0  0.970463  0  0  0.115436  0  0.969114  0  0  0.119  0.112048  0  0.971627  0
H  H42  1  0.10395886  0.46083951  0.09022199  1  0  0.098999  0  0.912299  0  0  0.113486  0  0.970446  0  0  0.115359  0  0.969128  0  0  0.118975  0.111997  0  0.971609  0
H  H43  1  0.60400047  0.03914751  0.59022326  1  0  0.099153  0  0.912112  0  0  0.113628  0  0.97027  0  0  0.115484  0  0.968975  0  0  0.119  0.112138  0  0.971434  0
H  H44  1  0.15364865  0.49827439  0.94176073  1  0  0.088797  0  0.933417  0  0  0.100146  0  1.000117  0  0  0.101478  0  0.999703  0  0  0.108928  0.099056  0  1.000618  0
H  H45  1  0.65365537  0.00172462  0.44175978  1  0  0.088805  0  0.933304  0  0  0.100122  0  1.000114  0  0  0.101452  0  0.9997  0  0  0.108932  0.099032  0  1.000614  0
H  H46  1  0.84632559  0.50171973  0.05823344  1  0  0.088848  0  0.933435  0  0  0.100107  0  1.000222  0  0  0.101436  0  0.999812  0  0  0.108918  0.099018  0  1.000722  0
H  H47  1  0.34636037  0.99829056  0.55823961  1  0  0.088888  0  0.933514  0  0  0.100207  0  1.000229  0  0  0.101539  0  0.999816  0  0  0.108937  0.099117  0  1.00073  0
C  C48  1  0.97373390  0.19571754  0.86158303  1  0  -0.316836  0  3.536898  0  0  -0.356594  0  3.78863  0  0  -0.361506  0  3.794561  0  0  -0.082647  -0.35313  0  3.784841  0
C  C49  1  0.47374501  0.30427424  0.36158628  1  0  -0.316661  0  3.537023  0  0  -0.356474  0  3.788792  0  0  -0.361404  0  3.794727  0  0  -0.082588  -0.353011  0  3.784997  0
C  C50  1  0.02624651  0.80420214  0.13838403  1  0  -0.316453  0  3.53681  0  0  -0.356356  0  3.78877  0  0  -0.361304  0  3.794769  0  0  -0.082527  -0.352903  0  3.784919  0
C  C51  1  0.52626388  0.69578729  0.63839124  1  0  -0.31658  0  3.53707  0  0  -0.356509  0  3.789073  0  0  -0.361441  0  3.795038  0  0  -0.082614  -0.353072  0  3.785239  0
C  C52  1  0.00690533  0.46892767  0.95616749  1  0  0.014898  0  3.510228  0  0  -0.044723  0  3.76761  0  0  -0.041598  0  3.777481  0  0  -0.058876  -0.04683  0  3.761284  0
C  C53  1  0.50691469  0.03108858  0.45616358  1  0  0.015296  0  3.510143  0  0  -0.044459  0  3.767739  0  0  -0.041327  0  3.777589  0  0  -0.058828  -0.046566  0  3.76141  0
C  C54  1  0.99307029  0.53114790  0.04385796  1  0  0.015316  0  3.51141  0  0  -0.044298  0  3.768799  0  0  -0.041166  0  3.778704  0  0  -0.058639  -0.046398  0  3.762467  0
C  C55  1  0.49309452  0.96886621  0.54385494  1  0  0.015011  0  3.511151  0  0  -0.044637  0  3.768684  0  0  -0.041492  0  3.778569  0  0  -0.05873  -0.046734  0  3.762352  0
N  N56  1  0.97401286  0.26280646  0.94794525  1  0  -0.233595  0  3.362077  0  0  -0.167873  0  3.571435  0  0  -0.180929  0  3.581231  0  0  -0.474967  -0.158923  0  3.56509  0
N  N57  1  0.47403010  0.23719682  0.44794480  1  0  -0.233768  0  3.36238  0  0  -0.167937  0  3.571779  0  0  -0.180986  0  3.581571  0  0  -0.475089  -0.158988  0  3.565433  0
N  N58  1  0.02596291  0.73717642  0.05205025  1  0  -0.233565  0  3.364601  0  0  -0.167756  0  3.573952  0  0  -0.180785  0  3.58375  0  0  -0.475258  -0.158826  0  3.567619  0
N  N59  1  0.52597672  0.76282117  0.55205277  1  0  -0.233449  0  3.363995  0  0  -0.16765  0  3.573325  0  0  -0.180685  0  3.583115  0  0  -0.475177  -0.158715  0  3.566989  0
Cl  Cl60  1  0.49068356  0.24840776  0.95685328  1  0  -0.613114  0  0.944504  0  0  -0.54862  0  1.221751  0  0  -0.567124  0  1.197234  0  0  -0.266804  -0.535196  0  1.238791  0
Cl  Cl61  1  0.99069042  0.25159112  0.45685537  1  0  -0.61315  0  0.94446  0  0  -0.54864  0  1.221692  0  0  -0.567148  0  1.197175  0  0  -0.266828  -0.535209  0  1.238736  0
Cl  Cl62  1  0.50931753  0.75159057  0.04314819  1  0  -0.613211  0  0.944508  0  0  -0.548688  0  1.221737  0  0  -0.567197  0  1.197227  0  0  -0.266829  -0.535264  0  1.238777  0
Cl  Cl63  1  0.00932084  0.74840440  0.54314250  1  0  -0.613232  0  0.94451  0  0  -0.548658  0  1.221666  0  0  -0.567172  0  1.19716  0  0  -0.266825  -0.535228  0  1.238712  0
O  O64  1  0.89895620  0.88873435  0.76436352  1  0  -0.844395  0  1.952322  0  0  -0.753352  0  2.178586  0  0  -0.78043  0  2.160112  0  0  -0.37039  -0.734295  0  2.190954  0
O  O65  1  0.39894298  0.61125474  0.26435768  1  0  -0.844402  0  1.952504  0  0  -0.753388  0  2.178804  0  0  -0.780475  0  2.160328  0  0  -0.370425  -0.734326  0  2.191159  0
O  O66  1  0.10107833  0.11128224  0.23566097  1  0  -0.844374  0  1.952087  0  0  -0.753074  0  2.178155  0  0  -0.780153  0  2.159698  0  0  -0.370466  -0.734017  0  2.190509  0
O  O67  1  0.60107642  0.38872814  0.73565785  1  0  -0.844316  0  1.952413  0  0  -0.753162  0  2.178569  0  0  -0.780236  0  2.160104  0  0  -0.370387  -0.734093  0  2.190917  0
O  O68  1  0.79760975  0.88474220  0.90942113  1  0  -0.884648  0  2.029531  0  0  -0.793559  0  2.308237  0  0  -0.823143  0  2.287633  0  0  -0.393939  -0.772439  0  2.321409  0
O  O69  1  0.29760403  0.61526502  0.40941884  1  0  -0.884483  0  2.029306  0  0  -0.793422  0  2.308  0  0  -0.822994  0  2.287377  0  0  -0.393916  -0.772296  0  2.32116  0
O  O70  1  0.20242591  0.11526455  0.09056185  1  0  -0.88446  0  2.029242  0  0  -0.793334  0  2.307954  0  0  -0.822922  0  2.287365  0  0  -0.394106  -0.772235  0  2.321138  0
O  O71  1  0.70242751  0.38473893  0.59057120  1  0  -0.884587  0  2.02915  0  0  -0.793495  0  2.307834  0  0  -0.823085  0  2.287232  0  0  -0.394155  -0.77239  0  2.321014  0
O  O72  1  0.42712260  0.05169671  0.75792142  1  0  -0.85955  0  1.867675  0  0  -0.79387  0  2.070074  0  0  -0.816445  0  2.035092  0  0  -0.596702  -0.777888  0  2.09437  0
O  O73  1  0.92710300  0.44829243  0.25791819  1  0  -0.859674  0  1.867544  0  0  -0.79392  0  2.070132  0  0  -0.816494  0  2.035153  0  0  -0.596705  -0.777934  0  2.094422  0
O  O74  1  0.57288580  0.94830022  0.24207870  1  0  -0.859579  0  1.867629  0  0  -0.793912  0  2.070005  0  0  -0.81649  0  2.035017  0  0  -0.596694  -0.777931  0  2.094299  0
O  O75  1  0.07289062  0.55170029  0.74208094  1  0  -0.859478  0  1.867765  0  0  -0.79378  0  2.070212  0  0  -0.816354  0  2.035227  0  0  -0.596663  -0.777799  0  2.094507  0
O  O76  1  0.43971371  0.58830814  0.83605857  1  0  -0.842147  0  1.917477  0  0  -0.770631  0  2.111528  0  0  -0.794591  0  2.079084  0  0  -0.572789  -0.753667  0  2.133997  0
O  O77  1  0.93971197  0.91168966  0.33605418  1  0  -0.84227  0  1.917358  0  0  -0.770754  0  2.111403  0  0  -0.794717  0  2.078959  0  0  -0.572869  -0.753784  0  2.133871  0
O  O78  1  0.56027994  0.41168598  0.16394118  1  0  -0.84231  0  1.917549  0  0  -0.770743  0  2.111528  0  0  -0.794705  0  2.079075  0  0  -0.572847  -0.753782  0  2.133998  0
O  O79  1  0.06029488  0.08830305  0.66394400  1  0  -0.842142  0  1.917579  0  0  -0.770635  0  2.111571  0  0  -0.794594  0  2.079124  0  0  -0.572829  -0.753673  0  2.13404  0
O  O80  1  0.15459147  0.86070256  0.89951997  1  0  -0.898538  0  2.033138  0  0  -0.80946  0  2.319683  0  0  -0.839688  0  2.300848  0  0  -0.40569  -0.78795  0  2.331808  0
O  O81  1  0.65459566  0.63929975  0.39951361  1  0  -0.898388  0  2.032943  0  0  -0.809343  0  2.319498  0  0  -0.839576  0  2.300663  0  0  -0.405635  -0.787832  0  2.331619  0
O  O82  1  0.84535447  0.13931403  0.10046742  1  0  -0.898007  0  2.032994  0  0  -0.809102  0  2.319805  0  0  -0.83933  0  2.300962  0  0  -0.405445  -0.787591  0  2.331927  0
O  O83  1  0.34538137  0.36068595  0.60047708  1  0  -0.898228  0  2.03292  0  0  -0.809255  0  2.319623  0  0  -0.839489  0  2.300785  0  0  -0.405514  -0.787743  0  2.331745  0
