# generated using pymatgen
data_CuH10C14N8O3
_symmetry_space_group_name_H-M   'P 1'
_cell_length_a   8.29427221
_cell_length_b   8.87649060
_cell_length_c   12.11669170
_cell_angle_alpha   69.05990786
_cell_angle_beta   70.17451029
_cell_angle_gamma   78.45136603
_symmetry_Int_Tables_number   1
_chemical_formula_structural   CuH10C14N8O3
_chemical_formula_sum   'Cu2 H20 C28 N16 O6'
_cell_volume   780.60656128
_cell_formula_units_Z   2
loop_
 _symmetry_equiv_pos_site_id
 _symmetry_equiv_pos_as_xyz
  1  'x, y, z'
loop_
 _atom_site_type_symbol
 _atom_site_label
 _atom_site_symmetry_multiplicity
 _atom_site_fract_x
 _atom_site_fract_y
 _atom_site_fract_z
 _atom_site_occupancy
 _atom_site_hle17_ddec_charge
 _atom_site_hle17_ddec_spin_density
 _atom_site_hle17_ddec_sum_bond_order
 _atom_site_hle17_magmom
 _atom_site_hse06_10hf_ddec_charge
 _atom_site_hse06_10hf_ddec_spin_density
 _atom_site_hse06_10hf_ddec_sum_bond_order
 _atom_site_hse06_10hf_magmom
 _atom_site_hse06_ddec_charge
 _atom_site_hse06_ddec_spin_density
 _atom_site_hse06_ddec_sum_bond_order
 _atom_site_hse06_magmom
 _atom_site_pbe_cm5_charge
 _atom_site_pbe_ddec_charge
 _atom_site_pbe_ddec_spin_density
 _atom_site_pbe_ddec_sum_bond_order
 _atom_site_pbe_magmom
Cu  Cu0  1  0.23264078  0.77190606  0.16696735  1  0.954293  0.679253  1.862546  0.462  0.968531  0.794006  2.271994  0.605  1.064647  0.886035  2.192773  0.711  0.756521  0.908586  0.725975  2.334736  0.538
Cu  Cu1  1  0.76735259  0.22809498  0.83303526  1  0.954186  -0.679247  1.862645  -0.462  0.968415  -0.794003  2.272093  -0.605  1.064498  -0.886031  2.192844  -0.711  0.756463  0.908486  -0.725978  2.334823  -0.538
H  H2  1  0.18408224  0.44480289  0.23148563  1  0.412722  1.9e-05  0.894969  0.0  0.384972  1e-06  0.955766  0.0  0.396744  -4e-06  0.938516  0.0  0.277557  0.376973  1.2e-05  0.96744  0.0
H  H3  1  0.81592045  0.55519454  0.76851409  1  0.412764  -1.9e-05  0.894917  0.0  0.385018  -1e-06  0.955704  0.0  0.396787  5e-06  0.93846  0.0  0.277565  0.377015  -1.2e-05  0.967383  0.0
H  H4  1  0.24972562  0.45502678  0.33694907  1  0.409208  3.4e-05  0.89964  0.0  0.38274  3.2e-05  0.958712  0.0  0.393931  3.1e-05  0.942486  0.0  0.276813  0.375224  3.5e-05  0.969558  0.0
H  H5  1  0.75027976  0.54496945  0.66305034  1  0.409125  -3.4e-05  0.899732  0.0  0.382717  -3.2e-05  0.95873  0.0  0.39389  -3.1e-05  0.942516  0.0  0.276798  0.375201  -3.5e-05  0.969577  0.0
H  H6  1  0.21328186  0.08925185  0.31093535  1  0.127427  -0.000408  0.952834  0.0  0.133679  -8.6e-05  1.014246  0.0  0.136823  -5.1e-05  1.011722  0.0  0.130183  0.131275  -0.000109  1.016196  0.0
H  H7  1  0.78671489  0.91074073  0.68906456  1  0.127391  0.000407  0.952852  0.0  0.133648  8.6e-05  1.01427  0.0  0.136792  5.1e-05  1.011748  0.0  0.130163  0.131241  0.000109  1.016221  0.0
H  H8  1  0.31028674  0.06308208  0.49234969  1  0.121259  -0.000172  0.956865  0.0  0.128372  -0.000105  1.020068  0.0  0.131259  -5.8e-05  1.019322  0.0  0.110047  0.126219  -0.000149  1.020794  0.0
H  H9  1  0.68971965  0.93691659  0.50764389  1  0.121355  0.000174  0.956916  0.0  0.128434  0.000105  1.02014  0.0  0.131318  5.8e-05  1.019401  0.0  0.110091  0.126282  0.000149  1.020865  0.0
H  H10  1  0.11036997  0.59010383  0.66581042  1  0.132906  -0.00019  0.945651  0.0  0.139302  -7.4e-05  1.006406  0.0  0.142255  -3.9e-05  1.005072  0.0  0.119234  0.136968  -0.000106  1.007709  0.0
H  H11  1  0.88963809  0.40989119  0.33419115  1  0.132844  0.00019  0.945662  0.0  0.139277  7.4e-05  1.006381  0.0  0.142223  3.9e-05  1.005072  0.0  0.119236  0.136947  0.000106  1.007687  0.0
H  H12  1  0.02238581  0.63958540  0.47745526  1  0.128263  -0.000276  0.923855  0.0  0.136643  -0.000117  0.983176  0.0  0.139246  -8.3e-05  0.980829  0.0  0.136997  0.134502  -0.000129  0.985276  0.0
H  H13  1  0.97761365  0.36040596  0.52255010  1  0.12825  0.000275  0.923921  0.0  0.136652  0.000117  0.983229  0.0  0.139245  8.3e-05  0.980893  0.0  0.137  0.134511  0.000129  0.985328  0.0
H  H14  1  0.25376071  0.05299420  0.68891032  1  0.121527  -0.00047  0.964886  0.0  0.127004  -0.000356  1.030032  0.0  0.130032  -0.000215  1.029394  0.0  0.112723  0.124836  -0.000455  1.030597  0.0
H  H15  1  0.74624056  0.94700445  0.31108529  1  0.121492  0.000472  0.964912  0.0  0.126924  0.000356  1.030119  0.0  0.129958  0.000215  1.029466  0.0  0.112698  0.124759  0.000455  1.030685  0.0
H  H16  1  0.35111918  0.99852904  0.87622976  1  0.123084  -0.0004  0.942405  0.0  0.124754  -0.000135  1.013231  0.0  0.127181  -0.000105  1.011115  0.0  0.133348  0.122833  -0.00014  1.014977  0.0
H  H17  1  0.64887590  0.00148048  0.12376776  1  0.123033  0.000399  0.942432  0.0  0.124702  0.000135  1.013271  0.0  0.127129  0.000105  1.011155  0.0  0.13335  0.12278  0.00014  1.015018  0.0
H  H18  1  0.39595103  0.50201920  0.94545581  1  0.128285  -0.000581  0.954679  0.0  0.132295  -0.000351  1.021508  0.0  0.136797  -0.000211  1.01781  0.0  0.132245  0.129003  -0.000445  1.024425  0.0
H  H19  1  0.60404700  0.49798669  0.05454857  1  0.128306  0.000579  0.954628  0.0  0.13229  0.000351  1.021488  0.0  0.1368  0.000211  1.017779  0.0  0.132254  0.128996  0.000444  1.024407  0.0
H  H20  1  0.30452209  0.53468174  0.76071695  1  0.116421  -8.5e-05  0.976199  0.0  0.120581  -1.7e-05  1.04291  0.0  0.122585  1.1e-05  1.04384  0.0  0.113236  0.119016  -4.9e-05  1.042551  0.0
H  H21  1  0.69548295  0.46531811  0.23928737  1  0.116432  8.7e-05  0.976177  0.0  0.120584  1.7e-05  1.042904  0.0  0.122588  -1.1e-05  1.043832  0.0  0.113246  0.119024  4.9e-05  1.042546  0.0
C  C22  1  0.19736107  0.98271406  0.39301698  1  0.011798  0.00563  3.60102  0.005  -0.028848  0.007433  3.860262  0.007  -0.024395  0.004989  3.875907  0.005  0.04098  -0.031728  0.009742  3.849679  0.009
C  C23  1  0.80263650  0.01728335  0.60698560  1  0.011886  -0.005632  3.601086  -0.005  -0.028778  -0.007434  3.860335  -0.007  -0.024322  -0.004989  3.875979  -0.005  0.041013  -0.031655  -0.009742  3.849743  -0.009
C  C24  1  0.24876297  0.96383434  0.49463735  1  -0.12701  0.000803  3.697505  0.0  -0.147552  -0.000744  3.951868  -0.001  -0.153087  -0.001296  3.972269  -0.001  -0.074598  -0.143884  0.0  3.938182  -0.001
C  C25  1  0.75124124  0.03616067  0.50536265  1  -0.127159  -0.000797  3.697554  0.0  -0.147654  0.000744  3.951967  0.001  -0.15321  0.001296  3.972353  0.001  -0.074639  -0.143982  0.0  3.938284  0.001
C  C26  1  0.22207951  0.82132364  0.59663510  1  0.0904  0.011564  3.74021  0.01  0.09472  0.008199  3.984984  0.008  0.09789  0.004816  4.006759  0.005  0.012309  0.092606  0.011421  3.9701  0.01
C  C27  1  0.77792726  0.17867138  0.40336429  1  0.090482  -0.011577  3.740134  -0.01  0.094723  -0.008199  3.985  -0.008  0.097956  -0.004818  4.006693  -0.005  0.012289  0.092595  -0.011422  3.970138  -0.01
C  C28  1  0.14085531  0.70143822  0.58979825  1  -0.117189  0.002643  3.693139  0.002  -0.142018  -0.000311  3.954647  -0.001  -0.148678  -0.001063  3.976555  -0.001  -0.068343  -0.137828  0.000616  3.940482  0.0
C  C29  1  0.85915031  0.29855559  0.41020421  1  -0.117061  -0.002636  3.693235  -0.002  -0.141894  0.000311  3.954815  0.001  -0.148573  0.001063  3.976695  0.001  -0.068305  -0.137705  -0.000615  3.94066  0.0
C  C30  1  0.08931742  0.72482678  0.48766610  1  0.033073  0.000636  3.578215  0.001  -0.011095  0.005245  3.842233  0.005  -0.006831  0.00356  3.858771  0.004  0.050121  -0.014104  0.006999  3.831551  0.006
C  C31  1  0.91068424  0.27516823  0.51233614  1  0.033023  -0.000638  3.578309  -0.001  -0.0112  -0.005246  3.842408  -0.005  -0.006927  -0.00356  3.858954  -0.004  0.050066  -0.014207  -0.006999  3.831722  -0.006
C  C32  1  0.27477684  0.79777102  0.70587633  1  0.093888  0.014266  3.740404  0.012  0.095416  0.008491  3.985732  0.008  0.09762  0.004848  4.008246  0.005  0.013194  0.094151  0.011859  3.970258  0.011
C  C33  1  0.72523190  0.20223007  0.29412184  1  0.093788  -0.014232  3.740628  -0.012  0.095409  -0.008488  3.985878  -0.008  0.097597  -0.004849  4.008382  -0.005  0.013217  0.094146  -0.011856  3.970415  -0.011
C  C34  1  0.28966767  0.92932778  0.73955541  1  -0.113127  0.000567  3.682341  0.0  -0.132761  -0.000219  3.937063  -0.001  -0.138472  -0.000791  3.958845  -0.001  -0.069618  -0.129071  0.000498  3.922489  0.0
C  C35  1  0.71033454  0.07067450  0.26044316  1  -0.113108  -0.000607  3.682406  0.0  -0.132743  0.000218  3.937117  0.001  -0.138454  0.00079  3.958906  0.001  -0.069605  -0.129052  -0.000499  3.922542  0.0
C  C36  1  0.33969476  0.90364894  0.84291606  1  0.026342  0.004506  3.581467  0.004  -0.01956  0.00609  3.847725  0.006  -0.016353  0.003897  3.865397  0.004  0.047102  -0.021727  0.008264  3.836041  0.008
C  C37  1  0.66030197  0.09635695  0.15708284  1  0.026452  -0.004464  3.581472  -0.004  -0.019433  -0.00609  3.847659  -0.006  -0.016229  -0.003895  3.865337  -0.004  0.047141  -0.0216  -0.008262  3.835979  -0.008
C  C38  1  0.36230486  0.61959434  0.88456920  1  0.034237  0.004375  3.557573  0.004  -0.009048  0.006598  3.816387  0.006  -0.004908  0.004511  3.831179  0.005  0.050822  -0.011918  0.008556  3.806789  0.008
C  C39  1  0.63769340  0.38040913  0.11543246  1  0.034348  -0.004336  3.55759  -0.004  -0.008887  -0.0066  3.816362  -0.006  -0.00475  -0.004511  3.831154  -0.005  0.050871  -0.011753  -0.008556  3.806764  -0.008
C  C40  1  0.31187919  0.64153090  0.78219254  1  -0.110227  0.000438  3.687304  0.0  -0.132866  -0.000855  3.946153  -0.001  -0.139892  -0.00137  3.969477  -0.002  -0.068566  -0.128442  -3.7e-05  3.930815  -0.001
C  C41  1  0.68812699  0.35847017  0.21780788  1  -0.110174  -0.000478  3.687224  0.0  -0.132849  0.000855  3.946042  0.001  -0.139876  0.001372  3.969368  0.002  -0.068528  -0.128421  3.7e-05  3.930699  0.001
C  C42  1  0.95328171  0.79401977  0.05008348  1  0.52184  -0.005779  3.983215  -0.003  0.500383  0.001454  4.254065  0.005  0.533646  0.000402  4.262139  0.004  0.319088  0.478553  0.002241  4.24698  0.005
C  C43  1  0.04671416  0.20599461  0.94991177  1  0.521765  0.005785  3.982847  0.003  0.500337  -0.001458  4.253713  -0.005  0.533597  -0.000404  4.26179  -0.004  0.31902  0.478492  -0.002242  4.246621  -0.005
C  C44  1  0.83317049  0.73452898  0.92534667  1  0.492574  -0.002912  3.993249  -0.004  0.456934  -0.000177  4.281428  -0.001  0.482853  -0.000165  4.290427  -0.001  0.297554  0.439348  -0.000141  4.274546  -0.001
C  C45  1  0.16682676  0.26548419  0.07464527  1  0.492434  0.002918  3.993295  0.004  0.456807  0.000178  4.281508  0.001  0.482722  0.000163  4.290506  0.001  0.297579  0.439219  0.000141  4.274626  0.001
C  C46  1  0.51769947  0.72026736  0.28488522  1  0.507762  -0.003848  3.993355  -0.001  0.484543  0.002122  4.269093  0.005  0.517223  0.001063  4.276863  0.004  0.318035  0.463095  0.002933  4.26261  0.006
C  C47  1  0.48229913  0.27973249  0.71511318  1  0.507675  0.003869  3.993671  0.001  0.484418  -0.002125  4.269425  -0.005  0.517091  -0.001066  4.277199  -0.004  0.317951  0.462965  -0.002933  4.262936  -0.006
C  C48  1  0.64219052  0.66284037  0.44214969  1  0.47315  -0.00247  4.007998  -0.003  0.43939  -0.000519  4.29318  -0.001  0.463941  -0.00046  4.304029  -0.001  0.292317  0.422775  -0.000492  4.285466  -0.001
C  C49  1  0.35780356  0.33715341  0.55785218  1  0.473135  0.00247  4.008111  0.003  0.439329  0.000519  4.293324  0.001  0.463873  0.000458  4.304173  0.001  0.292257  0.422709  0.000492  4.285609  0.001
N  N50  1  0.11752628  0.86407079  0.39088570  1  0.253498  0.00427  3.721812  -0.001  0.311281  -0.00093  3.988196  -0.006  0.312169  -0.002266  4.015353  -0.006  -0.118878  0.310944  0.000775  3.969832  -0.004
N  N51  1  0.88247037  0.13592299  0.60911804  1  0.253626  -0.004264  3.721578  0.001  0.31144  0.000933  3.987965  0.006  0.312327  0.002265  4.01512  0.006  -0.118775  0.311104  -0.000774  3.969595  0.004
N  N52  1  0.37565603  0.75025426  0.91385910  1  0.265024  0.0051  3.705501  0.0  0.323476  -0.000465  3.972345  -0.005  0.324667  -0.001922  3.9998  -0.006  -0.1105  0.322867  0.001328  3.953939  -0.003
N  N53  1  0.62434059  0.24975284  0.08614282  1  0.264836  -0.005126  3.705726  0.0  0.323274  0.000467  3.972579  0.005  0.32446  0.001919  4.000037  0.006  -0.110629  0.322667  -0.001328  3.95417  0.003
N  N54  1  0.82743052  0.78789355  0.01327075  1  -0.449731  0.007124  3.308038  0.008  -0.398348  0.002392  3.569075  0.003  -0.423635  0.000978  3.570385  0.001  -0.29963  -0.380426  0.003957  3.56685  0.005
N  N55  1  0.17256565  0.21213053  0.98671777  1  -0.449583  -0.007129  3.308028  -0.008  -0.398254  -0.002392  3.569086  -0.003  -0.423537  -0.000981  3.570403  -0.001  -0.299569  -0.38031  -0.003959  3.566838  -0.005
N  N56  1  0.05617778  0.81154612  0.09077457  1  -0.617343  0.046761  3.037612  0.051  -0.595732  0.034347  3.352401  0.039  -0.628243  0.030546  3.34699  0.036  -0.43296  -0.574914  0.035922  3.356458  0.039
N  N57  1  0.94381918  0.18845736  0.90922409  1  -0.61726  -0.046765  3.037264  -0.051  -0.595637  -0.034346  3.352044  -0.039  -0.628141  -0.030544  3.346614  -0.036  -0.432923  -0.574832  -0.035922  3.356119  -0.039
N  N58  1  0.82195495  0.68807657  0.84852419  1  -0.590656  0.006476  2.685586  0.007  -0.55057  0.001795  2.919981  0.002  -0.567702  0.000765  2.924716  0.001  -0.363992  -0.538369  0.003024  2.91638  0.003
N  N59  1  0.17804225  0.31192449  0.15147422  1  -0.590595  -0.006485  2.685562  -0.007  -0.55051  -0.001798  2.919951  -0.002  -0.56763  -0.000763  2.924679  -0.001  -0.364029  -0.538311  -0.003025  2.916358  -0.003
N  N60  1  0.64182028  0.66888738  0.33372643  1  -0.455552  0.004947  3.328898  0.006  -0.397841  0.002286  3.580976  0.003  -0.422953  0.001129  3.584844  0.002  -0.304102  -0.380515  0.003405  3.577568  0.004
N  N61  1  0.35818148  0.33110642  0.66627281  1  -0.455449  -0.004943  3.329107  -0.006  -0.397694  -0.002286  3.581156  -0.003  -0.422797  -0.001131  3.585025  -0.002  -0.304036  -0.380358  -0.003406  3.577734  -0.004
N  N62  1  0.41906027  0.76855060  0.22658419  1  -0.605993  0.040926  3.031612  0.044  -0.585837  0.032298  3.347419  0.036  -0.615982  0.0289  3.340376  0.034  -0.42582  -0.567017  0.033459  3.353153  0.036
N  N63  1  0.58093333  0.23144801  0.77341818  1  -0.605968  -0.04095  3.031663  -0.044  -0.58579  -0.032296  3.347445  -0.036  -0.615941  -0.028895  3.340412  -0.034  -0.425776  -0.566977  -0.03346  3.353182  -0.036
N  N64  1  0.65991498  0.65398118  0.53698652  1  -0.582979  0.004293  2.675669  0.004  -0.54282  0.001625  2.908663  0.002  -0.559693  0.000889  2.915214  0.001  -0.361003  -0.531327  0.002406  2.904144  0.003
N  N65  1  0.34008774  0.34600293  0.46301585  1  -0.583017  -0.004294  2.675792  -0.004  -0.542821  -0.001625  2.908782  -0.002  -0.559688  -0.000886  2.91535  -0.001  -0.360958  -0.531329  -0.002407  2.904267  -0.003
O  O66  1  0.17831517  0.51511786  0.28099674  1  -0.865124  -0.000352  1.894666  0.001  -0.828262  0.000915  2.08381  0.002  -0.851064  0.000652  2.046753  0.002  -0.604075  -0.811096  0.001257  2.109038  0.002
O  O67  1  0.82169404  0.48487838  0.71900094  1  -0.865042  0.00035  1.894682  -0.001  -0.828256  -0.000917  2.083765  -0.002  -0.850998  -0.000654  2.046714  -0.002  -0.604063  -0.811086  -0.001259  2.108976  -0.002
O  O68  1  0.06731959  0.88424135  0.29355637  1  -0.471922  0.126965  1.811282  0.156  -0.480424  0.074886  2.092249  0.104  -0.523545  0.054176  2.096043  0.081  -0.221164  -0.453721  0.084396  2.091085  0.111
O  O69  1  0.93267218  0.11574999  0.70645080  1  -0.472049  -0.126973  1.811202  -0.156  -0.480514  -0.074889  2.092106  -0.104  -0.523624  -0.054176  2.095884  -0.081  -0.221244  -0.453817  -0.084399  2.090942  -0.111
O  O70  1  0.42110523  0.72790382  0.01338369  1  -0.472148  0.132629  1.835326  0.162  -0.481463  0.075234  2.114625  0.104  -0.526121  0.0539  2.118471  0.081  -0.217187  -0.453712  0.085327  2.113513  0.113
O  O71  1  0.57888720  0.27210690  0.98661992  1  -0.472141  -0.132633  1.835391  -0.162  -0.481459  -0.075231  2.114672  -0.104  -0.526111  -0.053894  2.118516  -0.081  -0.217182  -0.453716  -0.085321  2.113561  -0.113
