# generated using pymatgen
data_Zn4H28C63N16O5
_symmetry_space_group_name_H-M   'P 1'
_cell_length_a   18.51592967
_cell_length_b   20.52849131
_cell_length_c   19.50763209
_cell_angle_alpha   105.19732018
_cell_angle_beta   108.88813084
_cell_angle_gamma   111.09523840
_symmetry_Int_Tables_number   1
_chemical_formula_structural   Zn4H28C63N16O5
_chemical_formula_sum   'Zn4 H28 C63 N16 O5'
_cell_volume   5912.71065518
_cell_formula_units_Z   1
loop_
 _symmetry_equiv_pos_site_id
 _symmetry_equiv_pos_as_xyz
  1  'x, y, z'
loop_
 _atom_site_type_symbol
 _atom_site_label
 _atom_site_symmetry_multiplicity
 _atom_site_fract_x
 _atom_site_fract_y
 _atom_site_fract_z
 _atom_site_occupancy
 _atom_site_pbe_bader_charge
 _atom_site_pbe_bader_spin_density
 _atom_site_pbe_cm5_charge
 _atom_site_pbe_ddec_charge
 _atom_site_pbe_ddec_spin_density
 _atom_site_pbe_ddec_sum_bond_order
 _atom_site_pbe_magmom
Zn  Zn0  1  0.10682739  0.49021087  0.09224123  1  1.204014  0  0.75591  0.688321  0  2.212887  0
Zn  Zn1  1  0.88182453  0.49538503  0.88736743  1  1.189501  0  0.756593  0.626207  0  2.460307  0
Zn  Zn2  1  0.88346366  0.38232034  0.98047231  1  1.201225  0  0.745376  0.643646  0  2.32162  0
Zn  Zn3  1  0.10561413  0.60554643  0.00928134  1  1.185313  0  0.742395  0.623546  0  2.378917  0
H  H4  1  0.12888755  0.34286020  0.10848638  1  0.091759  0  0.124977  0.11308  0  0.982876  0
H  H5  1  0.88336337  0.31936264  0.38772876  1  0.102628  0  0.109141  0.111481  0  0.98049  0
H  H6  1  0.15855621  0.48183194  0.50193026  1  0.06305  0  0.10501  0.103677  0  1.006465  0
H  H7  1  0.87808894  0.37054046  0.74709644  1  0.099598  0  0.116946  0.103604  0  1.040271  0
H  H8  1  0.54429184  0.87307336  0.47333030  1  0.076255  0  0.108274  0.112208  0  1.00113  0
H  H9  1  0.08232666  0.11499662  0.15488066  1  0.071756  0  0.106353  0.10464  0  1.002971  0
H  H10  1  0.81371906  0.86636703  0.95719712  1  0.088256  0  0.110407  0.114988  0  0.982512  0
H  H11  1  0.81766439  0.98999231  0.96467466  1  0.08655  0  0.112192  0.114886  0  0.978275  0
H  H12  1  0.77017699  0.21946356  0.81751590  1  0.108019  0  0.130427  0.123257  0  0.98913  0
H  H13  1  0.32943471  0.67931074  0.04349018  1  0.101706  0  0.129129  0.121733  0  0.973447  0
H  H14  1  0.71673349  0.36345658  0.70446587  1  0.103436  0  0.12587  0.117374  0  0.979957  0
H  H15  1  0.82992447  0.60964908  0.99072690  1  0.115863  0  0.122317  0.111605  0  1.012976  0
H  H16  1  0.26670074  0.46753552  0.07458781  1  0.090964  0  0.123899  0.116712  0  0.983861  0
H  H17  1  0.15813405  0.51930445  0.88931381  1  0.122756  0  0.130332  0.126153  0  0.988445  0
H  H18  1  0.86359098  0.22083714  0.91747393  1  0.085954  0  0.122647  0.112333  0  1.002136  0
H  H19  1  0.28339263  0.63142920  0.26774071  1  0.082258  0  0.124555  0.112936  0  0.982602  0
H  H20  1  0.24935562  0.52242960  0.63058092  1  0.024532  0  0.090761  0.017275  0  0.969733  0
H  H21  1  0.64851340  0.93405028  0.60303629  1  0.034024  0  0.092696  0.021767  0  0.966778  0
H  H22  1  0.62659713  0.17417179  0.49857316  1  0.617538  0  0.323597  0.358266  0  0.904974  0
H  H23  1  0.49499265  0.04706244  0.32568077  1  0.622489  0  0.340893  0.375995  0  0.870407  0
H  H24  1  0.15156823  0.05834834  0.21026969  1  0.034079  0  0.092428  0.019349  0  0.967947  0
H  H25  1  0.85733000  0.32100508  0.13258802  1  0.108022  0  0.124906  0.116057  0  0.979925  0
H  H26  1  0.10086430  0.76538294  0.06324935  1  0.126607  0  0.130174  0.121331  0  0.990741  0
H  H27  1  0.84246556  0.63189556  0.86052055  1  0.12069  0  0.1274  0.117722  0  0.976366  0
H  H28  1  0.11046617  0.52831711  0.25960433  1  0.101828  0  0.119535  0.112814  0  0.998494  0
H  H29  1  0.20107694  0.76518201  0.15507063  1  0.082802  0  0.124361  0.1152  0  0.998742  0
H  H30  1  0.82033163  0.45314723  0.10417549  1  0.124827  0  0.123792  0.114916  0  0.997356  0
H  H31  1  0.89829903  0.31375140  0.51663457  1  0.062404  0  0.10718  0.110974  0  0.988924  0
C  C32  1  0.06603559  0.32522531  0.06026857  1  0.47553  0  0.022986  -0.035036  0  3.931892  0
C  C33  1  0.04743568  0.47811891  0.21604981  1  0.454594  0  0.010217  -0.052239  0  3.958145  0
C  C34  1  0.20656180  0.72019394  0.17197229  1  0.433284  0  0.015656  -0.045554  0  3.937352  0
C  C35  1  0.94422854  0.41263231  0.79334343  1  0.446504  0  0.020519  -0.029514  0  3.91722  0
C  C36  1  0.82893615  0.48578024  0.06909806  1  0.433608  0  0.023597  -0.025194  0  3.902443  0
C  C37  1  0.27772716  0.72772065  0.23506246  1  0.101738  0  -0.023345  0.050437  0  4.188546  0
C  C38  1  0.80572255  0.54346967  0.06400355  1  0.119444  0  -0.02388  0.03421  0  4.193638  0
C  C39  1  0.98855202  0.42200089  0.22858559  1  0.116466  0  -0.031506  0.037042  0  4.204497  0
C  C40  1  0.96526887  0.72642490  0.97229879  1  0.110199  0  -0.021923  0.042944  0  4.189233  0
C  C41  1  0.41920726  0.58858667  0.08136173  1  -0.394547  0  -0.026661  -0.055391  0  4.084243  0
C  C42  1  0.49098318  0.59334531  0.09435791  1  0.226777  0  -0.050088  -0.066773  0  4.34217  0
C  C43  1  0.02303805  0.43082875  0.78903995  1  0.110549  0  -0.02002  0.046911  0  4.166481  0
C  C44  1  0.56650064  0.59442472  0.10416964  1  -0.190068  0  -0.029688  -0.017753  0  4.257439  0
C  C45  1  0.63296786  0.59070528  0.10854338  1  0.073047  0  -0.031112  -0.024652  0  4.254987  0
C  C46  1  0.69951728  0.58098570  0.10451170  1  -0.066018  0  -0.047348  -0.05937  0  4.337546  0
C  C47  1  0.76490505  0.26618209  0.80433446  1  0.465991  0  0.032816  -0.015262  0  3.905618  0
C  C48  1  0.75440716  0.56605227  0.09285097  1  -0.136527  0  -0.028651  -0.062164  0  4.06854  0
C  C49  1  0.94691142  0.35355255  0.44099860  1  -0.028726  0  -0.075361  -0.105853  0  3.946574  0
C  C50  1  0.01952674  0.40234043  0.43543823  1  0.07745  0  -0.00334  0.140851  0  4.130053  0
C  C51  1  0.10102674  0.44471410  0.50470525  1  -0.019984  0  -0.073284  -0.148957  0  3.930248  0
C  C52  1  0.11053084  0.44205070  0.57781300  1  -0.047008  0  -0.018475  -0.032367  0  3.985411  0
C  C53  1  0.03624052  0.39576978  0.58386119  1  0.117032  0  0.014046  0.130712  0  4.05931  0
C  C54  1  0.72599087  0.26396535  0.72786993  1  0.094425  0  -0.025111  0.041901  0  4.185035  0
C  C55  1  0.95532460  0.35035049  0.51307045  1  -0.028033  0  -0.082397  -0.129442  0  3.97437  0
C  C56  1  0.00961768  0.40902244  0.36311919  1  0.016369  0  -0.059324  -0.13394  0  4.155052  0
C  C57  1  0.03852275  0.39874955  0.65752343  1  -0.320144  0  -0.044632  -0.108036  0  4.132951  0
C  C58  1  0.03163305  0.40777600  0.71911837  1  0.035434  0  -0.036696  -0.068544  0  4.11673  0
C  C59  1  0.29986344  0.62621010  0.04937806  1  0.453773  0  0.027634  -0.032401  0  3.937363  0
C  C60  1  0.99927039  0.41557343  0.30066398  1  -0.379204  0  -0.052459  -0.090283  0  4.184137  0
C  C61  1  0.61375439  0.99691441  0.53655197  1  0.042184  0  -0.029013  -0.035882  0  4.049588  0
C  C62  1  0.62317147  0.06770368  0.53237942  1  0.091314  0  -0.008954  0.014969  0  4.116646  0
C  C63  1  0.57988353  0.06469778  0.45674029  1  0.493489  0  0.070455  0.130947  0  4.090224  0
C  C64  1  0.52013044  0.99408981  0.38865634  1  0.571233  0  0.091777  0.187169  0  4.026702  0
C  C65  1  0.33601107  0.57877474  0.06639545  1  0.125032  0  -0.029431  0.023214  0  4.216437  0
C  C66  1  0.50200486  0.92362091  0.39539836  1  0.187204  0  -0.009667  0.048383  0  4.125839  0
C  C67  1  0.55407916  0.92711874  0.46869229  1  -0.059  0  -0.07957  -0.159419  0  3.977377  0
C  C68  1  0.66641434  0.13911364  0.59989203  1  -0.263961  0  -0.045363  -0.09766  0  4.171309  0
C  C69  1  0.42838787  0.85339812  0.33412106  1  -0.160761  0  -0.051487  -0.092086  0  4.128959  0
C  C70  1  0.35851096  0.79450792  0.28859045  1  -0.159337  0  -0.043875  -0.08897  0  4.146137  0
C  C71  1  0.73652107  0.33895355  0.74543280  1  0.427312  0  0.017849  -0.054279  0  3.974124  0
C  C72  1  0.69117303  0.20045687  0.65482208  1  -0.060415  0  -0.043398  -0.095572  0  4.126399  0
C  C73  1  0.02207707  0.99118120  0.10747542  1  -0.048524  0  -0.017194  -0.031738  0  3.977704  0
C  C74  1  0.94786651  0.91931672  0.04699007  1  0.08277  0  0.015109  0.129895  0  4.055306  0
C  C75  1  0.87281688  0.92102341  0.00009875  1  -0.008049  0  -0.078921  -0.125499  0  3.961991  0
C  C76  1  0.24906369  0.65207752  0.23003286  1  0.447415  0  0.023968  -0.034621  0  3.934486  0
C  C77  1  0.87504088  0.99019873  0.00417688  1  -0.096942  0  -0.071981  -0.102842  0  3.937262  0
C  C78  1  0.95290123  0.06149309  0.05581603  1  0.151354  0  -0.001587  0.140087  0  4.124694  0
C  C79  1  0.02340229  0.06042985  0.11072852  1  -0.043656  0  -0.070578  -0.144964  0  3.92282  0
C  C80  1  0.95005928  0.84919275  0.02706251  1  0.126667  0  -0.040903  -0.09812  0  4.128425  0
C  C81  1  0.96238677  0.13001331  0.04751370  1  -0.322918  0  -0.053428  -0.125611  0  4.132708  0
C  C82  1  0.97517093  0.18641838  0.03303851  1  0.005677  0  -0.047545  -0.087515  0  4.161567  0
C  C83  1  0.26758911  0.51760766  0.06516509  1  0.455845  0  0.017172  -0.044377  0  3.953953  0
C  C84  1  0.95251902  0.78995402  0.99822361  1  -0.397185  0  -0.041681  -0.083874  0  4.128375  0
C  C85  1  0.08782380  0.48909392  0.86624519  1  0.469689  0  0.031618  -0.009895  0  3.870486  0
C  C86  1  0.93043094  0.26310969  0.96234356  1  0.446235  0  0.015698  -0.04782  0  3.940609  0
C  C87  1  0.83411172  0.56610448  0.01096458  1  0.431478  0  0.023242  -0.028572  0  3.91502  0
C  C88  1  0.98970184  0.25235782  0.01865047  1  0.070632  0  -0.024793  0.049281  0  4.191069  0
C  C89  1  0.19892358  0.49049663  0.64667401  1  0.964164  0  0.089299  0.267273  0  4.01281  0
C  C90  1  0.66187425  0.99395026  0.61088490  1  0.931483  0  0.085362  0.26744  0  4.023475  0
C  C91  1  0.10103897  0.99723191  0.16623291  1  0.955309  0  0.092016  0.270226  0  4.007278  0
C  C92  1  0.91771782  0.37211107  0.15091689  1  0.391224  0  0.020656  -0.041808  0  3.948505  0
C  C93  1  0.04060400  0.72106607  0.00995997  1  0.420391  0  0.033238  -0.015778  0  3.908353  0
C  C94  1  0.90842083  0.65346123  0.90615275  1  0.412387  0  0.020361  -0.045897  0  3.96097  0
N  N95  1  0.05161416  0.37454853  0.03169012  1  -0.797933  0  -0.27443  -0.176016  0  3.576218  0
N  N96  1  0.79670529  0.33646232  0.86180911  1  -0.80702  0  -0.268156  -0.18605  0  3.553423  0
N  N97  1  0.21795382  0.59561495  0.03969006  1  -0.785522  0  -0.269176  -0.184113  0  3.585727  0
N  N98  1  0.77937641  0.38227495  0.82532039  1  -0.769167  0  -0.270945  -0.188082  0  3.488222  0
N  N99  1  0.19783043  0.52853013  0.04925480  1  -0.799927  0  -0.272312  -0.215448  0  3.577274  0
N  N100  1  0.04929955  0.50527837  0.91124624  1  -0.810326  0  -0.27824  -0.194125  0  3.625383  0
N  N101  1  0.96723311  0.33692100  0.97129266  1  -0.76687  0  -0.275239  -0.206264  0  3.468636  0
N  N102  1  0.16844189  0.60445033  0.16861118  1  -0.794626  0  -0.274822  -0.182013  0  3.579755  0
N  N103  1  0.86906508  0.52375682  0.98585251  1  -0.810713  0  -0.288084  -0.188559  0  3.655597  0
N  N104  1  0.93462871  0.39648025  0.09770380  1  -0.79408  0  -0.269051  -0.180936  0  3.594104  0
N  N105  1  0.02895950  0.65094390  0.97027961  1  -0.809116  0  -0.271235  -0.181322  0  3.561358  0
N  N106  1  0.94616948  0.60829824  0.90519873  1  -0.771147  0  -0.276099  -0.194526  0  3.496013  0
N  N107  1  0.01441928  0.46204022  0.13752732  1  -0.784187  0  -0.273065  -0.219807  0  3.546865  0
N  N108  1  0.14142046  0.64582940  0.13143856  1  -0.789094  0  -0.282186  -0.21431  0  3.480312  0
N  N109  1  0.86576348  0.47438628  0.02107402  1  -0.775225  0  -0.273291  -0.184464  0  3.606659  0
N  N110  1  0.96112023  0.45833303  0.86644954  1  -0.816415  0  -0.290966  -0.20443  0  3.655377  0
O  O111  1  0.21938327  0.49762933  0.71557808  1  -1.067585  0  -0.268342  -0.351371  0  2.112092  0
O  O112  1  0.71285285  0.04933747  0.67668401  1  -1.08677  0  -0.283678  -0.37075  0  2.102706  0
O  O113  1  0.58842576  0.12974249  0.44576712  1  -1.143708  0  -0.356206  -0.444131  0  2.294987  0
O  O114  1  0.47580794  0.99334590  0.31763619  1  -1.109306  0  -0.333758  -0.403409  0  2.255203  0
O  O115  1  0.11386134  0.94350126  0.17019166  1  -1.073662  0  -0.271813  -0.356293  0  2.105828  0
