# generated using pymatgen
data_TbH10C13N2O9
_symmetry_space_group_name_H-M   'P 1'
_cell_length_a   8.27940047
_cell_length_b   9.74791669
_cell_length_c   9.92965122
_cell_angle_alpha   101.47945886
_cell_angle_beta   108.66200306
_cell_angle_gamma   100.52258224
_symmetry_Int_Tables_number   1
_chemical_formula_structural   TbH10C13N2O9
_chemical_formula_sum   'Tb2 H20 C26 N4 O18'
_cell_volume   717.40928723
_cell_formula_units_Z   2
loop_
 _symmetry_equiv_pos_site_id
 _symmetry_equiv_pos_as_xyz
  1  'x, y, z'
loop_
 _atom_site_type_symbol
 _atom_site_label
 _atom_site_symmetry_multiplicity
 _atom_site_fract_x
 _atom_site_fract_y
 _atom_site_fract_z
 _atom_site_occupancy
 _atom_site_hle17_bader_spin_density
 _atom_site_hle17_ddec_charge
 _atom_site_hle17_ddec_spin_density
 _atom_site_hle17_ddec_sum_bond_order
 _atom_site_hle17_magmom
 _atom_site_hse06_10hf_bader_spin_density
 _atom_site_hse06_10hf_ddec_charge
 _atom_site_hse06_10hf_ddec_spin_density
 _atom_site_hse06_10hf_ddec_sum_bond_order
 _atom_site_hse06_10hf_magmom
 _atom_site_hse06_bader_spin_density
 _atom_site_hse06_ddec_charge
 _atom_site_hse06_ddec_spin_density
 _atom_site_hse06_ddec_sum_bond_order
 _atom_site_hse06_magmom
 _atom_site_pbe_bader_spin_density
 _atom_site_pbe_cm5_charge
 _atom_site_pbe_ddec_charge
 _atom_site_pbe_ddec_spin_density
 _atom_site_pbe_ddec_sum_bond_order
 _atom_site_pbe_magmom
Tb  Tb0  1  0.40268386  0.65323564  0.16948996  1  0  2.253526  0  1.649355  0  0  2.110795  0  2.122571  0  0  2.232974  0  1.940078  0  0  1.485648  2.074919  0  2.154896  0
Tb  Tb1  1  0.59731569  0.34676330  0.83051004  1  0  2.253533  0  1.649337  0  0  2.110802  0  2.122561  0  0  2.232985  0  1.940061  0  0  1.485659  2.074926  0  2.154888  0
H  H2  1  0.28076410  0.35587757  0.28354536  1  0  0.118511  0  0.960367  0  0  0.121161  0  1.034553  0  0  0.125753  0  1.030156  0  0  0.11812  0.117479  0  1.038324  0
H  H3  1  0.71923454  0.64412246  0.71645460  1  0  0.118506  0  0.960384  0  0  0.121161  0  1.034559  0  0  0.125753  0  1.030165  0  0  0.11812  0.117481  0  1.038328  0
H  H4  1  0.14481912  0.17969702  0.40106406  1  0  0.122772  0  0.928089  0  0  0.132663  0  0.984422  0  0  0.135987  0  0.983003  0  0  0.120105  0.130311  0  0.985645  0
H  H5  1  0.85518115  0.82030409  0.59893654  1  0  0.122778  0  0.928096  0  0  0.132667  0  0.984429  0  0  0.135992  0  0.983009  0  0  0.120109  0.130317  0  0.985652  0
H  H6  1  0.11103565  0.91442488  0.30417012  1  0  0.128025  0  0.920637  0  0  0.138227  0  0.97756  0  0  0.141961  0  0.973423  0  0  0.139197  0.135435  0  0.980538  0
H  H7  1  0.88896425  0.08557515  0.69583118  1  0  0.128021  0  0.920645  0  0  0.138224  0  0.977564  0  0  0.141959  0  0.973426  0  0  0.139202  0.135433  0  0.980543  0
H  H8  1  0.35392176  0.98544281  0.00974007  1  0  0.130726  0  0.921846  0  0  0.137984  0  0.986765  0  0  0.142238  0  0.981504  0  0  0.139154  0.134877  0  0.990691  0
H  H9  1  0.64607942  0.01455721  0.99026157  1  0  0.13073  0  0.921836  0  0  0.137968  0  0.986771  0  0  0.142231  0  0.9815  0  0  0.139135  0.134861  0  0.990696  0
H  H10  1  0.12441580  0.80013523  0.74792977  1  0  0.111159  0  0.938798  0  0  0.12071  0  1.001115  0  0  0.124059  0  0.99833  0  0  0.113871  0.118322  0  1.00302  0
H  H11  1  0.87558538  0.19986479  0.25207087  1  0  0.111159  0  0.938819  0  0  0.120711  0  1.001133  0  0  0.124057  0  0.998352  0  0  0.113861  0.11832  0  1.003038  0
H  H12  1  0.12436665  0.53861336  0.67708030  1  0  0.125923  0  0.952786  0  0  0.132205  0  1.012455  0  0  0.136625  0  1.009778  0  0  0.116482  0.129059  0  1.014445  0
H  H13  1  0.87563361  0.46138776  0.32291931  1  0  0.125909  0  0.952779  0  0  0.132217  0  1.01242  0  0  0.136638  0  1.009743  0  0  0.116489  0.129071  0  1.01441  0
H  H14  1  0.29277910  0.46231994  0.51627444  1  0  0.128853  0  0.936626  0  0  0.135673  0  0.999769  0  0  0.139683  0  0.995463  0  0  0.138624  0.132853  0  1.002507  0
H  H15  1  0.70722117  0.53768117  0.48372516  1  0  0.128871  0  0.936609  0  0  0.135689  0  0.999774  0  0  0.139699  0  0.995468  0  0  0.138635  0.132859  0  1.002525  0
H  H16  1  0.44444386  0.87993110  0.48666735  1  0  0.122648  0  0.976705  0  0  0.12689  0  1.047572  0  0  0.131057  0  1.04383  0  0  0.132616  0.123358  0  1.051525  0
H  H17  1  0.55555732  0.12006892  0.51333229  1  0  0.122602  0  0.976671  0  0  0.12684  0  1.047551  0  0  0.131008  0  1.043808  0  0  0.132591  0.123312  0  1.051501  0
H  H18  1  0.75431332  0.59556503  0.18916897  1  0  0.43778  0  0.855534  0  0  0.408734  0  0.915811  0  0  0.419564  0  0.900161  0  0  0.30184  0.401119  0  0.927078  0
H  H19  1  0.24568750  0.40443391  0.81083036  1  0  0.43775  0  0.855588  0  0  0.408675  0  0.915879  0  0  0.419502  0  0.900238  0  0  0.301832  0.40106  0  0.927145  0
H  H20  1  0.77718475  0.76262000  0.27451990  1  0  0.42013  0  0.889337  0  0  0.388689  0  0.953742  0  0  0.400781  0  0.936416  0  0  0.287956  0.380032  0  0.966323  0
H  H21  1  0.22281480  0.23737894  0.72548010  1  0  0.420139  0  0.889319  0  0  0.388702  0  0.953717  0  0  0.400794  0  0.936392  0  0  0.28797  0.380045  0  0.966299  0
C  C22  1  0.41883770  0.28594417  0.07349563  1  0  0.723143  0  3.878057  0  0  0.676302  0  4.164974  0  0  0.711655  0  4.160319  0  0  0.236819  0.652442  0  4.17089  0
C  C23  1  0.58116384  0.71405694  0.92650331  1  0  0.723159  0  3.877976  0  0  0.6763  0  4.164911  0  0  0.711653  0  4.160257  0  0  0.236856  0.652439  0  4.170829  0
C  C24  1  0.32701780  0.18485365  0.13887139  1  0  -0.090374  0  3.741689  0  0  -0.060837  0  3.972792  0  0  -0.071886  0  3.993753  0  0  -0.004089  -0.05423  0  3.958598  0
C  C25  1  0.67298175  0.81514529  0.86112860  1  0  -0.090369  0  3.741687  0  0  -0.060824  0  3.972773  0  0  -0.071874  0  3.993736  0  0  -0.004094  -0.054217  0  3.958583  0
C  C26  1  0.26547886  0.23954178  0.24865332  1  0  -0.028442  0  3.67389  0  0  -0.068125  0  3.933208  0  0  -0.060918  0  3.946263  0  0  -0.065683  -0.07104  0  3.922858  0
C  C27  1  0.73452069  0.76045716  0.75134667  1  0  -0.028463  0  3.673898  0  0  -0.068149  0  3.933207  0  0  -0.060941  0  3.94626  0  0  -0.065701  -0.071062  0  3.92286  0
C  C28  1  0.19043916  0.14332079  0.31231469  1  0  -0.081048  0  3.732659  0  0  -0.092749  0  3.99671  0  0  -0.098275  0  4.013657  0  0  -0.070003  -0.090039  0  3.98481  0
C  C29  1  0.80955912  0.85667815  0.68768496  1  0  -0.081047  0  3.73266  0  0  -0.092747  0  3.996713  0  0  -0.098275  0  4.013659  0  0  -0.069996  -0.090038  0  3.984816  0
C  C30  1  0.17276699  0.99632981  0.26333363  1  0  0.031862  0  3.547525  0  0  -0.015463  0  3.811062  0  0  -0.006285  0  3.820024  0  0  0.052442  -0.019763  0  3.80389  0
C  C31  1  0.82723419  0.00367021  0.73666701  1  0  0.031905  0  3.547456  0  0  -0.015423  0  3.810999  0  0  -0.006244  0  3.819962  0  0  0.052461  -0.019723  0  3.803832  0
C  C32  1  0.30838958  0.03644518  0.09311539  1  0  0.017938  0  3.528475  0  0  -0.035248  0  3.783411  0  0  -0.025555  0  3.793125  0  0  0.055396  -0.042231  0  3.777641  0
C  C33  1  0.69161160  0.96355484  0.90688625  1  0  0.017886  0  3.528503  0  0  -0.035271  0  3.783421  0  0  -0.025585  0  3.793133  0  0  0.0554  -0.042252  0  3.777649  0
C  C34  1  0.29506651  0.02137661  0.66531526  1  0  0.68296  0  3.896287  0  0  0.635134  0  4.18892  0  0  0.669164  0  4.183303  0  0  0.22088  0.612288  0  4.193036  0
C  C35  1  0.70493503  0.97862450  0.33468468  1  0  0.682878  0  3.896335  0  0  0.635044  0  4.188998  0  0  0.669073  0  4.183384  0  0  0.220836  0.6122  0  4.193114  0
C  C36  1  0.28135716  0.86118926  0.62157156  1  0  -0.080967  0  3.762636  0  0  -0.054296  0  4.001146  0  0  -0.063919  0  4.021686  0  0  -0.005592  -0.048116  0  3.987118  0
C  C37  1  0.71864438  0.13881185  0.37842939  1  0  -0.080965  0  3.762666  0  0  -0.054309  0  4.001192  0  0  -0.063932  0  4.021732  0  0  -0.005575  -0.048131  0  3.987164  0
C  C38  1  0.18964664  0.76266550  0.67402208  1  0  -0.027916  0  3.6717  0  0  -0.065946  0  3.929289  0  0  -0.059366  0  3.943134  0  0  -0.064288  -0.069651  0  3.919362  0
C  C39  1  0.81035327  0.23733453  0.32597822  1  0  -0.02791  0  3.671737  0  0  -0.065933  0  3.929326  0  0  -0.059352  0  3.94317  0  0  -0.064281  -0.069637  0  3.919398  0
C  C40  1  0.19008581  0.61748446  0.63505678  1  0  -0.073932  0  3.714721  0  0  -0.0835  0  3.970676  0  0  -0.089435  0  3.988059  0  0  -0.068756  -0.079549  0  3.958244  0
C  C41  1  0.80991410  0.38251556  0.36494352  1  0  -0.073943  0  3.714695  0  0  -0.083503  0  3.970663  0  0  -0.089439  0  3.988046  0  0  -0.068756  -0.079553  0  3.958228  0
C  C42  1  0.27875176  0.57178435  0.54502309  1  0  0.036112  0  3.526434  0  0  -0.007031  0  3.785438  0  0  0.002662  0  3.793652  0  0  0.057296  -0.012751  0  3.779162  0
C  C43  1  0.72124688  0.42821568  0.45497486  1  0  0.036148  0  3.526363  0  0  -0.007059  0  3.785465  0  0  0.002633  0  3.793678  0  0  0.057279  -0.012773  0  3.779194  0
C  C44  1  0.36792240  0.81136014  0.53098293  1  0  -0.023223  0  3.590077  0  0  -0.078518  0  3.854907  0  0  -0.071208  0  3.868377  0  0  0.044473  -0.083876  0  3.847729  0
C  C45  1  0.63207751  0.18863989  0.46901636  1  0  -0.023165  0  3.590043  0  0  -0.07844  0  3.85485  0  0  -0.071128  0  3.868317  0  0  0.044504  -0.083801  0  3.847671  0
C  C46  1  0.98728619  0.50727346  0.07517674  1  0  0.584104  0  3.891058  0  0  0.54018  0  4.186998  0  0  0.571379  0  4.181413  0  0  0.219914  0.519439  0  4.193647  0
C  C47  1  0.01271316  0.49272874  0.92482384  1  0  0.584125  0  3.891104  0  0  0.540167  0  4.187092  0  0  0.571367  0  4.181507  0  0  0.219911  0.519426  0  4.193741  0
N  N48  1  0.23010623  0.94443224  0.15418415  1  0  0.295107  0  3.73962  0  0  0.35259  0  4.000659  0  0  0.352324  0  4.023472  0  0  -0.107893  0.352198  0  3.986605  0
N  N49  1  0.76989367  0.05556778  0.84581816  1  0  0.295116  0  3.739584  0  0  0.352593  0  4.000621  0  0  0.352328  0  4.023437  0  0  -0.107893  0.352203  0  3.986568  0
N  N50  1  0.36482012  0.66881339  0.49316826  1  0  0.291174  0  3.721348  0  0  0.345807  0  3.983946  0  0  0.345159  0  4.007352  0  0  -0.115106  0.345046  0  3.970671  0
N  N51  1  0.63517979  0.33118664  0.50683205  1  0  0.291148  0  3.721345  0  0  0.345803  0  3.983939  0  0  0.345155  0  4.007345  0  0  -0.115103  0.345043  0  3.97066  0
O  O52  1  0.20777351  0.80372069  0.10809043  1  0  -0.637306  0  1.836164  0  0  -0.604777  0  2.08362  0  0  -0.638719  0  2.080802  0  0  -0.313698  -0.587716  0  2.082586  0
O  O53  1  0.79222640  0.19627933  0.89191088  1  0  -0.637294  0  1.836142  0  0  -0.604762  0  2.083595  0  0  -0.638704  0  2.080779  0  0  -0.313685  -0.587699  0  2.082559  0
O  O54  1  0.48972304  0.23277526  0.98702446  1  0  -0.720591  0  2.040474  0  0  -0.675887  0  2.298272  0  0  -0.710698  0  2.286024  0  0  -0.381689  -0.657772  0  2.304377  0
O  O55  1  0.51027615  0.76722260  0.01297522  1  0  -0.720578  0  2.040441  0  0  -0.675867  0  2.298245  0  0  -0.710677  0  2.285998  0  0  -0.381708  -0.657749  0  2.304352  0
O  O56  1  0.42050830  0.41839821  0.11027192  1  0  -0.748709  0  2.10544  0  0  -0.697988  0  2.375859  0  0  -0.736253  0  2.363257  0  0  -0.402101  -0.680553  0  2.383518  0
O  O57  1  0.57949125  0.58160073  0.88972908  1  0  -0.748724  0  2.105361  0  0  -0.698001  0  2.375799  0  0  -0.736266  0  2.363197  0  0  -0.402107  -0.680575  0  2.383485  0
O  O58  1  0.45221409  0.62524846  0.40966810  1  0  -0.628215  0  1.835316  0  0  -0.592918  0  2.096883  0  0  -0.626192  0  2.093504  0  0  -0.308256  -0.575578  0  2.097602  0
O  O59  1  0.54778454  0.37475157  0.59033086  1  0  -0.628224  0  1.835319  0  0  -0.592927  0  2.096881  0  0  -0.626203  0  2.093503  0  0  -0.308264  -0.575588  0  2.097601  0
O  O60  1  0.43988861  0.10656590  0.67797313  1  0  -0.75337  0  2.071613  0  0  -0.702156  0  2.328719  0  0  -0.738062  0  2.31869  0  0  -0.397674  -0.682675  0  2.333355  0
O  O61  1  0.56011039  0.89343521  0.32202412  1  0  -0.753358  0  2.0717  0  0  -0.702127  0  2.328783  0  0  -0.738033  0  2.318757  0  0  -0.397654  -0.682644  0  2.333419  0
O  O62  1  0.16590303  0.05916261  0.68701833  1  0  -0.605685  0  1.944318  0  0  -0.556762  0  2.161219  0  0  -0.581784  0  2.153309  0  0  -0.303277  -0.53893  0  2.165863  0
O  O63  1  0.83409815  0.94083741  0.31298131  1  0  -0.605652  0  1.944325  0  0  -0.55672  0  2.161235  0  0  -0.581742  0  2.153325  0  0  -0.303274  -0.53889  0  2.165879  0
O  O64  1  0.82854548  0.47459771  0.06906457  1  0  -0.675192  0  2.091292  0  0  -0.617603  0  2.327654  0  0  -0.650412  0  2.315758  0  0  -0.359336  -0.600381  0  2.333518  0
O  O65  1  0.17145315  0.52540232  0.93093539  1  0  -0.675234  0  2.091266  0  0  -0.617628  0  2.327625  0  0  -0.650434  0  2.315731  0  0  -0.359345  -0.600408  0  2.333491  0
O  O66  1  0.12448934  0.54983787  0.19105010  1  0  -0.670859  0  2.071739  0  0  -0.629392  0  2.320514  0  0  -0.661109  0  2.309654  0  0  -0.369452  -0.61356  0  2.326154  0
O  O67  1  0.87550873  0.45016433  0.80895014  1  0  -0.670847  0  2.071785  0  0  -0.629371  0  2.320578  0  0  -0.66109  0  2.30972  0  0  -0.369452  -0.613538  0  2.326218  0
O  O68  1  0.71224292  0.65802794  0.25450990  1  0  -0.916615  0  1.875541  0  0  -0.86456  0  2.065291  0  0  -0.892961  0  2.027459  0  0  -0.643947  -0.850773  0  2.088261  0
O  O69  1  0.28775790  0.34197099  0.74548943  1  0  -0.916596  0  1.875592  0  0  -0.864493  0  2.065428  0  0  -0.892892  0  2.027596  0  0  -0.643956  -0.850706  0  2.088402  0
