# generated using pymatgen
data_CdH18C24S2N2O5
_symmetry_space_group_name_H-M   'P 1'
_cell_length_a   9.61169010
_cell_length_b   12.05715562
_cell_length_c   26.59758265
_cell_angle_alpha   90.00187014
_cell_angle_beta   90.00150496
_cell_angle_gamma   111.78573602
_symmetry_Int_Tables_number   1
_chemical_formula_structural   CdH18C24S2N2O5
_chemical_formula_sum   'Cd4 H72 C96 S8 N8 O20'
_cell_volume   2862.23508131
_cell_formula_units_Z   4
loop_
 _symmetry_equiv_pos_site_id
 _symmetry_equiv_pos_as_xyz
  1  'x, y, z'
loop_
 _atom_site_type_symbol
 _atom_site_label
 _atom_site_symmetry_multiplicity
 _atom_site_fract_x
 _atom_site_fract_y
 _atom_site_fract_z
 _atom_site_occupancy
 _atom_site_pbe_bader_charge
 _atom_site_pbe_bader_spin_density
 _atom_site_pbe_cm5_charge
 _atom_site_pbe_ddec_charge
 _atom_site_pbe_ddec_spin_density
 _atom_site_pbe_ddec_sum_bond_order
 _atom_site_pbe_magmom
Cd  Cd0  1  0.74604130  0.64807275  0.08870813  1  1.24137  0  0.775504  0.851783  0  2.125365  0
Cd  Cd1  1  0.75397402  0.35192872  0.58870852  1  1.241634  0  0.775507  0.851815  0  2.125531  0
Cd  Cd2  1  0.25398019  0.35193352  0.91129286  1  1.241428  0  0.775482  0.851844  0  2.125296  0
Cd  Cd3  1  0.24599164  0.64804399  0.41129209  1  1.241323  0  0.775529  0.851778  0  2.125714  0
H  H4  1  0.46781641  0.69394128  0.22423198  1  0.123467  0  0.106448  0.110114  0  1.018648  0
H  H5  1  0.03222525  0.30609527  0.72423851  1  0.122965  0  0.106409  0.109959  0  1.018811  0
H  H6  1  0.53220440  0.30606060  0.77576487  1  0.12343  0  0.106481  0.110132  0  1.018693  0
H  H7  1  0.96780726  0.69390986  0.27577713  1  0.123517  0  0.106407  0.110043  0  1.018667  0
H  H8  1  0.38661521  0.78669824  0.29666424  1  0.132386  0  0.098365  0.106109  0  1.026671  0
H  H9  1  0.11342935  0.21334649  0.79667055  1  0.131698  0  0.098501  0.106347  0  1.026747  0
H  H10  1  0.61342761  0.21330657  0.70333787  1  0.132224  0  0.09838  0.106166  0  1.026713  0
H  H11  1  0.88660746  0.78665364  0.20333946  1  0.132036  0  0.098351  0.106195  0  1.026549  0
H  H12  1  0.45425715  0.00905389  0.29752459  1  0.071569  0  0.092727  0.085368  0  1.038987  0
H  H13  1  0.04578454  0.99099157  0.79752690  1  0.073346  0  0.092833  0.085465  0  1.03904  0
H  H14  1  0.54580340  0.99095362  0.70247790  1  0.07269  0  0.092681  0.085223  0  1.039246  0
H  H15  1  0.95423560  0.00900590  0.20248161  1  0.072561  0  0.092848  0.085532  0  1.039077  0
H  H16  1  0.60308072  0.13308980  0.22828802  1  0.115609  0  0.093041  0.097125  0  1.064368  0
H  H17  1  0.89695739  0.86694713  0.72828896  1  0.116193  0  0.093002  0.097075  0  1.064284  0
H  H18  1  0.39697099  0.86691374  0.77171334  1  0.115847  0  0.093024  0.097171  0  1.06445  0
H  H19  1  0.10305351  0.13305071  0.27171841  1  0.116249  0  0.093008  0.097088  0  1.064225  0
H  H20  1  0.87130772  0.17044976  0.22551052  1  0.085102  0  0.092168  0.095745  0  1.062134  0
H  H21  1  0.62874055  0.82957021  0.72552310  1  0.084661  0  0.092182  0.095752  0  1.06198  0
H  H22  1  0.12870682  0.82953869  0.77448106  1  0.085336  0  0.092149  0.09584  0  1.062116  0
H  H23  1  0.37127638  0.17042971  0.27448428  1  0.084796  0  0.092229  0.095794  0  1.06199  0
H  H24  1  0.04822351  0.28920553  0.29044382  1  0.101158  0  0.08731  0.079077  0  1.076921  0
H  H25  1  0.45182607  0.71080876  0.79045299  1  0.101025  0  0.087394  0.07919  0  1.076781  0
H  H26  1  0.95180149  0.71076429  0.70954325  1  0.101519  0  0.087281  0.079048  0  1.076757  0
H  H27  1  0.54818553  0.28919086  0.20955137  1  0.101099  0  0.087366  0.079122  0  1.076669  0
H  H28  1  0.14775784  0.51160196  0.28723373  1  0.079352  0  0.099607  0.105654  0  1.029935  0
H  H29  1  0.35229111  0.48841047  0.78722679  1  0.079785  0  0.099622  0.105659  0  1.029819  0
H  H30  1  0.85222418  0.48836727  0.71276951  1  0.079391  0  0.099601  0.105636  0  1.029825  0
H  H31  1  0.64775031  0.51159077  0.21278472  1  0.079224  0  0.0997  0.105716  0  1.029802  0
H  H32  1  0.06458680  0.61327656  0.21807199  1  0.101261  0  0.105927  0.108935  0  1.018084  0
H  H33  1  0.43545016  0.38674474  0.71805490  1  0.101262  0  0.10597  0.109071  0  1.018073  0
H  H34  1  0.93536667  0.38670771  0.78194516  1  0.101098  0  0.105963  0.109019  0  1.01814  0
H  H35  1  0.56459194  0.61326091  0.28195511  1  0.10166  0  0.105982  0.109008  0  1.017927  0
H  H36  1  0.60972967  0.39959419  0.02709619  1  0.123685  0  0.121739  0.101776  0  0.974762  0
H  H37  1  0.89031461  0.60038279  0.52709460  1  0.123178  0  0.121773  0.101739  0  0.974827  0
H  H38  1  0.39028536  0.60041958  0.97290518  1  0.123518  0  0.121713  0.101811  0  0.974742  0
H  H39  1  0.10967519  0.39959035  0.47290112  1  0.12312  0  0.121824  0.101806  0  0.974653  0
H  H40  1  0.65962155  0.30062600  0.95088635  1  0.126234  0  0.114152  0.130971  0  0.979954  0
H  H41  1  0.84037138  0.69936465  0.45090327  1  0.126435  0  0.114226  0.13103  0  0.980064  0
H  H42  1  0.34033577  0.69940819  0.04909884  1  0.125437  0  0.114115  0.130777  0  0.980121  0
H  H43  1  0.15956012  0.30065681  0.54911727  1  0.126665  0  0.114253  0.131061  0  0.979778  0
H  H44  1  0.88200310  0.41603091  0.89635827  1  0.131586  0  0.114126  0.12032  0  1.001963  0
H  H45  1  0.61794013  0.58397741  0.39638459  1  0.131779  0  0.114099  0.120381  0  1.00184  0
H  H46  1  0.11793854  0.58400855  0.10362090  1  0.131047  0  0.114092  0.120409  0  1.001927  0
H  H47  1  0.38198128  0.41606094  0.60363444  1  0.13212  0  0.114172  0.120463  0  1.001788  0
H  H48  1  0.03872260  0.62445239  0.92010140  1  0.098339  0  0.102169  0.105587  0  1.06034  0
H  H49  1  0.46123029  0.37555748  0.42011747  1  0.098383  0  0.102198  0.105558  0  1.060238  0
H  H50  1  0.96126003  0.37557184  0.07988717  1  0.098481  0  0.102203  0.105627  0  1.060343  0
H  H51  1  0.53872855  0.62446459  0.57988050  1  0.099477  0  0.102207  0.105757  0  1.060153  0
H  H52  1  0.16708069  0.78577686  0.94516006  1  0.114516  0  0.09437  0.09375  0  1.09371  0
H  H53  1  0.33287403  0.21424249  0.44517052  1  0.115439  0  0.094299  0.093775  0  1.093685  0
H  H54  1  0.83295787  0.21422772  0.05484807  1  0.114171  0  0.094358  0.093786  0  1.093617  0
H  H55  1  0.66711923  0.78574218  0.55481543  1  0.11513  0  0.094306  0.093748  0  1.093673  0
H  H56  1  0.31193619  0.98817681  0.97738995  1  0.113893  0  0.109159  0.106844  0  1.000727  0
H  H57  1  0.18801248  0.01184045  0.47739160  1  0.109953  0  0.109204  0.106984  0  1.000852  0
H  H58  1  0.68807999  0.01182655  0.02262156  1  0.11416  0  0.10913  0.106852  0  1.000673  0
H  H59  1  0.81195874  0.98814652  0.52259548  1  0.110555  0  0.109253  0.106984  0  1.000687  0
H  H60  1  0.22296068  0.05969009  0.05625917  1  0.107465  0  0.112424  0.114107  0  0.988953  0
H  H61  1  0.27698741  0.94031424  0.55625297  1  0.108282  0  0.112344  0.11397  0  0.989185  0
H  H62  1  0.77702351  0.94031678  0.94374519  1  0.107957  0  0.112382  0.11407  0  0.988956  0
H  H63  1  0.72297530  0.05966965  0.44373410  1  0.108319  0  0.112358  0.113967  0  0.989052  0
H  H64  1  0.98215780  0.92390151  0.09571885  1  0.16299  0  0.121536  0.101035  0  0.995395  0
H  H65  1  0.51780986  0.07608796  0.59571599  1  0.163273  0  0.121529  0.101075  0  0.9954  0
H  H66  1  0.01781256  0.07610199  0.90427687  1  0.162806  0  0.121552  0.101051  0  0.995339  0
H  H67  1  0.48215188  0.92388541  0.40427334  1  0.162541  0  0.121602  0.101162  0  0.995406  0
H  H68  1  0.65757137  0.81247385  0.05437428  1  0.645194  0  0.277249  0.362869  0  0.993094  0
H  H69  1  0.84242765  0.18753106  0.55436696  1  0.645151  0  0.277272  0.36295  0  0.992952  0
H  H70  1  0.34241780  0.18753241  0.94562069  1  0.644991  0  0.277272  0.362935  0  0.993031  0
H  H71  1  0.15755813  0.81245582  0.44562839  1  0.644377  0  0.277274  0.362838  0  0.9931  0
H  H72  1  0.69594828  0.78042009  0.00064053  1  0.576772  0  0.300395  0.375011  0  0.929237  0
H  H73  1  0.80401229  0.21957259  0.50063718  1  0.576485  0  0.300354  0.374903  0  0.92937  0
H  H74  1  0.30404408  0.21958635  0.99935557  1  0.576808  0  0.300373  0.375012  0  0.929287  0
H  H75  1  0.19596273  0.78042680  0.49936042  1  0.576726  0  0.300375  0.374939  0  0.929353  0
C  C76  1  0.63707236  0.80032764  0.14616344  1  1.535909  0  0.197253  0.560721  0  4.197524  0
C  C77  1  0.86295886  0.19969540  0.64616591  1  1.536175  0  0.197399  0.561275  0  4.197118  0
C  C78  1  0.36294032  0.19966943  0.85383378  1  1.53585  0  0.197263  0.560792  0  4.197393  0
C  C79  1  0.13705550  0.80031397  0.35384523  1  1.536585  0  0.197362  0.561177  0  4.196858  0
C  C80  1  0.58385623  0.85949647  0.18674012  1  0.016898  0  -0.0273  -0.093027  0  3.965998  0
C  C81  1  0.91617789  0.14053741  0.68674586  1  0.015873  0  -0.02741  -0.093366  0  3.965728  0
C  C82  1  0.41616672  0.14050552  0.81325598  1  0.010328  0  -0.027451  -0.093324  0  3.966104  0
C  C83  1  0.08385030  0.85947533  0.31326528  1  0.015779  0  -0.027267  -0.093011  0  3.96566  0
C  C84  1  0.49675924  0.79021099  0.22601141  1  -0.010872  0  -0.079475  -0.07295  0  3.958033  0
C  C85  1  0.00328452  0.20982572  0.72601655  1  -0.010202  0  -0.079285  -0.07245  0  3.957645  0
C  C86  1  0.50327115  0.20979402  0.77398807  1  -0.004383  0  -0.079413  -0.072779  0  3.957752  0
C  C87  1  0.99674692  0.79017935  0.27399534  1  -0.011163  0  -0.079373  -0.072795  0  3.958201  0
C  C88  1  0.45020001  0.84231284  0.26595269  1  -0.121338  0  -0.095642  -0.088976  0  3.989068  0
C  C89  1  0.04984600  0.15772766  0.76595772  1  -0.121613  0  -0.095881  -0.089428  0  3.989307  0
C  C90  1  0.54984885  0.15769143  0.73404905  1  -0.121368  0  -0.095627  -0.089113  0  3.988967  0
C  C91  1  0.95018653  0.84227484  0.23405229  1  -0.120979  0  -0.095704  -0.089104  0  3.989704  0
C  C92  1  0.48916324  0.96621204  0.26640875  1  -0.088082  0  -0.08597  -0.049541  0  3.985189  0
C  C93  1  0.01088559  0.03383037  0.76640889  1  -0.088714  0  -0.085992  -0.049492  0  3.98585  0
C  C94  1  0.51089555  0.03379364  0.73359374  1  -0.089346  0  -0.085917  -0.049187  0  3.985183  0
C  C95  1  0.98913634  0.96616633  0.23359811  1  -0.087325  0  -0.086003  -0.04969  0  3.986051  0
C  C96  1  0.57348685  0.03668795  0.22742859  1  -0.019588  0  -0.102049  -0.145889  0  3.998073  0
C  C97  1  0.92655730  0.96335104  0.72742794  1  -0.020476  0  -0.10197  -0.145819  0  3.998436  0
C  C98  1  0.42656342  0.96331726  0.77257277  1  -0.01969  0  -0.102185  -0.14637  0  3.998561  0
C  C99  1  0.07346352  0.03665084  0.27257906  1  -0.021193  0  -0.101833  -0.145652  0  3.998075  0
C  C100  1  0.62258125  0.98510235  0.18731162  1  -0.196769  0  -0.007163  0.053237  0  3.976774  0
C  C101  1  0.87744544  0.01492590  0.68731318  1  -0.195942  0  -0.007153  0.053284  0  3.976861  0
C  C102  1  0.37745200  0.01489932  0.81268561  1  -0.196349  0  -0.006987  0.053697  0  3.976387  0
C  C103  1  0.12257675  0.98508215  0.31269382  1  -0.196258  0  -0.007387  0.05299  0  3.97688  0
C  C104  1  0.85841466  0.32432247  0.18721317  1  -0.195743  0  -0.00911  0.047755  0  3.97845  0
C  C105  1  0.64160564  0.67570543  0.68721198  1  -0.197012  0  -0.009024  0.047642  0  3.978307  0
C  C106  1  0.14157923  0.67567183  0.81278405  1  -0.196174  0  -0.009041  0.048034  0  3.978515  0
C  C107  1  0.35840589  0.32430205  0.31279126  1  -0.195643  0  -0.008971  0.047846  0  3.978239  0
C  C108  1  0.91201014  0.26765562  0.22424734  1  -0.001795  0  -0.102882  -0.14791  0  4.00157  0
C  C109  1  0.58802466  0.73236445  0.72425560  1  -0.001194  0  -0.103009  -0.147953  0  4.001409  0
C  C110  1  0.08799625  0.73233064  0.77574537  1  -0.001391  0  -0.103055  -0.148443  0  4.001552  0
C  C111  1  0.41198764  0.26763696  0.27575028  1  -0.002291  0  -0.103038  -0.1481  0  4.001476  0
C  C112  1  0.01387551  0.33470912  0.26027052  1  -0.193282  0  -0.086279  -0.043134  0  3.974001  0
C  C113  1  0.48615951  0.66530271  0.76027457  1  -0.082365  0  -0.086277  -0.043182  0  3.973781  0
C  C114  1  0.98613597  0.66526345  0.73972181  1  -0.193128  0  -0.086007  -0.042836  0  3.973574  0
C  C115  1  0.51385635  0.33469715  0.23973055  1  -0.08229  0  -0.086202  -0.042976  0  3.973519  0
C  C116  1  0.07019657  0.45942849  0.25864916  1  0.123817  0  -0.092893  -0.079552  0  3.983877  0
C  C117  1  0.42984309  0.54058443  0.75864300  1  0.011926  0  -0.092833  -0.079485  0  3.98364  0
C  C118  1  0.92979323  0.54054466  0.74135295  1  0.123648  0  -0.092993  -0.079504  0  3.983651  0
C  C119  1  0.57018556  0.45941612  0.24136626  1  0.012904  0  -0.092968  -0.079751  0  3.983712  0
C  C120  1  0.02209296  0.51621173  0.22091312  1  -0.077376  0  -0.082195  -0.082164  0  3.970207  0
C  C121  1  0.47794216  0.48381041  0.72090114  1  -0.074978  0  -0.08225  -0.08239  0  3.970137  0
C  C122  1  0.97788858  0.48377231  0.77909652  1  -0.077256  0  -0.082244  -0.08231  0  3.970077  0
C  C123  1  0.52208255  0.51619342  0.27910624  1  -0.076312  0  -0.082281  -0.082078  0  3.969757  0
C  C124  1  0.91333993  0.45066218  0.18592531  1  -0.014103  0  -0.027767  -0.092304  0  3.980289  0
C  C125  1  0.58668498  0.54936944  0.68591503  1  -0.014785  0  -0.027812  -0.092095  0  3.980039  0
C  C126  1  0.08665182  0.54933201  0.81407982  1  -0.014412  0  -0.027724  -0.092236  0  3.980032  0
C  C127  1  0.41333012  0.45063649  0.31408896  1  -0.01455  0  -0.027854  -0.09232  0  3.980216  0
C  C128  1  0.85374489  0.51768765  0.15059246  1  1.500678  0  0.18258  0.541403  0  4.243421  0
C  C129  1  0.64627693  0.48234373  0.65057979  1  1.501395  0  0.182377  0.54111  0  4.243569  0
C  C130  1  0.14624374  0.48229852  0.84941078  1  1.500618  0  0.182536  0.541249  0  4.243548  0
C  C131  1  0.35371474  0.51766092  0.34941593  1  1.501327  0  0.182422  0.540995  0  4.243622  0
C  C132  1  0.70277471  0.44715571  0.00218805  1  0.453141  0  0.054174  0.10653  0  3.944083  0
C  C133  1  0.79724093  0.55283127  0.50219295  1  0.453966  0  0.054224  0.106764  0  3.944271  0
C  C134  1  0.29722574  0.55286076  0.99780768  1  0.455173  0  0.054125  0.106419  0  3.944514  0
C  C135  1  0.20272851  0.44715647  0.49780765  1  0.454126  0  0.054125  0.1066  0  3.944452  0
C  C136  1  0.73233724  0.39189254  0.95972891  1  -0.013571  0  -0.073883  -0.107786  0  3.933436  0
C  C137  1  0.76765474  0.60810179  0.45974427  1  -0.012258  0  -0.074025  -0.108004  0  3.934297  0
C  C138  1  0.26763360  0.60813890  0.04025816  1  -0.01173  0  -0.073925  -0.107561  0  3.933738  0
C  C139  1  0.23228606  0.39191145  0.54027025  1  -0.014115  0  -0.073963  -0.107876  0  3.933814  0
C  C140  1  0.85428023  0.45646020  0.92966595  1  -0.021058  0  -0.058766  -0.010152  0  3.915012  0
C  C141  1  0.64568712  0.54354596  0.42968523  1  -0.02253  0  -0.058609  -0.010259  0  3.915188  0
C  C142  1  0.14568527  0.54357357  0.07031962  1  -0.022307  0  -0.05864  -0.010406  0  3.915109  0
C  C143  1  0.35424824  0.45648007  0.57032816  1  -0.020476  0  -0.058689  -0.010161  0  3.914946  0
C  C144  1  0.94239513  0.57337618  0.94310301  1  -0.005055  0  -0.076333  -0.142162  0  3.899671  0
C  C145  1  0.55757296  0.42663298  0.44311677  1  -0.004693  0  -0.076278  -0.14164  0  3.899323  0
C  C146  1  0.05759637  0.42664940  0.05688632  1  -0.005557  0  -0.076254  -0.141819  0  3.899623  0
C  C147  1  0.44238667  0.57338040  0.55688384  1  -0.006156  0  -0.076311  -0.142081  0  3.899501  0
C  C148  1  0.90603682  0.62351172  0.98632288  1  0.499367  0  0.115653  0.161316  0  3.985626  0
C  C149  1  0.59395168  0.37648661  0.48632845  1  0.499398  0  0.115391  0.16069  0  3.985622  0
C  C150  1  0.09397182  0.37650170  0.01367360  1  0.499885  0  0.115616  0.161107  0  3.985732  0
C  C151  1  0.40602273  0.62350053  0.51366389  1  0.498856  0  0.115261  0.160763  0  3.986277  0
C  C152  1  0.99741760  0.74688201  0.00341462  1  0.399287  0  0.11787  0.162647  0  3.990504  0
C  C153  1  0.50256023  0.25312041  0.50341999  1  0.400333  0  0.117976  0.162748  0  3.99065  0
C  C154  1  0.00259431  0.25312375  0.99658486  1  0.399192  0  0.117938  0.162732  0  3.990477  0
C  C155  1  0.49742490  0.74685946  0.49657010  1  0.398963  0  0.118147  0.16261  0  3.991397  0
C  C156  1  0.12841966  0.81831486  0.97848669  1  0.01639  0  -0.080062  -0.148805  0  3.933504  0
C  C157  1  0.37154144  0.18169962  0.47849431  1  0.014676  0  -0.08005  -0.148862  0  3.933928  0
C  C158  1  0.87159866  0.18168863  0.02151731  1  0.016868  0  -0.080047  -0.148697  0  3.933345  0
C  C159  1  0.62845469  0.81828172  0.52149014  1  0.015436  0  -0.080075  -0.148871  0  3.934149  0
C  C160  1  0.21065496  0.93198233  0.99694026  1  -0.025352  0  -0.063194  -0.016253  0  3.954079  0
C  C161  1  0.28930752  0.06802922  0.49694145  1  -0.02224  0  -0.063299  -0.016709  0  3.954451  0
C  C162  1  0.78935231  0.06802491  0.00306448  1  -0.025806  0  -0.063256  -0.016518  0  3.954263  0
C  C163  1  0.71067969  0.93195600  0.50304036  1  -0.021778  0  -0.063382  -0.016587  0  3.954205  0
C  C164  1  0.16090921  0.97223788  0.03995242  1  -0.084389  0  -0.081477  -0.130931  0  3.973028  0
C  C165  1  0.33904641  0.02776032  0.53995075  1  -0.084977  0  -0.081313  -0.130371  0  3.972702  0
C  C166  1  0.83907959  0.02777011  0.96004856  1  -0.084719  0  -0.081354  -0.13069  0  3.972967  0
C  C167  1  0.66092135  0.97221511  0.46003182  1  -0.079486  0  -0.081215  -0.130345  0  3.972809  0
C  C168  1  0.02891896  0.89705364  0.06260695  1  0.481787  0  0.05555  0.112309  0  3.934962  0
C  C169  1  0.47104719  0.10294137  0.56260673  1  0.481892  0  0.055508  0.112023  0  3.934876  0
C  C170  1  0.97106701  0.10295245  0.93739103  1  0.482085  0  0.055499  0.112169  0  3.934994  0
C  C171  1  0.52892349  0.89702550  0.43737847  1  0.476532  0  0.05523  0.11177  0  3.935091  0
S  S172  1  0.71891331  0.24040506  0.14305430  1  0.041405  0  0.024196  -0.01537  0  2.903126  0
S  S173  1  0.78110340  0.75962061  0.64305456  1  0.041466  0  0.024048  -0.015503  0  2.903183  0
S  S174  1  0.28108877  0.75958620  0.85694293  1  0.041153  0  0.024195  -0.015419  0  2.903203  0
S  S175  1  0.21890355  0.24038313  0.35694830  1  0.041061  0  0.024099  -0.015526  0  2.903085  0
S  S176  1  0.73693835  0.07427653  0.13831081  1  0.066217  0  0.012172  -0.030654  0  2.929177  0
S  S177  1  0.76308452  0.92574847  0.63831297  1  0.065797  0  0.012184  -0.03059  0  2.929508  0
S  S178  1  0.26307897  0.92571904  0.86168416  1  0.066028  0  0.012107  -0.030788  0  2.929082  0
S  S179  1  0.23695180  0.07426907  0.36169102  1  0.066228  0  0.01223  -0.030483  0  2.929332  0
N  N180  1  0.78647499  0.55993327  0.01485125  1  -1.234524  0  -0.326337  -0.280551  0  3.51947  0
N  N181  1  0.71353503  0.44005374  0.51485385  1  -1.235483  0  -0.32643  -0.280547  0  3.519435  0
N  N182  1  0.21354469  0.44007639  0.98514861  1  -1.235851  0  -0.326342  -0.280583  0  3.51983  0
N  N183  1  0.28644123  0.55992478  0.48513961  1  -1.235865  0  -0.3263  -0.280493  0  3.520067  0
N  N184  1  0.94997754  0.78771292  0.04471753  1  -1.235241  0  -0.327086  -0.28413  0  3.514444  0
N  N185  1  0.55000229  0.21227673  0.54471856  1  -1.235393  0  -0.327023  -0.283946  0  3.514375  0
N  N186  1  0.05002015  0.21229380  0.95527857  1  -1.235236  0  -0.32711  -0.284139  0  3.514344  0
N  N187  1  0.44997584  0.78769054  0.45526926  1  -1.234385  0  -0.327035  -0.283747  0  3.514289  0
O  O188  1  0.59730364  0.68633241  0.14596766  1  -1.156191  0  -0.32642  -0.523538  0  2.196065  0
O  O189  1  0.90272122  0.31368767  0.64596955  1  -1.156837  0  -0.326587  -0.523949  0  2.195977  0
O  O190  1  0.40271012  0.31366472  0.85403220  1  -1.15618  0  -0.326431  -0.523644  0  2.195999  0
O  O191  1  0.09724986  0.68631499  0.35404685  1  -1.15679  0  -0.326608  -0.523893  0  2.196063  0
O  O192  1  0.72437982  0.86702036  0.11267347  1  -1.171307  0  -0.31397  -0.554555  0  2.28056  0
O  O193  1  0.77565401  0.13299584  0.61267160  1  -1.170574  0  -0.313982  -0.554751  0  2.280498  0
O  O194  1  0.27563576  0.13297076  0.88732376  1  -1.171091  0  -0.313948  -0.554482  0  2.280447  0
O  O195  1  0.22437566  0.86701001  0.38733390  1  -1.171305  0  -0.313959  -0.554766  0  2.280463  0
O  O196  1  0.92303878  0.63058747  0.14585167  1  -1.151091  0  -0.337842  -0.558738  0  2.189805  0
O  O197  1  0.57696609  0.36944549  0.64582988  1  -1.151913  0  -0.337748  -0.558649  0  2.18966  0
O  O198  1  0.07694913  0.36939954  0.85415609  1  -1.151497  0  -0.337875  -0.558726  0  2.189548  0
O  O199  1  0.42300888  0.63055913  0.35416208  1  -1.151867  0  -0.337818  -0.558662  0  2.189945  0
O  O200  1  0.73257517  0.46042173  0.12663708  1  -1.139745  0  -0.323342  -0.537148  0  2.206002  0
O  O201  1  0.76746214  0.53960724  0.62663835  1  -1.139595  0  -0.323235  -0.536965  0  2.206081  0
O  O202  1  0.26742909  0.53956442  0.87335752  1  -1.13948  0  -0.323271  -0.537052  0  2.206471  0
O  O203  1  0.23252142  0.46038999  0.37335399  1  -1.13953  0  -0.323195  -0.536879  0  2.206118  0
O  O204  1  0.61496352  0.75847692  0.02505545  1  -1.23036  0  -0.590409  -0.761888  0  1.98027  0
O  O205  1  0.88502103  0.24151247  0.52504549  1  -1.230077  0  -0.590418  -0.761916  0  1.980296  0
O  O206  1  0.38502922  0.24152779  0.97494064  1  -1.230182  0  -0.59042  -0.762002  0  1.980206  0
O  O207  1  0.11495762  0.75847752  0.47495061  1  -1.229547  0  -0.590436  -0.761793  0  1.980515  0
