# generated using pymatgen
data_Zn4H6C18O13
_symmetry_space_group_name_H-M   'P 1'
_cell_length_a   17.19154922
_cell_length_b   17.20836069
_cell_length_c   22.63016471
_cell_angle_alpha   89.95045521
_cell_angle_beta   89.94887539
_cell_angle_gamma   82.27460669
_symmetry_Int_Tables_number   1
_chemical_formula_structural   Zn4H6C18O13
_chemical_formula_sum   'Zn16 H24 C72 O52'
_cell_volume   6634.10222265
_cell_formula_units_Z   4
loop_
 _symmetry_equiv_pos_site_id
 _symmetry_equiv_pos_as_xyz
  1  'x, y, z'
loop_
 _atom_site_type_symbol
 _atom_site_label
 _atom_site_symmetry_multiplicity
 _atom_site_fract_x
 _atom_site_fract_y
 _atom_site_fract_z
 _atom_site_occupancy
 _atom_site_pbe_bader_charge
 _atom_site_pbe_bader_spin_density
 _atom_site_pbe_cm5_charge
 _atom_site_pbe_ddec_charge
 _atom_site_pbe_ddec_spin_density
 _atom_site_pbe_ddec_sum_bond_order
 _atom_site_pbe_magmom
Zn  Zn0  1  0.90588022  0.50534196  0.79986975  1  1.315556  0  0.673565  0.960204  0  2.375394  0
Zn  Zn1  1  0.00417398  0.40501391  0.29976734  1  1.31701  0  0.674797  0.964532  0  2.356802  0
Zn  Zn2  1  0.00441563  0.40489693  0.70039186  1  1.316302  0  0.674844  0.965087  0  2.356622  0
Zn  Zn3  1  0.99575331  0.59495084  0.29971935  1  1.316113  0  0.674779  0.964576  0  2.357716  0
Zn  Zn4  1  0.49582517  0.09498551  0.20023237  1  1.317022  0  0.674782  0.964495  0  2.35678  0
Zn  Zn5  1  0.50534727  0.90599090  0.79993957  1  1.315454  0  0.67373  0.960242  0  2.375503  0
Zn  Zn6  1  0.50424507  0.90504860  0.20028084  1  1.316114  0  0.674742  0.964512  0  2.357806  0
Zn  Zn7  1  0.49558414  0.09510308  0.79960812  1  1.316289  0  0.674829  0.965051  0  2.356648  0
Zn  Zn8  1  0.09426518  0.49449473  0.20023794  1  1.31525  0  0.673257  0.959786  0  2.374527  0
Zn  Zn9  1  0.09520333  0.49559165  0.79954007  1  1.317443  0  0.674941  0.965135  0  2.356826  0
Zn  Zn10  1  0.90577616  0.50557755  0.20028720  1  1.314608  0  0.673453  0.959749  0  2.37506  0
Zn  Zn11  1  0.40573441  0.00550587  0.29976221  1  1.314968  0  0.673254  0.959814  0  2.374502  0
Zn  Zn12  1  0.59411985  0.99465865  0.70013026  1  1.315563  0  0.673563  0.960198  0  2.375383  0
Zn  Zn13  1  0.59422338  0.99442188  0.29971255  1  1.314621  0  0.67349  0.95983  0  2.375035  0
Zn  Zn14  1  0.40479594  0.00440778  0.70046034  1  1.31744  0  0.674929  0.96509  0  2.356869  0
Zn  Zn15  1  0.99465180  0.59400854  0.70006043  1  1.315442  0  0.673715  0.960201  0  2.375528  0
H  H16  1  0.24342214  0.69095833  0.34817383  1  0.061358  0  0.102724  0.089679  0  0.988242  0
H  H17  1  0.88091889  0.18456715  0.77630383  1  0.086328  0  0.102566  0.089378  0  0.988786  0
H  H18  1  0.88095192  0.18455723  0.22369713  1  0.08606  0  0.102503  0.089312  0  0.988496  0
H  H19  1  0.14599299  0.79101926  0.67755638  1  0.069586  0  0.104189  0.095303  0  0.986397  0
H  H20  1  0.61908136  0.31543251  0.72369796  1  0.086346  0  0.102596  0.089416  0  0.988754  0
H  H21  1  0.38091665  0.68456868  0.27630411  1  0.086405  0  0.102602  0.08943  0  0.988717  0
H  H22  1  0.35400683  0.70897995  0.82244402  1  0.070045  0  0.104181  0.0953  0  0.986453  0
H  H23  1  0.61904772  0.31544184  0.27630263  1  0.086065  0  0.102506  0.089303  0  0.988503  0
H  H24  1  0.70887500  0.35386620  0.82246884  1  0.070083  0  0.104126  0.09522  0  0.986632  0
H  H25  1  0.29112580  0.64613147  0.17753367  1  0.070008  0  0.104084  0.095138  0  0.986672  0
H  H26  1  0.19098209  0.74347643  0.84820870  1  0.060857  0  0.10269  0.089744  0  0.987856  0
H  H27  1  0.75657544  0.30904169  0.65182868  1  0.061377  0  0.102706  0.089621  0  0.988254  0
H  H28  1  0.70904558  0.35401540  0.17754405  1  0.06861  0  0.103948  0.095101  0  0.986317  0
H  H29  1  0.20887252  0.85386949  0.32246779  1  0.070053  0  0.10406  0.095128  0  0.986678  0
H  H30  1  0.79112533  0.14613287  0.67753207  1  0.070101  0  0.104112  0.095193  0  0.986654  0
H  H31  1  0.79095414  0.14598309  0.32245571  1  0.068584  0  0.103932  0.095087  0  0.986316  0
H  H32  1  0.30901715  0.75652278  0.65179170  1  0.060868  0  0.102681  0.089718  0  0.987867  0
H  H33  1  0.75643017  0.30884507  0.34817352  1  0.0618  0  0.102682  0.089848  0  0.988444  0
H  H34  1  0.31549108  0.61919272  0.72372833  1  0.088073  0  0.102552  0.089475  0  0.988436  0
H  H35  1  0.74342489  0.19095738  0.84817312  1  0.061322  0  0.102703  0.089635  0  0.988213  0
H  H36  1  0.25657684  0.80904204  0.15182718  1  0.061398  0  0.102715  0.089649  0  0.988214  0
H  H37  1  0.18450816  0.88080649  0.77627206  1  0.088082  0  0.102559  0.089483  0  0.988449  0
H  H38  1  0.74357014  0.19115341  0.15182624  1  0.061773  0  0.102701  0.089898  0  0.988384  0
H  H39  1  0.11908225  0.81543228  0.22369691  1  0.086372  0  0.102602  0.089428  0  0.988756  0
C  C40  1  0.13996011  0.64090861  0.74958547  1  1.521171  0  0.229254  0.608913  0  4.172414  0
C  C41  1  0.77687003  0.72323589  0.25007776  1  -0.29753  0  -0.014838  -0.107424  0  3.910607  0
C  C42  1  0.77680148  0.72316981  0.75003046  1  -0.299847  0  -0.014476  -0.106726  0  3.911479  0
C  C43  1  0.22312420  0.27676235  0.25007199  1  0.176335  0  -0.014727  -0.107367  0  3.910369  0
C  C44  1  0.72312877  0.77676472  0.24992154  1  0.175657  0  -0.014666  -0.107125  0  3.910545  0
C  C45  1  0.27680921  0.22316276  0.74997145  1  0.177438  0  -0.015037  -0.107658  0  3.910279  0
C  C46  1  0.27687220  0.22323591  0.24992595  1  -0.29781  0  -0.01464  -0.107341  0  3.910386  0
C  C47  1  0.72319860  0.77683080  0.74996955  1  0.17661  0  -0.014375  -0.106545  0  3.911561  0
C  C48  1  0.00006035  0.49982109  0.52676027  1  -0.245916  0  -0.014136  -0.106482  0  3.910194  0
C  C49  1  0.00002647  0.49992350  0.47310927  1  -0.005236  0  -0.014752  -0.107635  0  3.909714  0
C  C50  1  0.49997385  0.00007592  0.02689044  1  -0.005229  0  -0.014921  -0.107872  0  3.909774  0
C  C51  1  0.85913849  0.35999176  0.24954962  1  1.520348  0  0.229305  0.609671  0  4.171048  0
C  C52  1  0.49993934  0.00017951  0.97323971  1  -0.245928  0  -0.013966  -0.106207  0  3.910201  0
C  C53  1  0.84080164  0.65916088  0.75002452  1  1.638811  0  0.242005  0.673627  0  4.226376  0
C  C54  1  0.15902122  0.34071758  0.25001704  1  1.640001  0  0.24264  0.676236  0  4.223957  0
C  C55  1  0.15914384  0.34089025  0.75002431  1  1.638899  0  0.242786  0.67646  0  4.223758  0
C  C56  1  0.84097191  0.65928479  0.25001649  1  1.639081  0  0.242564  0.675843  0  4.224987  0
C  C57  1  0.34097669  0.15928243  0.24998179  1  1.639999  0  0.242653  0.676169  0  4.224085  0
C  C58  1  0.65919851  0.84083914  0.74997505  1  1.638827  0  0.241967  0.673512  0  4.226519  0
C  C59  1  0.65902697  0.84071523  0.24998281  1  1.638994  0  0.242386  0.675738  0  4.224998  0
C  C60  1  0.34085550  0.15910859  0.74997478  1  1.638917  0  0.242769  0.676388  0  4.223739  0
C  C61  1  0.99990499  0.49985323  0.59081516  1  1.720251  0  0.240869  0.674151  0  4.225283  0
C  C62  1  0.85910781  0.36001568  0.75045717  1  1.519811  0  0.229394  0.604814  0  4.171861  0
C  C63  1  0.99999091  0.49996495  0.40904925  1  1.713366  0  0.241108  0.675587  0  4.222323  0
C  C64  1  0.50000924  0.00003470  0.09095051  1  1.713323  0  0.24109  0.675549  0  4.222327  0
C  C65  1  0.50009461  0.00014701  0.90918487  1  1.720247  0  0.240849  0.674047  0  4.225384  0
C  C66  1  0.00014077  0.50009101  0.90907680  1  1.714732  0  0.241056  0.675004  0  4.22442  0
C  C67  1  0.00003719  0.50001100  0.09078985  1  1.720554  0  0.240798  0.6727  0  4.226737  0
C  C68  1  0.49996362  0.99998879  0.40921072  1  1.720545  0  0.240797  0.67272  0  4.226789  0
C  C69  1  0.49986014  0.99990878  0.59092316  1  1.714758  0  0.241072  0.674973  0  4.224483  0
C  C70  1  0.00018409  0.49994602  0.97311306  1  -0.005671  0  -0.014711  -0.107165  0  3.910697  0
C  C71  1  0.00008690  0.49998049  0.02675716  1  -0.246502  0  -0.013463  -0.105885  0  3.910316  0
C  C72  1  0.49991335  0.00001952  0.47324299  1  -0.246515  0  -0.013609  -0.106123  0  3.910417  0
C  C73  1  0.14088396  0.63999315  0.24952501  1  1.519661  0  0.229261  0.604775  0  4.172479  0
C  C74  1  0.49981576  0.00005341  0.52688691  1  -0.005674  0  -0.014554  -0.106908  0  3.910611  0
C  C75  1  0.72651497  0.30736676  0.79039473  1  -0.016434  0  -0.076026  -0.070753  0  3.641898  0
C  C76  1  0.27348428  0.69263384  0.20960601  1  -0.01667  0  -0.076044  -0.070665  0  3.642074  0
C  C77  1  0.21788407  0.74709435  0.80463953  1  -0.00592  0  -0.069073  -0.062336  0  3.621837  0
C  C78  1  0.72662271  0.30745208  0.20961581  1  -0.01711  0  -0.075806  -0.066371  0  3.642761  0
C  C79  1  0.22651405  0.80736712  0.29039545  1  -0.016532  0  -0.075985  -0.070638  0  3.641961  0
C  C80  1  0.77348412  0.19263290  0.70960662  1  -0.016404  0  -0.075976  -0.070686  0  3.642015  0
C  C81  1  0.77337643  0.19254640  0.29038439  1  -0.01714  0  -0.075814  -0.066343  0  3.64266  0
C  C82  1  0.28211575  0.75290486  0.69536131  1  -0.005868  0  -0.069089  -0.062293  0  3.621856  0
C  C83  1  0.24705733  0.71787480  0.30462079  1  -0.006753  0  -0.069064  -0.06662  0  3.622068  0
C  C84  1  0.64086298  0.14000672  0.25045058  1  1.520317  0  0.229276  0.609622  0  4.171077  0
C  C85  1  0.75293874  0.28212346  0.69538084  1  -0.006847  0  -0.0691  -0.066542  0  3.62189  0
C  C86  1  0.75284910  0.28200946  0.30462505  1  -0.005471  0  -0.06927  -0.062678  0  3.621926  0
C  C87  1  0.28715674  0.67795436  0.73536927  1  -0.046843  0  -0.069306  -0.061973  0  3.622067  0
C  C88  1  0.74706093  0.21787620  0.80462051  1  -0.006758  0  -0.068971  -0.066406  0  3.62173  0
C  C89  1  0.25294223  0.78212557  0.19538067  1  -0.006795  0  -0.069026  -0.06654  0  3.622057  0
C  C90  1  0.21284250  0.82204485  0.76463113  1  -0.046833  0  -0.069321  -0.062001  0  3.622133  0
C  C91  1  0.74715055  0.21798961  0.19537515  1  -0.005455  0  -0.069281  -0.062719  0  3.622052  0
C  C92  1  0.19858046  0.69665960  0.24902315  1  0.024653  0  -0.007628  -0.012802  0  3.622157  0
C  C93  1  0.80141864  0.30334218  0.75097450  1  0.024891  0  -0.007665  -0.012766  0  3.621898  0
C  C94  1  0.80145552  0.30330849  0.24903205  1  0.025379  0  -0.007754  -0.031978  0  3.654058  0
C  C95  1  0.36003971  0.85909060  0.75041625  1  1.521323  0  0.229298  0.608965  0  4.172471  0
C  C96  1  0.19662543  0.69860684  0.74908009  1  0.023715  0  -0.00778  -0.031276  0  3.654017  0
C  C97  1  0.69858111  0.19665689  0.74902685  1  0.02528  0  -0.007747  -0.012835  0  3.622032  0
C  C98  1  0.30141794  0.80334078  0.25097831  1  0.024632  0  -0.007618  -0.012854  0  3.622082  0
C  C99  1  0.30337381  0.80139237  0.75092075  1  0.023647  0  -0.007814  -0.031278  0  3.654109  0
C  C100  1  0.69854470  0.19669058  0.25096727  1  0.025751  0  -0.007724  -0.031948  0  3.654234  0
C  C101  1  0.17788660  0.78711712  0.23535328  1  -0.043773  0  -0.0695  -0.066574  0  3.622091  0
C  C102  1  0.82211540  0.21288465  0.76464657  1  -0.043809  0  -0.069482  -0.066592  0  3.622115  0
C  C103  1  0.82213066  0.21288587  0.23534373  1  -0.044342  0  -0.069205  -0.061651  0  3.621894  0
C  C104  1  0.19254671  0.77341437  0.70962317  1  -0.01494  0  -0.076087  -0.066958  0  3.643324  0
C  C105  1  0.67788435  0.28711443  0.73535433  1  -0.044159  0  -0.069422  -0.066564  0  3.621989  0
C  C106  1  0.35911502  0.86000722  0.25047601  1  1.519679  0  0.229328  0.604951  0  4.172375  0
C  C107  1  0.32211121  0.71288326  0.26464862  1  -0.043455  0  -0.069502  -0.066566  0  3.62206  0
C  C108  1  0.30745261  0.72658425  0.79037767  1  -0.015425  0  -0.076044  -0.066928  0  3.643379  0
C  C109  1  0.67786899  0.28711320  0.26465559  1  -0.044625  0  -0.06926  -0.061683  0  3.62194  0
C  C110  1  0.64089245  0.13998398  0.74954374  1  1.519789  0  0.229345  0.60469  0  4.172126  0
C  C111  1  0.22319114  0.27683725  0.75002808  1  -0.298996  0  -0.014951  -0.107507  0  3.910236  0
O  O112  1  0.00038843  0.49961034  0.74997290  1  -1.234832  0  -0.569284  -1.038528  0  2.529223  0
O  O113  1  0.34573140  0.91672534  0.71448280  1  -1.182284  0  -0.318452  -0.550359  0  2.315881  0
O  O114  1  0.34651107  0.91817065  0.28589172  1  -1.156472  0  -0.313861  -0.545556  0  2.333073  0
O  O115  1  0.65352375  0.08180290  0.71413244  1  -1.15641  0  -0.313892  -0.545586  0  2.332789  0
O  O116  1  0.89684027  0.66576453  0.71432727  1  -1.131043  0  -0.300735  -0.525864  0  2.273967  0
O  O117  1  0.10280071  0.33409972  0.28552747  1  -1.135634  0  -0.301279  -0.528411  0  2.272012  0
O  O118  1  0.10298829  0.33410901  0.71455386  1  -1.133057  0  -0.300984  -0.527579  0  2.272208  0
O  O119  1  0.89714675  0.66586314  0.28548748  1  -1.134474  0  -0.301019  -0.528195  0  2.27323  0
O  O120  1  0.39719786  0.16589971  0.21447312  1  -1.135593  0  -0.301208  -0.528285  0  2.272058  0
O  O121  1  0.60315930  0.83423549  0.78567274  1  -1.131041  0  -0.300727  -0.525833  0  2.273886  0
O  O122  1  0.60285264  0.83413746  0.21451227  1  -1.134433  0  -0.300904  -0.528116  0  2.273234  0
O  O123  1  0.99998510  0.50001415  0.25037251  1  -1.235266  0  -0.568487  -1.037201  0  2.527967  0
O  O124  1  0.39701213  0.16589042  0.78544655  1  -1.133018  0  -0.301029  -0.527564  0  2.272214  0
O  O125  1  0.99562833  0.56688497  0.61536637  1  -1.138027  0  -0.300268  -0.52566  0  2.27349  0
O  O126  1  0.00394448  0.43305508  0.38440485  1  -1.139346  0  -0.300469  -0.527312  0  2.27152  0
O  O127  1  0.00398347  0.43301806  0.61563826  1  -1.139851  0  -0.300388  -0.527825  0  2.272432  0
O  O128  1  0.99600278  0.56692688  0.38438284  1  -1.137161  0  -0.300308  -0.527222  0  2.271682  0
O  O129  1  0.49605519  0.06694493  0.11559486  1  -1.139313  0  -0.300434  -0.527236  0  2.27149  0
O  O130  1  0.50437167  0.93311623  0.88463364  1  -1.138004  0  -0.300248  -0.525622  0  2.273525  0
O  O131  1  0.50399668  0.93307315  0.11561734  1  -1.137148  0  -0.300316  -0.527218  0  2.271707  0
O  O132  1  0.49601564  0.06698254  0.88436171  1  -1.13987  0  -0.300391  -0.527803  0  2.272446  0
O  O133  1  0.06705017  0.49602276  0.88427541  1  -1.140955  0  -0.300785  -0.528227  0  2.272682  0
O  O134  1  0.50001387  0.99998528  0.24962723  1  -1.235286  0  -0.568486  -1.037225  0  2.527968  0
O  O135  1  0.93300687  0.50439869  0.11549618  1  -1.138286  0  -0.299974  -0.525292  0  2.273656  0
O  O136  1  0.93303836  0.50435167  0.88454761  1  -1.136167  0  -0.299663  -0.525347  0  2.273183  0
O  O137  1  0.06701201  0.49565819  0.11548049  1  -1.138371  0  -0.300411  -0.525938  0  2.274145  0
O  O138  1  0.56699318  0.99560133  0.38450401  1  -1.138303  0  -0.299981  -0.525291  0  2.273637  0
O  O139  1  0.43295049  0.00397490  0.61572500  1  -1.140953  0  -0.300792  -0.528211  0  2.272691  0
O  O140  1  0.43298824  0.00434181  0.38451966  1  -1.138337  0  -0.300416  -0.52595  0  2.274153  0
O  O141  1  0.56696179  0.99564835  0.61545239  1  -1.136189  0  -0.299678  -0.525373  0  2.273233  0
O  O142  1  0.83415665  0.60315666  0.78570447  1  -1.133366  0  -0.300855  -0.52613  0  2.274091  0
O  O143  1  0.16587278  0.39670375  0.21434228  1  -1.131373  0  -0.300619  -0.526083  0  2.273168  0
O  O144  1  0.16596279  0.39701039  0.78547713  1  -1.133157  0  -0.301201  -0.528058  0  2.272098  0
O  O145  1  0.49961142  0.00038909  0.75002707  1  -1.234822  0  -0.569265  -1.038523  0  2.529233  0
O  O146  1  0.83415928  0.60333704  0.21437489  1  -1.130829  0  -0.300836  -0.526083  0  2.273195  0
O  O147  1  0.33412580  0.10329568  0.28565787  1  -1.131093  0  -0.300676  -0.526111  0  2.27317  0
O  O148  1  0.66584300  0.89684277  0.71429553  1  -1.133386  0  -0.300841  -0.526086  0  2.27412  0
O  O149  1  0.66584019  0.89666298  0.28562485  1  -1.130807  0  -0.300836  -0.526147  0  2.273215  0
O  O150  1  0.33403705  0.10298904  0.71452240  1  -1.13321  0  -0.301176  -0.527978  0  2.27201  0
O  O151  1  0.08175256  0.65348616  0.71415328  1  -1.155074  0  -0.313842  -0.544928  0  2.330568  0
O  O152  1  0.91674179  0.34569829  0.28550490  1  -1.1798  0  -0.318614  -0.550733  0  2.315454  0
O  O153  1  0.91677165  0.34575660  0.71450440  1  -1.180377  0  -0.318488  -0.551284  0  2.318959  0
O  O154  1  0.08320813  0.65427688  0.28547866  1  -1.17993  0  -0.318554  -0.551397  0  2.319109  0
O  O155  1  0.58325829  0.15430195  0.21449486  1  -1.17975  0  -0.318613  -0.550739  0  2.315435  0
O  O156  1  0.15426893  0.58327445  0.78551936  1  -1.182224  0  -0.318449  -0.550348  0  2.315769  0
O  O157  1  0.41824676  0.84651246  0.78584800  1  -1.155134  0  -0.31384  -0.544944  0  2.330563  0
O  O158  1  0.41679019  0.84572408  0.21452324  1  -1.179875  0  -0.318546  -0.551392  0  2.31916  0
O  O159  1  0.58322794  0.15424365  0.78549651  1  -1.180406  0  -0.318464  -0.551237  0  2.318964  0
O  O160  1  0.84654084  0.41822816  0.21414389  1  -1.15617  0  -0.313876  -0.545118  0  2.330571  0
O  O161  1  0.84647585  0.41819735  0.78586803  1  -1.156428  0  -0.313908  -0.545631  0  2.332672  0
O  O162  1  0.15348725  0.58183031  0.21410930  1  -1.156408  0  -0.313803  -0.545428  0  2.333129  0
O  O163  1  0.65345815  0.08177150  0.28585632  1  -1.156176  0  -0.313878  -0.545106  0  2.330606  0
