# generated using pymatgen
data_AgH5(C2O)2
_symmetry_space_group_name_H-M   'P 1'
_cell_length_a   6.60189755
_cell_length_b   7.70363007
_cell_length_c   8.81645980
_cell_angle_alpha   90.00128067
_cell_angle_beta   90.00102865
_cell_angle_gamma   103.56674196
_symmetry_Int_Tables_number   1
_chemical_formula_structural   AgH5(C2O)2
_chemical_formula_sum   'Ag4 H20 C16 O8'
_cell_volume   435.88124381
_cell_formula_units_Z   4
loop_
 _symmetry_equiv_pos_site_id
 _symmetry_equiv_pos_as_xyz
  1  'x, y, z'
loop_
 _atom_site_type_symbol
 _atom_site_label
 _atom_site_symmetry_multiplicity
 _atom_site_fract_x
 _atom_site_fract_y
 _atom_site_fract_z
 _atom_site_occupancy
 _atom_site_hle17_bader_spin_density
 _atom_site_hle17_ddec_charge
 _atom_site_hle17_ddec_spin_density
 _atom_site_hle17_ddec_sum_bond_order
 _atom_site_hle17_magmom
 _atom_site_hse06_10hf_bader_spin_density
 _atom_site_hse06_10hf_ddec_charge
 _atom_site_hse06_10hf_ddec_spin_density
 _atom_site_hse06_10hf_ddec_sum_bond_order
 _atom_site_hse06_10hf_magmom
 _atom_site_hse06_bader_spin_density
 _atom_site_hse06_ddec_charge
 _atom_site_hse06_ddec_spin_density
 _atom_site_hse06_ddec_sum_bond_order
 _atom_site_hse06_magmom
 _atom_site_pbe_bader_spin_density
 _atom_site_pbe_cm5_charge
 _atom_site_pbe_ddec_charge
 _atom_site_pbe_ddec_spin_density
 _atom_site_pbe_ddec_sum_bond_order
 _atom_site_pbe_magmom
Ag  Ag0  1  0.04169650  0.51341568  0.15411134  1  0  0.614636  0  1.3909  0  0  0.507885  0  1.832527  0  0  0.542539  0  1.774891  0  0  0.436158  0.48458  0  1.872272  0
Ag  Ag1  1  0.54168423  0.51340203  0.34589581  1  0  0.614517  0  1.391007  0  0  0.507798  0  1.832678  0  0  0.542454  0  1.775031  0  0  0.436145  0.484493  0  1.87243  0
Ag  Ag2  1  0.95832312  0.48658958  0.84589046  1  0  0.61463  0  1.39098  0  0  0.507906  0  1.832607  0  0  0.542565  0  1.774964  0  0  0.436201  0.484607  0  1.872353  0
Ag  Ag3  1  0.45831555  0.48659105  0.65411393  1  0  0.614541  0  1.391069  0  0  0.507831  0  1.832734  0  0  0.542485  0  1.775085  0  0  0.436153  0.484533  0  1.872483  0
H  H4  1  0.46903967  0.83835398  0.81778062  1  0  0.071611  0  0.955287  0  0  0.088833  0  1.020426  0  0  0.090348  0  1.019735  0  0  0.087481  0.087918  0  1.019914  0
H  H5  1  0.96905325  0.83835002  0.68220920  1  0  0.071579  0  0.955365  0  0  0.088798  0  1.0205  0  0  0.090304  0  1.019815  0  0  0.087487  0.087884  0  1.019989  0
H  H6  1  0.53094797  0.16163897  0.18221551  1  0  0.071588  0  0.955313  0  0  0.088838  0  1.020421  0  0  0.090356  0  1.019734  0  0  0.087504  0.087921  0  1.019906  0
H  H7  1  0.03092540  0.16163751  0.31778353  1  0  0.071588  0  0.955212  0  0  0.088817  0  1.020338  0  0  0.09035  0  1.019624  0  0  0.087499  0.087903  0  1.019826  0
H  H8  1  0.30244325  0.69048360  0.94075258  1  0  0.030596  0  1.019757  0  0  0.037118  0  1.118521  0  0  0.039553  0  1.113335  0  0  0.067976  0.034846  0  1.12285  0
H  H9  1  0.80244993  0.69047031  0.55923777  1  0  0.030544  0  1.019712  0  0  0.037036  0  1.11856  0  0  0.039495  0  1.113298  0  0  0.067932  0.034754  0  1.122921  0
H  H10  1  0.69755581  0.30952412  0.05925603  1  0  0.030723  0  1.01967  0  0  0.037227  0  1.118487  0  0  0.039687  0  1.11324  0  0  0.068043  0.034951  0  1.122813  0
H  H11  1  0.19753619  0.30952263  0.44075723  1  0  0.030699  0  1.019631  0  0  0.037149  0  1.118525  0  0  0.039606  0  1.11327  0  0  0.067965  0.034867  0  1.122883  0
H  H12  1  0.51501109  0.82573607  0.16327661  1  0  0.078941  0  0.94505  0  0  0.090486  0  1.008433  0  0  0.092688  0  1.007377  0  0  0.096421  0.089583  0  1.007893  0
H  H13  1  0.01499558  0.82571931  0.33671356  1  0  0.078931  0  0.945115  0  0  0.090457  0  1.008518  0  0  0.092654  0  1.007469  0  0  0.096424  0.089553  0  1.007977  0
H  H14  1  0.48500550  0.17426916  0.83670818  1  0  0.078995  0  0.944943  0  0  0.090516  0  1.008349  0  0  0.092716  0  1.007295  0  0  0.096426  0.089614  0  1.007808  0
H  H15  1  0.98500398  0.17426710  0.66328711  1  0  0.078984  0  0.945222  0  0  0.090497  0  1.008639  0  0  0.092701  0  1.007581  0  0  0.096431  0.089593  0  1.008097  0
H  H16  1  0.84724863  0.05148564  0.12625763  1  0  0.071988  0  0.944935  0  0  0.088124  0  1.010036  0  0  0.089302  0  1.01003  0  0  0.088849  0.087409  0  1.009762  0
H  H17  1  0.34723360  0.05148472  0.37374245  1  0  0.07198  0  0.944973  0  0  0.088089  0  1.010087  0  0  0.089274  0  1.010081  0  0  0.08883  0.087374  0  1.009812  0
H  H18  1  0.15275650  0.94852214  0.87374304  1  0  0.071895  0  0.945052  0  0  0.088116  0  1.010091  0  0  0.0893  0  1.010083  0  0  0.088847  0.0874  0  1.009818  0
H  H19  1  0.65275555  0.94850825  0.62625482  1  0  0.07198  0  0.944907  0  0  0.088113  0  1.010006  0  0  0.089293  0  1.009993  0  0  0.088843  0.087397  0  1.009729  0
H  H20  1  0.79911544  0.05633466  0.92883573  1  0  0.071633  0  0.927781  0  0  0.090716  0  0.989035  0  0  0.091438  0  0.989665  0  0  0.089538  0.090317  0  0.98834  0
H  H21  1  0.29910878  0.05634148  0.57116608  1  0  0.07155  0  0.927622  0  0  0.09061  0  0.988939  0  0  0.091326  0  0.989585  0  0  0.08948  0.090212  0  0.988243  0
H  H22  1  0.20089565  0.94367850  0.07116608  1  0  0.071676  0  0.927541  0  0  0.09073  0  0.988918  0  0  0.091451  0  0.989555  0  0  0.089552  0.090334  0  0.988219  0
H  H23  1  0.70088294  0.94365551  0.42883005  1  0  0.071701  0  0.927687  0  0  0.090806  0  0.988907  0  0  0.09149  0  0.989589  0  0  0.089539  0.090403  0  0.988211  0
C  C24  1  0.40499123  0.82574571  0.93339109  1  0  -0.109942  0  3.689157  0  0  -0.152992  0  3.939241  0  0  -0.153858  0  3.954255  0  0  -0.172009  -0.152229  0  3.928911  0
C  C25  1  0.90499521  0.82574462  0.56660669  1  0  -0.109783  0  3.6892  0  0  -0.15285  0  3.939212  0  0  -0.153691  0  3.954202  0  0  -0.171972  -0.152093  0  3.928871  0
C  C26  1  0.59501624  0.17425943  0.06661185  1  0  -0.109999  0  3.689314  0  0  -0.153134  0  3.939459  0  0  -0.154008  0  3.954491  0  0  -0.172121  -0.152351  0  3.929101  0
C  C27  1  0.09499173  0.17424566  0.43339625  1  0  -0.110026  0  3.689209  0  0  -0.153034  0  3.939201  0  0  -0.153896  0  3.954212  0  0  -0.171997  -0.152278  0  3.928867  0
C  C28  1  0.71384271  0.71024876  0.02693414  1  0  0.673291  0  3.807907  0  0  0.623703  0  4.091493  0  0  0.658255  0  4.089023  0  0  0.214339  0.600291  0  4.093034  0
C  C29  1  0.21387204  0.71024612  0.47304516  1  0  0.673013  0  3.807841  0  0  0.623498  0  4.09141  0  0  0.658039  0  4.088955  0  0  0.214267  0.600094  0  4.092934  0
C  C30  1  0.28615774  0.28976430  0.97305519  1  0  0.673117  0  3.807918  0  0  0.623512  0  4.091571  0  0  0.658052  0  4.089107  0  0  0.214313  0.600105  0  4.093105  0
C  C31  1  0.78613708  0.28975371  0.52697252  1  0  0.673181  0  3.807551  0  0  0.623574  0  4.091261  0  0  0.658118  0  4.0888  0  0  0.21436  0.600166  0  4.092788  0
C  C32  1  0.58172249  0.84543746  0.04836832  1  0  -0.123239  0  3.641593  0  0  -0.119578  0  3.872866  0  0  -0.127119  0  3.88876  0  0  -0.094372  -0.115109  0  3.862189  0
C  C33  1  0.08170015  0.84545359  0.45162314  1  0  -0.123089  0  3.641167  0  0  -0.119495  0  3.87258  0  0  -0.127032  0  3.888478  0  0  -0.094429  -0.115027  0  3.861895  0
C  C34  1  0.41829378  0.15454912  0.95162328  1  0  -0.123169  0  3.641013  0  0  -0.119484  0  3.87243  0  0  -0.127014  0  3.888334  0  0  -0.094379  -0.11503  0  3.861762  0
C  C35  1  0.91829018  0.15453805  0.54838660  1  0  -0.123041  0  3.641192  0  0  -0.11942  0  3.872641  0  0  -0.126961  0  3.888541  0  0  -0.094361  -0.114955  0  3.861962  0
C  C36  1  0.72296423  0.03556611  0.04085614  1  0  -0.108279  0  3.633211  0  0  -0.149601  0  3.888331  0  0  -0.150471  0  3.902479  0  0  -0.16244  -0.149133  0  3.879266  0
C  C37  1  0.22294685  0.03555990  0.45913740  1  0  -0.108227  0  3.633304  0  0  -0.149557  0  3.88851  0  0  -0.15039  0  3.902571  0  0  -0.1624  -0.149081  0  3.879442  0
C  C38  1  0.27703622  0.96444695  0.95913773  1  0  -0.108143  0  3.633006  0  0  -0.149665  0  3.88836  0  0  -0.150497  0  3.902413  0  0  -0.162461  -0.14919  0  3.879303  0
C  C39  1  0.77704240  0.96444505  0.54084739  1  0  -0.108405  0  3.633244  0  0  -0.149781  0  3.888427  0  0  -0.150623  0  3.902544  0  0  -0.162457  -0.149298  0  3.879354  0
O  O40  1  0.79621917  0.66322385  0.14788869  1  0  -0.658368  0  2.179818  0  0  -0.572658  0  2.46913  0  0  -0.607133  0  2.456292  0  0  -0.336138  -0.549154  0  2.476616  0
O  O41  1  0.29622363  0.66323575  0.35212372  1  0  -0.65806  0  2.180948  0  0  -0.572384  0  2.470274  0  0  -0.606848  0  2.45744  0  0  -0.336007  -0.548888  0  2.477752  0
O  O42  1  0.20379100  0.33677998  0.85210632  1  0  -0.658355  0  2.180246  0  0  -0.572629  0  2.469556  0  0  -0.607102  0  2.456724  0  0  -0.33619  -0.549129  0  2.477039  0
O  O43  1  0.70377370  0.33676529  0.64790077  1  0  -0.658187  0  2.180737  0  0  -0.572464  0  2.470122  0  0  -0.606933  0  2.457286  0  0  -0.336148  -0.548969  0  2.477605  0
O  O44  1  0.74072679  0.65738515  0.89354696  1  0  -0.61291  0  2.101837  0  0  -0.531983  0  2.374293  0  0  -0.565516  0  2.365094  0  0  -0.315764  -0.509272  0  2.379404  0
O  O45  1  0.24073460  0.65739190  0.60646233  1  0  -0.612993  0  2.101309  0  0  -0.532083  0  2.37373  0  0  -0.565638  0  2.364571  0  0  -0.315827  -0.509365  0  2.378831  0
O  O46  1  0.25929575  0.34262547  0.10644124  1  0  -0.61292  0  2.102177  0  0  -0.531905  0  2.374499  0  0  -0.565471  0  2.365392  0  0  -0.315709  -0.509191  0  2.379608  0
O  O47  1  0.75925689  0.34259842  0.39355082  1  0  -0.612973  0  2.101278  0  0  -0.532082  0  2.373813  0  0  -0.565638  0  2.364655  0  0  -0.315821  -0.509359  0  2.378912  0
