# generated using pymatgen
data_H8PbC12(IN)2
_symmetry_space_group_name_H-M   'P 1'
_cell_length_a   8.17057108
_cell_length_b   9.78624780
_cell_length_c   9.78738443
_cell_angle_alpha   68.41390052
_cell_angle_beta   79.80247194
_cell_angle_gamma   79.80502848
_symmetry_Int_Tables_number   1
_chemical_formula_structural   H8PbC12(IN)2
_chemical_formula_sum   'H16 Pb2 C24 I4 N4'
_cell_volume   710.83936787
_cell_formula_units_Z   2
loop_
 _symmetry_equiv_pos_site_id
 _symmetry_equiv_pos_as_xyz
  1  'x, y, z'
loop_
 _atom_site_type_symbol
 _atom_site_label
 _atom_site_symmetry_multiplicity
 _atom_site_fract_x
 _atom_site_fract_y
 _atom_site_fract_z
 _atom_site_occupancy
 _atom_site_pbe_bader_spin_density
 _atom_site_pbe_cm5_charge
 _atom_site_pbe_ddec_charge
 _atom_site_pbe_ddec_spin_density
 _atom_site_pbe_ddec_sum_bond_order
 _atom_site_pbe_magmom
H  H0  1  0.93947004  0.32968074  0.98859262  1  0  0.100198  0.069851  0  1.045812  0
H  H1  1  0.56061738  0.01140319  0.67041036  1  0  0.100149  0.069761  0  1.04607  0
H  H2  1  0.06051480  0.67036641  0.01138140  1  0  0.10012  0.0697  0  1.045805  0
H  H3  1  0.43942020  0.98860870  0.32963708  1  0  0.100181  0.069807  0  1.045954  0
H  H4  1  0.82042064  0.59523823  0.87158231  1  0  0.089269  0.10665  0  1.05079  0
H  H5  1  0.67952184  0.12831156  0.40478828  1  0  0.089388  0.106731  0  1.050877  0
H  H6  1  0.17953425  0.40478222  0.12837648  1  0  0.089351  0.106709  0  1.050956  0
H  H7  1  0.32041699  0.87163018  0.59520910  1  0  0.089342  0.106667  0  1.050929  0
H  H8  1  0.94020421  0.73874185  0.61415829  1  0  0.101396  0.111328  0  0.999609  0
H  H9  1  0.55972757  0.38570670  0.26124857  1  0  0.101275  0.111231  0  0.999764  0
H  H10  1  0.05977165  0.26127979  0.38579686  1  0  0.101368  0.111346  0  0.999927  0
H  H11  1  0.44023299  0.61422072  0.73871808  1  0  0.101408  0.111363  0  0.999658  0
H  H12  1  0.13686609  0.74184993  0.38759789  1  0  0.084905  0.099518  0  1.061588  0
H  H13  1  0.36310878  0.61230816  0.25812799  1  0  0.084933  0.099483  0  1.061321  0
H  H14  1  0.86312562  0.25816401  0.61233112  1  0  0.084996  0.099548  0  1.061847  0
H  H15  1  0.63688317  0.38766258  0.74185982  1  0  0.08494  0.09947  0  1.061514  0
Pb  Pb16  1  0.24998268  0.06483679  0.93511716  1  0  0.359192  0.641363  0  2.324758  0
Pb  Pb17  1  0.74993650  0.93516912  0.06496991  1  0  0.359351  0.641357  0  2.324324  0
C  C18  1  0.98939104  0.39647273  0.87720090  1  0  0.052932  0.101518  0  3.941105  0
C  C19  1  0.51066394  0.12276555  0.60358637  1  0  0.052861  0.101498  0  3.94085  0
C  C20  1  0.01060467  0.60355119  0.12279330  1  0  0.052901  0.101706  0  3.941266  0
C  C21  1  0.48932227  0.87722178  0.39645138  1  0  0.052886  0.101383  0  3.940885  0
C  C22  1  0.92325726  0.54474364  0.81126443  1  0  -0.085153  -0.116953  0  3.969316  0
C  C23  1  0.57673433  0.18865512  0.45527545  1  0  -0.085305  -0.117103  0  3.970021  0
C  C24  1  0.07676095  0.45527815  0.18869853  1  0  -0.085195  -0.11707  0  3.969391  0
C  C25  1  0.42322581  0.81132104  0.54472439  1  0  -0.085177  -0.116842  0  3.969515  0
C  C26  1  0.98883026  0.62348743  0.66919761  1  0  -0.062294  -0.062764  0  3.910464  0
C  C27  1  0.51118515  0.33070482  0.37654081  1  0  -0.062245  -0.062575  0  3.910525  0
C  C28  1  0.01119067  0.37653326  0.33077760  1  0  -0.062251  -0.062696  0  3.909733  0
C  C29  1  0.48878909  0.66923262  0.62344970  1  0  -0.062302  -0.062774  0  3.910297  0
C  C30  1  0.11944431  0.55360735  0.59318999  1  0  -0.001023  0.044705  0  3.99779  0
C  C31  1  0.38058398  0.40677118  0.44641353  1  0  -0.000912  0.044834  0  3.997283  0
C  C32  1  0.88056457  0.44643767  0.40679853  1  0  -0.000884  0.04485  0  3.997713  0
C  C33  1  0.61940106  0.59321393  0.55358945  1  0  -0.001035  0.044802  0  3.997608  0
C  C34  1  0.18184125  0.40396150  0.66960263  1  0  0.119519  0.121515  0  3.954907  0
C  C35  1  0.31822073  0.33037808  0.59603344  1  0  0.119324  0.121485  0  3.954737  0
C  C36  1  0.81820120  0.59604930  0.33040463  1  0  0.119179  0.121296  0  3.955255  0
C  C37  1  0.68180731  0.66962824  0.40395723  1  0  0.119399  0.12142  0  3.954421  0
C  C38  1  0.18780070  0.62735161  0.44380461  1  0  -0.089201  -0.114888  0  3.975238  0
C  C39  1  0.31220315  0.55614229  0.37263313  1  0  -0.089358  -0.114772  0  3.974941  0
C  C40  1  0.81220850  0.37262806  0.55615787  1  0  -0.089345  -0.114871  0  3.974437  0
C  C41  1  0.68778525  0.44386278  0.62736096  1  0  -0.089236  -0.114729  0  3.974298  0
I  I42  1  0.48194695  0.23922340  0.03341137  1  0  -0.192863  -0.433851  0  1.286765  0
I  I43  1  0.01814132  0.96663052  0.76083943  1  0  -0.19273  -0.43366  0  1.286916  0
I  I44  1  0.51812454  0.76070332  0.96656216  1  0  -0.192943  -0.433833  0  1.285821  0
I  I45  1  0.98196215  0.03343255  0.23934772  1  0  -0.192971  -0.433853  0  1.285664  0
N  N46  1  0.11543883  0.32892251  0.80945605  1  0  -0.297184  -0.247404  0  3.486092  0
N  N47  1  0.38466518  0.19054748  0.67113532  1  0  -0.297041  -0.247525  0  3.48566  0
N  N48  1  0.88460886  0.67111268  0.19054449  1  0  -0.29701  -0.247411  0  3.485829  0
N  N49  1  0.61534614  0.80946431  0.32889265  1  0  -0.297106  -0.247321  0  3.48565  0
