# generated using pymatgen
data_CuH4C3S(NCl)2
_symmetry_space_group_name_H-M   'P 1'
_cell_length_a   7.10515285
_cell_length_b   7.97869807
_cell_length_c   11.77911900
_cell_angle_alpha   90.00073475
_cell_angle_beta   89.99959161
_cell_angle_gamma   100.27439926
_symmetry_Int_Tables_number   1
_chemical_formula_structural   CuH4C3S(NCl)2
_chemical_formula_sum   'Cu4 H16 C12 S4 N8 Cl8'
_cell_volume   657.04912539
_cell_formula_units_Z   4
loop_
 _symmetry_equiv_pos_site_id
 _symmetry_equiv_pos_as_xyz
  1  'x, y, z'
loop_
 _atom_site_type_symbol
 _atom_site_label
 _atom_site_symmetry_multiplicity
 _atom_site_fract_x
 _atom_site_fract_y
 _atom_site_fract_z
 _atom_site_occupancy
 _atom_site_hle17_ddec_charge
 _atom_site_hle17_ddec_spin_density
 _atom_site_hle17_ddec_sum_bond_order
 _atom_site_hle17_magmom
 _atom_site_hse06_10hf_ddec_charge
 _atom_site_hse06_10hf_ddec_spin_density
 _atom_site_hse06_10hf_ddec_sum_bond_order
 _atom_site_hse06_10hf_magmom
 _atom_site_hse06_ddec_charge
 _atom_site_hse06_ddec_spin_density
 _atom_site_hse06_ddec_sum_bond_order
 _atom_site_hse06_magmom
 _atom_site_pbe_cm5_charge
 _atom_site_pbe_ddec_charge
 _atom_site_pbe_ddec_spin_density
 _atom_site_pbe_ddec_sum_bond_order
 _atom_site_pbe_magmom
Cu  Cu0  1  0.31220033  0.77004372  0.73570187  1  0.727934  0.618572  1.931108  0.451  0.713101  0.724836  2.327975  0.571  0.806055  0.793209  2.251204  0.658  0.586777  0.661998  0.681653  2.375131  0.521
Cu  Cu1  1  0.81220387  0.77004859  0.76429546  1  0.727844  0.61856  1.931046  0.451  0.713043  0.724832  2.327932  0.571  0.806007  0.793208  2.251156  0.658  0.58676  0.661939  0.681654  2.375081  0.521
Cu  Cu2  1  0.68779709  0.22994774  0.26429768  1  0.727921  0.618565  1.931011  0.451  0.713106  0.72483  2.327907  0.571  0.806045  0.793208  2.251167  0.658  0.586774  0.662001  0.681649  2.375073  0.521
Cu  Cu3  1  0.18780234  0.22995181  0.23570069  1  0.727909  0.618569  1.931085  0.451  0.713062  0.724825  2.327952  0.571  0.806037  0.79321  2.251153  0.658  0.586776  0.661966  0.681657  2.375079  0.521
H  H4  1  0.39557632  0.68148407  0.98047769  1  0.136634  0.000599  0.969995  0.001  0.144097  0.000677  1.033055  0.001  0.146613  0.000505  1.030122  0.001  0.122215  0.142079  0.000796  1.035307  0.001
H  H5  1  0.89559446  0.68149846  0.51951260  1  0.136544  0.0006  0.969925  0.001  0.144025  0.000678  1.032996  0.001  0.146536  0.000506  1.030073  0.001  0.122241  0.142009  0.000798  1.03524  0.001
H  H6  1  0.60441215  0.31850483  0.01951931  1  0.136497  0.000601  0.969907  0.001  0.143976  0.000679  1.032971  0.001  0.146488  0.000506  1.030049  0.001  0.122241  0.141961  0.000798  1.035218  0.001
H  H7  1  0.10441361  0.31851849  0.48047591  1  0.136635  0.000601  0.969913  0.001  0.144062  0.000677  1.033005  0.001  0.14657  0.000505  1.03009  0.001  0.122246  0.142045  0.000797  1.035252  0.001
H  H8  1  0.67547860  0.85191787  0.99157455  1  0.13498  -0.000184  0.977026  0.0  0.150369  5e-06  1.045398  0.0  0.152317  -8.8e-05  1.044898  0.0  0.084025  0.148829  9.4e-05  1.045989  0.0
H  H9  1  0.17548027  0.85189737  0.50843338  1  0.134881  -0.000184  0.977206  0.0  0.150374  5e-06  1.045461  0.0  0.152323  -8.8e-05  1.044956  0.0  0.084018  0.148834  9.4e-05  1.046053  0.0
H  H10  1  0.32453063  0.14809781  0.00842669  1  0.134894  -0.000185  0.977168  0.0  0.150336  5e-06  1.045494  0.0  0.152286  -8.8e-05  1.044988  0.0  0.084026  0.148794  9.4e-05  1.046083  0.0
H  H11  1  0.82451158  0.14808008  0.49157890  1  0.134864  -0.000182  0.977225  0.0  0.150276  5e-06  1.045562  0.0  0.152226  -8.8e-05  1.04506  0.0  0.083994  0.148735  9.4e-05  1.046154  0.0
H  H12  1  0.77565507  0.87243892  0.13162556  1  0.144886  -0.000415  0.968435  0.0  0.160825  -7.9e-05  1.033373  0.0  0.164131  -0.000142  1.031191  0.0  0.083224  0.158617  -1.3e-05  1.034643  0.0
H  H13  1  0.27563924  0.87242247  0.36837948  1  0.14494  -0.000415  0.968312  0.0  0.160864  -7.9e-05  1.033301  0.0  0.164154  -0.000142  1.031135  0.0  0.083245  0.158654  -1.2e-05  1.034576  0.0
H  H14  1  0.22436592  0.12757934  0.86837484  1  0.144859  -0.000416  0.968431  0.0  0.160804  -7.9e-05  1.033423  0.0  0.164117  -0.000142  1.031233  0.0  0.083211  0.158597  -1.2e-05  1.034688  0.0
H  H15  1  0.72432312  0.12756254  0.63162855  1  0.144919  -0.000415  0.968513  0.0  0.160856  -7.9e-05  1.033405  0.0  0.164179  -0.000142  1.03121  0.0  0.083247  0.158644  -1.2e-05  1.034679  0.0
H  H16  1  0.66159848  0.67028921  0.08317736  1  0.1448  0.00113  0.960307  0.0  0.167606  0.001358  1.018074  0.0  0.170443  0.000915  1.016799  0.0  0.086245  0.165752  0.0017  1.018791  0.0
H  H17  1  0.16160073  0.67026733  0.41682903  1  0.144891  0.00113  0.960392  0.0  0.167753  0.001358  1.018062  0.0  0.170582  0.000915  1.016792  0.0  0.08631  0.165892  0.0017  1.018788  0.0
H  H18  1  0.33840073  0.32973281  0.91683067  1  0.144874  0.001129  0.960407  0.0  0.167738  0.001357  1.018095  0.0  0.170559  0.000915  1.016849  0.0  0.086316  0.165882  0.001699  1.018809  0.0
H  H19  1  0.83839750  0.32971395  0.58318834  1  0.144829  0.001133  0.960266  0.0  0.167549  0.001358  1.018139  0.0  0.170387  0.000915  1.01686  0.0  0.086199  0.16569  0.0017  1.018855  0.0
C  C20  1  0.93518309  0.75964582  0.01061230  1  0.243731  -0.006181  3.649585  -0.003  0.236534  0.000329  3.938941  0.002  0.250842  -0.001981  3.954907  0.0  0.138157  0.227265  0.002028  3.928171  0.003
C  C21  1  0.43518544  0.75964310  0.48938433  1  0.243904  -0.006191  3.649781  -0.003  0.236688  0.000327  3.939145  0.002  0.250998  -0.001981  3.955105  0.0  0.138235  0.22742  0.002026  3.928382  0.003
C  C22  1  0.06482061  0.24034184  0.98938555  1  0.243717  -0.00619  3.649548  -0.003  0.236533  0.000324  3.938897  0.002  0.250846  -0.001983  3.954858  0.0  0.1382  0.227262  0.002026  3.928131  0.003
C  C23  1  0.56481323  0.24035473  0.51061607  1  0.243853  -0.006167  3.649818  -0.003  0.236609  0.000327  3.939173  0.002  0.25092  -0.001982  3.955141  0.0  0.138247  0.22734  0.002028  3.928411  0.003
C  C24  1  0.25134477  0.70856953  0.97963934  1  0.026787  -0.007961  3.611021  -0.004  -0.013701  -0.000521  3.893198  0.001  0.000894  -0.003388  3.899942  -0.001  0.057124  -0.022905  0.00168  3.888892  0.003
C  C25  1  0.75134228  0.70858643  0.52035688  1  0.026944  -0.007946  3.611868  -0.004  -0.013499  -0.00052  3.894054  0.001  0.001094  -0.003385  3.90081  -0.001  0.057221  -0.022696  0.001679  3.889741  0.003
C  C26  1  0.74866563  0.29140924  0.02036275  1  0.027071  -0.007958  3.611737  -0.004  -0.013327  -0.000521  3.893835  0.001  0.001268  -0.003385  3.90058  -0.001  0.057295  -0.02253  0.001678  3.889528  0.003
C  C27  1  0.24865221  0.29143304  0.47963672  1  0.026706  -0.007969  3.610975  -0.004  -0.013767  -0.000521  3.893179  0.001  0.000827  -0.003388  3.89993  -0.001  0.057067  -0.022969  0.001681  3.888872  0.003
C  C28  1  0.75122647  0.79072577  0.05613660  1  -0.384231  0.003347  3.697713  0.004  -0.459788  0.002879  3.926818  0.004  -0.465214  0.001939  3.931402  0.003  -0.255425  -0.455683  0.00363  3.923203  0.004
C  C29  1  0.25122502  0.79070820  0.44386617  1  -0.384343  0.003347  3.69777  0.004  -0.460023  0.002879  3.926822  0.004  -0.465426  0.001939  3.931433  0.003  -0.255515  -0.455916  0.003629  3.923205  0.004
C  C30  1  0.24878648  0.20928738  0.94386294  1  -0.384153  0.003351  3.697665  0.004  -0.459862  0.002879  3.926806  0.004  -0.465289  0.001939  3.931392  0.003  -0.255513  -0.455758  0.003629  3.923185  0.004
C  C31  1  0.74876295  0.20927814  0.55614187  1  -0.38419  0.003338  3.697989  0.004  -0.459656  0.002879  3.927055  0.004  -0.465098  0.00194  3.931623  0.003  -0.255364  -0.455546  0.003629  3.923437  0.004
S  S32  1  0.11218321  0.70870068  0.09693610  1  0.248147  0.014489  2.583466  0.015  0.260663  0.011682  2.914298  0.012  0.261503  0.007986  2.911258  0.009  0.174941  0.259426  0.014681  2.916259  0.014
S  S33  1  0.61219292  0.70870940  0.40306743  1  0.248117  0.014492  2.583762  0.015  0.260646  0.011683  2.914547  0.012  0.261485  0.007986  2.911509  0.009  0.17495  0.259417  0.014682  2.916514  0.014
S  S34  1  0.88780948  0.29128823  0.90306938  1  0.24813  0.014491  2.58346  0.015  0.260626  0.011685  2.914268  0.012  0.261463  0.007987  2.911225  0.009  0.174904  0.259394  0.014685  2.916229  0.014
S  S35  1  0.38781027  0.29131137  0.59693381  1  0.248182  0.014488  2.583451  0.015  0.260678  0.011683  2.914321  0.012  0.261517  0.007987  2.911281  0.009  0.174937  0.259446  0.014682  2.916284  0.014
N  N36  1  0.16842097  0.74347547  0.88541785  1  -0.159889  0.064813  3.353911  0.082  -0.117028  0.051409  3.65073  0.068  -0.143545  0.043231  3.680341  0.061  -0.253657  -0.102411  0.055592  3.634124  0.071
N  N37  1  0.66843805  0.74346870  0.61456629  1  -0.159872  0.064795  3.354439  0.081  -0.117185  0.051403  3.65143  0.068  -0.143705  0.043224  3.681042  0.061  -0.253807  -0.102568  0.055586  3.634825  0.071
N  N38  1  0.83156603  0.25652742  0.11456896  1  -0.159962  0.064805  3.354563  0.082  -0.117263  0.051402  3.65156  0.068  -0.143778  0.043223  3.681165  0.061  -0.253821  -0.102648  0.055587  3.634964  0.071
N  N39  1  0.33157777  0.25653045  0.38541797  1  -0.159841  0.064817  3.353941  0.082  -0.116929  0.051407  3.650667  0.068  -0.143448  0.043228  3.680275  0.061  -0.253645  -0.102314  0.055587  3.634057  0.071
N  N40  1  0.98503334  0.76864099  0.90206514  1  -0.233186  0.066256  3.253309  0.083  -0.196369  0.051442  3.551099  0.068  -0.224577  0.042829  3.57881  0.06  -0.249826  -0.180451  0.056203  3.535588  0.071
N  N41  1  0.48504077  0.76863361  0.59793142  1  -0.233372  0.066256  3.253153  0.083  -0.196504  0.051439  3.551029  0.068  -0.224711  0.042827  3.578737  0.06  -0.249857  -0.180584  0.056199  3.535525  0.071
N  N42  1  0.01496493  0.23136193  0.09793185  1  -0.233298  0.066254  3.253182  0.083  -0.19645  0.051442  3.551045  0.068  -0.224661  0.042828  3.578749  0.06  -0.249858  -0.180531  0.056201  3.535532  0.071
N  N43  1  0.51496801  0.23136552  0.40206558  1  -0.233326  0.06625  3.253445  0.083  -0.196491  0.051444  3.55123  0.068  -0.224696  0.042831  3.578939  0.06  -0.249895  -0.180574  0.056205  3.53573  0.071
Cl  Cl44  1  0.54360280  0.97797228  0.80997434  1  -0.509039  0.124049  1.08834  0.153  -0.515427  0.078115  1.397307  0.103  -0.552527  0.057413  1.375022  0.084  -0.281281  -0.493458  0.091123  1.413156  0.113
Cl  Cl45  1  0.04360958  0.97797423  0.69002842  1  -0.508991  0.124053  1.08828  0.153  -0.515406  0.078116  1.397264  0.103  -0.552506  0.057417  1.374977  0.084  -0.281283  -0.493442  0.091125  1.413112  0.113
Cl  Cl46  1  0.45639215  0.02202809  0.19002690  1  -0.509031  0.124045  1.08837  0.153  -0.515447  0.078114  1.397363  0.103  -0.55254  0.057415  1.375069  0.084  -0.28128  -0.493477  0.091121  1.413213  0.113
Cl  Cl47  1  0.95639870  0.02202235  0.30997283  1  -0.50901  0.124045  1.088231  0.153  -0.515409  0.078113  1.397219  0.103  -0.552507  0.057411  1.374922  0.084  -0.281294  -0.493446  0.091121  1.413067  0.113
Cl  Cl48  1  0.09719818  0.54035580  0.67294541  1  -0.52154  0.121497  1.042985  0.149  -0.530817  0.077878  1.348729  0.102  -0.566867  0.057573  1.327851  0.083  -0.292515  -0.508995  0.090836  1.363473  0.112
Cl  Cl49  1  0.59720112  0.54035418  0.82705178  1  -0.521524  0.12149  1.042931  0.149  -0.530822  0.077875  1.348656  0.102  -0.566873  0.057571  1.32778  0.083  -0.292512  -0.509002  0.090834  1.363399  0.112
Cl  Cl50  1  0.90280074  0.45964331  0.32705329  1  -0.521523  0.121494  1.042946  0.149  -0.530819  0.077877  1.348663  0.102  -0.56687  0.057572  1.327796  0.083  -0.292511  -0.508995  0.090834  1.363408  0.112
Cl  Cl51  1  0.40280112  0.45964748  0.17294607  1  -0.521506  0.121505  1.042923  0.149  -0.530808  0.077884  1.348663  0.102  -0.566875  0.057577  1.327814  0.083  -0.292512  -0.508991  0.090847  1.363402  0.112
