# generated using pymatgen
data_LaCoH16C12(NO4)3
_symmetry_space_group_name_H-M   'P 1'
_cell_length_a   8.59261570
_cell_length_b   9.72174303
_cell_length_c   12.88512131
_cell_angle_alpha   67.82854289
_cell_angle_beta   81.05600025
_cell_angle_gamma   65.67551620
_symmetry_Int_Tables_number   1
_chemical_formula_structural   LaCoH16C12(NO4)3
_chemical_formula_sum   'La2 Co2 H32 C24 N6 O24'
_cell_volume   908.28741441
_cell_formula_units_Z   2
loop_
 _symmetry_equiv_pos_site_id
 _symmetry_equiv_pos_as_xyz
  1  'x, y, z'
loop_
 _atom_site_type_symbol
 _atom_site_label
 _atom_site_symmetry_multiplicity
 _atom_site_fract_x
 _atom_site_fract_y
 _atom_site_fract_z
 _atom_site_occupancy
 _atom_site_hle17_ddec_charge
 _atom_site_hle17_ddec_spin_density
 _atom_site_hle17_ddec_sum_bond_order
 _atom_site_hle17_magmom
 _atom_site_hse06_10hf_ddec_charge
 _atom_site_hse06_10hf_ddec_spin_density
 _atom_site_hse06_10hf_ddec_sum_bond_order
 _atom_site_hse06_10hf_magmom
 _atom_site_hse06_ddec_charge
 _atom_site_hse06_ddec_spin_density
 _atom_site_hse06_ddec_sum_bond_order
 _atom_site_hse06_magmom
 _atom_site_pbe_cm5_charge
 _atom_site_pbe_ddec_charge
 _atom_site_pbe_ddec_spin_density
 _atom_site_pbe_ddec_sum_bond_order
 _atom_site_pbe_magmom
La  La0  1  0.24995369  0.50690119  0.98638053  1  2.14121  0.021642  1.745336  0.005  2.015891  0.000128  2.250547  -0.001  2.12445  0.000407  2.146631  0.0  1.402393  1.933277  -0.000295  2.324704  -0.001
La  La1  1  0.75004923  0.49310109  0.01360595  1  2.14107  0.021603  1.74559  0.005  2.015869  0.000127  2.250649  -0.001  2.124428  0.000413  2.146723  0.0  1.402409  1.933269  -0.000271  2.324822  -0.001
Co  Co2  1  0.25007029  0.66375960  0.67246546  1  0.905653  -2.81901  2.017753  -2.558  0.864863  -2.825091  2.417542  -2.624  0.952692  -2.868815  2.341328  -2.703  0.637734  0.794337  -2.782588  2.475656  -2.55
Co  Co3  1  0.74992865  0.33624915  0.32753269  1  0.90567  -2.819003  2.017617  -2.558  0.864949  -2.825098  2.417318  -2.624  0.952737  -2.868822  2.341189  -2.703  0.637769  0.794425  -2.782598  2.475431  -2.551
H  H4  1  0.08045163  0.68940291  0.50317110  1  0.261577  0.001123  0.960742  0.002  0.24614  0.000365  1.028948  0.0  0.253398  0.000477  1.024219  0.0  0.285997  0.240966  0.000235  1.032126  0.0
H  H5  1  0.41968184  0.80735515  0.50321225  1  0.261059  0.001127  0.961128  0.002  0.246188  0.00037  1.028735  0.0  0.253373  0.000481  1.024086  0.0  0.286161  0.241059  0.000243  1.03187  0.0
H  H6  1  0.91954897  0.31060018  0.49683155  1  0.261582  0.001123  0.960677  0.002  0.246221  0.000365  1.02879  0.0  0.253482  0.000477  1.024056  0.0  0.285984  0.241046  0.000235  1.031982  0.0
H  H7  1  0.58031134  0.19264366  0.49678983  1  0.261  0.001127  0.961124  0.002  0.246148  0.00037  1.02873  0.0  0.253332  0.000481  1.024079  0.0  0.28611  0.241026  0.000243  1.031844  0.0
H  H8  1  0.64539834  0.16821841  0.74188100  1  0.297018  6e-06  0.900801  0.0  0.275413  -1e-05  0.966498  0.0  0.284769  1e-06  0.959327  0.0  0.306145  0.26875  -1.7e-05  0.971629  0.0
H  H9  1  0.85467443  0.08994368  0.74195632  1  0.296644  7e-06  0.900947  0.0  0.275274  -9e-06  0.966198  0.0  0.284541  2e-06  0.9592  0.0  0.306235  0.268621  -1.4e-05  0.971304  0.0
H  H10  1  0.35459988  0.83178115  0.25811669  1  0.296938  6e-06  0.90084  0.0  0.275331  -1e-05  0.966552  0.0  0.28469  1e-06  0.959377  0.0  0.306144  0.26866  -1.7e-05  0.971688  0.0
H  H11  1  0.14533048  0.91004789  0.25804461  1  0.296573  7e-06  0.900866  0.0  0.275211  -9e-06  0.966151  0.0  0.28447  1e-06  0.959151  0.0  0.306231  0.268593  -1.4e-05  0.971186  0.0
H  H12  1  0.96019446  0.46776432  0.63151386  1  0.091656  -0.001073  0.926669  -0.001  0.106398  -0.001002  0.989768  -0.001  0.108731  -0.000705  0.987533  0.0  0.108871  0.105098  -0.001157  0.990867  -0.001
H  H13  1  0.54009447  0.90056785  0.63151086  1  0.092737  -0.001073  0.927585  -0.001  0.107717  -0.001002  0.990169  -0.001  0.110073  -0.000705  0.987939  0.0  0.10953  0.106439  -0.001159  0.991238  -0.001
H  H14  1  0.03981334  0.53223525  0.36848630  1  0.091652  -0.001073  0.926734  -0.001  0.106397  -0.001002  0.989816  -0.001  0.10873  -0.000705  0.987587  0.0  0.108873  0.105101  -0.001157  0.990914  -0.001
H  H15  1  0.45990207  0.09943275  0.36848700  1  0.09274  -0.001073  0.927574  -0.001  0.107706  -0.001002  0.990197  -0.001  0.11007  -0.000705  0.98797  0.0  0.109516  0.106415  -0.001159  0.991251  -0.001
H  H16  1  0.87360349  0.67048960  0.62643689  1  0.094603  9e-06  0.941916  0.0  0.110818  -3e-06  1.005405  0.0  0.112205  1.2e-05  1.004782  0.0  0.117772  0.10963  -3.9e-05  1.00628  0.0
H  H17  1  0.62650954  0.70288390  0.62648736  1  0.095354  9e-06  0.940588  0.0  0.111373  -3e-06  1.004359  0.0  0.112696  1.3e-05  1.003859  0.0  0.117933  0.110231  -3.6e-05  1.005197  0.0
H  H18  1  0.12639775  0.32950590  0.37356612  1  0.094601  9e-06  0.941939  0.0  0.11081  -3e-06  1.00543  0.0  0.112198  1.2e-05  1.004814  0.0  0.117776  0.109627  -3.8e-05  1.006306  0.0
H  H19  1  0.37348801  0.29711563  0.37350915  1  0.095389  9e-06  0.940584  0.0  0.111415  -3e-06  1.004349  0.0  0.112744  1.3e-05  1.003855  0.0  0.117958  0.110243  -3.6e-05  1.005198  0.0
H  H20  1  0.29702403  0.49878614  0.46103055  1  0.109719  4e-05  0.927569  0.0  0.125283  4.1e-05  0.986915  0.0  0.127966  7e-05  0.985322  0.0  0.117222  0.123316  2.3e-05  0.988257  0.0
H  H21  1  0.20317377  0.04020169  0.46106643  1  0.108952  4.2e-05  0.928103  0.0  0.124602  4.2e-05  0.987564  0.0  0.127298  7.2e-05  0.98591  0.0  0.117066  0.122653  2.2e-05  0.988928  0.0
H  H22  1  0.70297438  0.50121504  0.53897645  1  0.109807  4e-05  0.927515  0.0  0.125383  4.1e-05  0.986851  0.0  0.128046  7.1e-05  0.985269  0.0  0.11727  0.123419  2.3e-05  0.988194  0.0
H  H23  1  0.79682311  0.95979617  0.53893904  1  0.108972  4.2e-05  0.928083  0.0  0.124616  4.2e-05  0.987546  0.0  0.127311  7.2e-05  0.985889  0.0  0.117035  0.122664  2.2e-05  0.988911  0.0
H  H24  1  0.20962557  0.36319814  0.56097652  1  0.083847  -0.000952  0.93443  -0.001  0.096789  -0.001036  1.001734  -0.001  0.099117  -0.000731  0.999659  -0.001  0.104125  0.094916  -0.00133  1.0036  -0.001
H  H25  1  0.29065602  0.07581359  0.56098608  1  0.083424  -0.000952  0.933621  -0.001  0.096414  -0.001037  1.001243  -0.001  0.098665  -0.000732  0.99922  -0.001  0.104098  0.094581  -0.001333  1.003079  -0.001
H  H26  1  0.79037537  0.63680529  0.43903064  1  0.08391  -0.000952  0.934405  -0.001  0.096873  -0.001036  1.00169  -0.001  0.099201  -0.000731  0.99961  -0.001  0.104136  0.094999  -0.00133  1.003558  -0.001
H  H27  1  0.70934435  0.92417708  0.43901816  1  0.083568  -0.000952  0.933645  -0.001  0.096544  -0.001037  1.001257  -0.001  0.098792  -0.000732  0.999228  -0.001  0.10418  0.094712  -0.001333  1.003091  -0.001
H  H28  1  0.69474831  0.90428515  0.80878531  1  0.125391  -5.4e-05  0.920728  0.0  0.135666  -0.000109  0.982184  0.0  0.139238  -6.5e-05  0.979235  0.0  0.126299  0.133069  -0.000137  0.98437  0.0
H  H29  1  0.80517794  0.28686884  0.80899826  1  0.12592  -5.5e-05  0.922132  0.0  0.135907  -0.000109  0.98389  0.0  0.139469  -6.5e-05  0.980978  0.0  0.126684  0.133306  -0.000136  0.986051  0.0
H  H30  1  0.30525157  0.09571107  0.19121455  1  0.125391  -5.5e-05  0.920661  0.0  0.135665  -0.000109  0.982158  0.0  0.139238  -6.5e-05  0.979212  0.0  0.126262  0.133059  -0.000137  0.984341  0.0
H  H31  1  0.19482161  0.71312857  0.19099555  1  0.125929  -5.5e-05  0.922111  0.0  0.135873  -0.000109  0.983928  0.0  0.139433  -6.5e-05  0.98102  0.0  0.126679  0.133269  -0.000136  0.98609  0.0
H  H32  1  0.64509184  0.95522242  0.93060419  1  0.131741  -3e-06  0.907624  0.0  0.144087  -8e-06  0.96423  0.0  0.147351  -9e-06  0.961974  0.0  0.130363  0.141593  -9e-06  0.96635  0.0
H  H33  1  0.85467130  0.11397882  0.93076714  1  0.13286  -3e-06  0.906607  0.0  0.144831  -8e-06  0.963596  0.0  0.148081  -9e-06  0.961348  0.0  0.13017  0.142331  -9e-06  0.96569  0.0
H  H34  1  0.35490570  0.04477557  0.06939387  1  0.131734  -3e-06  0.907662  0.0  0.144114  -8e-06  0.96426  0.0  0.14738  -9e-06  0.962001  0.0  0.130336  0.141615  -9e-06  0.96638  0.0
H  H35  1  0.14533045  0.88602270  0.06922860  1  0.132871  -3e-06  0.906647  0.0  0.144832  -8e-06  0.96364  0.0  0.148082  -9e-06  0.961394  0.0  0.130178  0.142332  -9e-06  0.965735  0.0
C  C36  1  0.01526125  0.50624805  0.77237386  1  0.726558  0.002939  3.784274  0.002  0.687636  -0.000204  4.074681  -0.001  0.724183  0.000235  4.067163  0.0  0.241189  0.661775  -0.000569  4.079632  -0.001
C  C37  1  0.48493379  0.72124978  0.77240508  1  0.724839  0.002938  3.783286  0.002  0.685115  -0.000202  4.075852  -0.001  0.721662  0.000238  4.068399  0.0  0.239252  0.659318  -0.000583  4.080775  -0.001
C  C38  1  0.98474186  0.49375585  0.22762192  1  0.72665  0.00294  3.784262  0.002  0.687689  -0.000203  4.074713  -0.001  0.72424  0.000236  4.067204  0.0  0.241127  0.661833  -0.000568  4.079661  -0.001
C  C39  1  0.51506561  0.27875275  0.22758963  1  0.724935  0.002937  3.783375  0.002  0.685226  -0.000202  4.07594  -0.001  0.721784  0.000238  4.06848  0.0  0.239234  0.659425  -0.000583  4.080868  -0.001
C  C40  1  0.42248218  0.37959950  0.61730020  1  0.680158  0.001557  3.836908  0.001  0.63353  -0.001789  4.146251  -0.003  0.667099  -0.000915  4.141417  -0.002  0.213462  0.610221  -0.002643  4.148329  -0.004
C  C41  1  0.07778380  0.00309079  0.61732417  1  0.678643  0.001569  3.837768  0.001  0.631474  -0.001785  4.147811  -0.003  0.665049  -0.000911  4.14295  -0.002  0.212643  0.608176  -0.002641  4.149926  -0.004
C  C42  1  0.57751341  0.62040890  0.38270921  1  0.680363  0.001557  3.836502  0.001  0.633675  -0.001789  4.14593  -0.003  0.667244  -0.000915  4.141093  -0.002  0.213583  0.610366  -0.002641  4.148003  -0.004
C  C43  1  0.92221727  0.99690521  0.38268442  1  0.678539  0.001569  3.837848  0.001  0.631358  -0.001785  4.147885  -0.003  0.664933  -0.000911  4.143023  -0.002  0.21268  0.60806  -0.002641  4.150005  -0.004
C  C44  1  0.98905069  0.55912549  0.64660559  1  -0.128555  0.00253  3.649256  0.003  -0.189146  0.000903  3.911785  0.001  -0.189309  0.001265  3.918448  0.001  -0.068214  -0.189132  0.000467  3.907054  0.001
C  C45  1  0.51112758  0.79415900  0.64663245  1  -0.131297  0.002528  3.650978  0.003  -0.191505  0.000901  3.913772  0.001  -0.191746  0.001262  3.920536  0.001  -0.068944  -0.191551  0.000464  3.909111  0.001
C  C46  1  0.01095309  0.44087612  0.35339371  1  -0.128536  0.002531  3.649129  0.003  -0.189122  0.000903  3.911689  0.001  -0.189281  0.001265  3.918336  0.001  -0.06824  -0.189142  0.000466  3.906992  0.001
C  C47  1  0.48887232  0.20584107  0.35336352  1  -0.131418  0.002529  3.651021  0.003  -0.191681  0.000902  3.913928  0.001  -0.191964  0.001263  3.920742  0.001  -0.068989  -0.191657  0.000464  3.909197  0.001
C  C48  1  0.25868542  0.45642804  0.54940265  1  -0.140988  0.001579  3.654036  0.002  -0.19773  8.4e-05  3.916289  0.001  -0.198979  0.00056  3.924599  0.001  -0.075134  -0.197273  -0.000274  3.911099  0.001
C  C49  1  0.24157864  0.99416598  0.54942161  1  -0.138013  0.001577  3.651783  0.002  -0.195122  8.4e-05  3.915361  0.001  -0.196243  0.000559  3.923482  0.001  -0.074428  -0.194767  -0.000276  3.910287  0.001
C  C50  1  0.74131267  0.54357654  0.45060455  1  -0.141337  0.001578  3.654077  0.002  -0.198097  8.4e-05  3.916351  0.001  -0.199325  0.00056  3.924649  0.001  -0.075329  -0.197651  -0.000275  3.911169  0.001
C  C51  1  0.75841789  0.00582767  0.45058324  1  -0.1382  0.001577  3.651863  0.002  -0.195285  8.4e-05  3.915384  0.001  -0.196387  0.000559  3.923474  0.001  -0.074449  -0.194934  -0.000276  3.910316  0.001
C  C52  1  0.90951342  0.81076085  0.91358791  1  0.705721  8e-05  3.848569  0.0  0.660674  6.4e-05  4.15465  0.0  0.695275  8.6e-05  4.14946  0.0  0.223001  0.636694  1.4e-05  4.15734  0.0
C  C53  1  0.59026165  0.27554334  0.91367789  1  0.705329  8e-05  3.851679  0.0  0.661993  6.4e-05  4.15484  0.0  0.696579  8.5e-05  4.149661  0.0  0.223419  0.638015  1.1e-05  4.157513  0.0
C  C54  1  0.09048547  0.18924029  0.08640942  1  0.705549  7.9e-05  3.848787  0.0  0.660582  6.4e-05  4.154828  0.0  0.695182  8.5e-05  4.149642  0.0  0.22296  0.636613  1.5e-05  4.157523  0.0
C  C55  1  0.40974009  0.72445752  0.08631002  1  0.705376  8e-05  3.851663  0.0  0.662012  6.4e-05  4.154861  0.0  0.696599  8.5e-05  4.149681  0.0  0.223471  0.638038  1.1e-05  4.157537  0.0
C  C56  1  0.74057817  0.94277800  0.86374652  1  -0.132818  -6.6e-05  3.541389  0.0  -0.190507  -0.000111  3.791704  0.0  -0.191351  -6.4e-05  3.794806  0.0  -0.053675  -0.190057  -0.000148  3.790198  0.0
C  C57  1  0.75927645  0.19338790  0.86386607  1  -0.13582  -6.5e-05  3.544423  0.0  -0.19362  -0.000111  3.79455  0.0  -0.194443  -6.5e-05  3.797643  0.0  -0.054495  -0.19308  -0.000149  3.792862  0.0
C  C58  1  0.25942322  0.05721778  0.13625015  1  -0.132762  -6.6e-05  3.541375  0.0  -0.190579  -0.000111  3.791808  0.0  -0.191428  -6.4e-05  3.794919  0.0  -0.0536  -0.190115  -0.000148  3.790296  0.0
C  C59  1  0.24072495  0.80661019  0.13612827  1  -0.135931  -6.5e-05  3.544316  0.0  -0.193707  -0.000111  3.794468  0.0  -0.194528  -6.4e-05  3.797556  0.0  -0.054558  -0.193168  -0.000149  3.79279  0.0
N  N60  1  0.12895365  0.59420618  0.57634736  1  -0.374663  -0.034391  3.312621  -0.064  -0.329111  -0.024235  3.586669  -0.042  -0.352928  -0.018848  3.597581  -0.035  -0.485759  -0.310914  -0.029031  3.578356  -0.049
N  N61  1  0.37123519  0.82941083  0.57637106  1  -0.374326  -0.034418  3.313656  -0.064  -0.329103  -0.024262  3.588049  -0.042  -0.352816  -0.018879  3.598879  -0.035  -0.485989  -0.310999  -0.029023  3.579785  -0.049
N  N62  1  0.87104577  0.40579625  0.42365595  1  -0.374726  -0.03439  3.312434  -0.064  -0.329221  -0.024234  3.586409  -0.042  -0.353039  -0.018847  3.597306  -0.035  -0.485725  -0.311005  -0.029032  3.578114  -0.049
N  N63  1  0.62875916  0.17058632  0.42363269  1  -0.374225  -0.034416  3.31352  -0.064  -0.329002  -0.024261  3.587865  -0.042  -0.352701  -0.018877  3.598701  -0.035  -0.485944  -0.310905  -0.029019  3.57958  -0.049
N  N64  1  0.74999170  0.10096357  0.79811051  1  -0.237904  8.8e-05  3.378649  0.0  -0.177806  -3e-06  3.599146  0.0  -0.19063  1e-05  3.606641  0.0  -0.474961  -0.168914  1.9e-05  3.594337  0.0
N  N65  1  0.25000969  0.89903221  0.20188616  1  -0.237767  8.8e-05  3.378753  0.0  -0.17758  -4e-06  3.599093  0.0  -0.190412  1e-05  3.606626  0.0  -0.474977  -0.168706  2e-05  3.594267  0.0
O  O66  1  0.13705740  0.52732545  0.80225590  1  -0.668622  -0.030025  2.14119  -0.052  -0.62114  -0.024782  2.409153  -0.039  -0.66332  -0.020293  2.400743  -0.033  -0.341519  -0.589707  -0.028727  2.414284  -0.045
O  O67  1  0.36314648  0.67023850  0.80230961  1  -0.668787  -0.030063  2.139341  -0.052  -0.621841  -0.024831  2.408837  -0.039  -0.664023  -0.020338  2.400526  -0.033  -0.341796  -0.590439  -0.02883  2.41396  -0.045
O  O68  1  0.86294622  0.47268138  0.19773570  1  -0.668607  -0.030026  2.14102  -0.052  -0.621233  -0.024784  2.409162  -0.039  -0.663357  -0.020293  2.400631  -0.033  -0.341516  -0.589788  -0.028727  2.41426  -0.045
O  O69  1  0.63685229  0.32976930  0.19768706  1  -0.668828  -0.030063  2.139285  -0.052  -0.621875  -0.02483  2.408779  -0.039  -0.664076  -0.020337  2.400497  -0.033  -0.341755  -0.59048  -0.028832  2.413929  -0.045
O  O70  1  0.91203108  0.45193680  0.83645157  1  -0.65726  -0.003209  2.01135  -0.005  -0.614196  -0.002783  2.256116  -0.004  -0.646019  -0.001878  2.247593  -0.003  -0.347917  -0.591256  -0.003767  2.261602  -0.006
O  O71  1  0.58818850  0.71147796  0.83645505  1  -0.654916  -0.003209  2.010586  -0.005  -0.611804  -0.002784  2.256278  -0.004  -0.643615  -0.001879  2.247808  -0.003  -0.346529  -0.588849  -0.00376  2.261724  -0.006
O  O72  1  0.08798057  0.54805978  0.16354798  1  -0.657336  -0.003209  2.011473  -0.005  -0.614203  -0.002783  2.256232  -0.004  -0.646031  -0.001878  2.247708  -0.003  -0.347824  -0.591263  -0.003765  2.26171  -0.006
O  O73  1  0.41181357  0.28851939  0.16354126  1  -0.654917  -0.003209  2.010611  -0.005  -0.611797  -0.002784  2.256292  -0.004  -0.643605  -0.001878  2.247818  -0.003  -0.34646  -0.588833  -0.003761  2.261738  -0.006
O  O74  1  0.45736553  0.46789552  0.65487731  1  -0.611316  -0.036885  2.030107  -0.063  -0.572991  -0.028779  2.29507  -0.046  -0.609769  -0.022368  2.28629  -0.037  -0.314861  -0.544746  -0.035435  2.299749  -0.056
O  O75  1  0.04284070  0.87724351  0.65489791  1  -0.611274  -0.036909  2.032548  -0.063  -0.573103  -0.028785  2.298064  -0.046  -0.609963  -0.022372  2.289371  -0.037  -0.31486  -0.544731  -0.03544  2.302547  -0.056
O  O76  1  0.54262672  0.53211649  0.34513087  1  -0.611365  -0.036881  2.030208  -0.063  -0.573066  -0.028775  2.295246  -0.046  -0.609845  -0.022365  2.286472  -0.037  -0.314921  -0.544808  -0.03543  2.2999  -0.056
O  O77  1  0.95715653  0.12275393  0.34511285  1  -0.611236  -0.03691  2.03252  -0.063  -0.573051  -0.028784  2.297996  -0.046  -0.609902  -0.022371  2.289285  -0.037  -0.314896  -0.544686  -0.035439  2.302489  -0.056
O  O78  1  0.51790591  0.23491116  0.62887987  1  -0.611012  -0.00443  1.938485  -0.007  -0.558509  -0.004039  2.153789  -0.006  -0.582489  -0.002652  2.143906  -0.004  -0.3192  -0.541283  -0.005807  2.159456  -0.009
O  O79  1  0.98239780  0.13621268  0.62890419  1  -0.610898  -0.004441  1.93805  -0.007  -0.557734  -0.004042  2.153154  -0.006  -0.581708  -0.002653  2.143311  -0.004  -0.318841  -0.540496  -0.005816  2.15879  -0.009
O  O80  1  0.48209122  0.76509978  0.37113183  1  -0.610966  -0.004429  1.938004  -0.007  -0.558455  -0.004038  2.153373  -0.006  -0.582435  -0.002651  2.143493  -0.004  -0.319176  -0.54123  -0.005806  2.159031  -0.009
O  O81  1  0.01760982  0.86378121  0.37110776  1  -0.610872  -0.004441  1.938102  -0.007  -0.557675  -0.004042  2.153195  -0.006  -0.581643  -0.002653  2.143344  -0.004  -0.318885  -0.540449  -0.005817  2.15882  -0.009
O  O82  1  0.90846888  0.66822370  0.95348234  1  -0.765704  -0.000149  2.132348  0.0  -0.718179  -0.000141  2.404767  0.0  -0.758184  -7.7e-05  2.398529  0.0  -0.428577  -0.688459  -0.000203  2.40753  0.0
O  O83  1  0.59128448  0.37820253  0.95357138  1  -0.765564  -0.00015  2.132858  0.0  -0.718152  -0.000141  2.403311  0.0  -0.758201  -7.7e-05  2.397251  0.0  -0.428623  -0.688402  -0.000206  2.405968  0.0
O  O84  1  0.09153520  0.33177460  0.04650815  1  -0.765653  -0.000148  2.132402  0.0  -0.718137  -0.000141  2.404749  0.0  -0.758136  -7.7e-05  2.398503  0.0  -0.428582  -0.688414  -0.000202  2.407512  0.0
O  O85  1  0.40871576  0.62180185  0.04641661  1  -0.765685  -0.000149  2.133147  0.0  -0.718185  -0.000141  2.403527  0.0  -0.758234  -7.7e-05  2.39747  0.0  -0.428595  -0.688435  -0.000206  2.406185  0.0
O  O86  1  0.04101608  0.83621290  0.91455704  1  -0.620246  6.5e-05  1.883348  0.0  -0.581036  9.5e-05  2.107193  0.0  -0.608768  0.000133  2.099885  0.0  -0.321369  -0.561327  4e-05  2.111962  0.0
O  O87  1  0.45877850  0.24911072  0.91464780  1  -0.620513  6.5e-05  1.884749  0.0  -0.581688  9.4e-05  2.107278  0.0  -0.609415  0.000132  2.099998  0.0  -0.322127  -0.561964  3.7e-05  2.112063  0.0
O  O88  1  0.95898383  0.16378784  0.08544676  1  -0.62017  6.5e-05  1.883525  0.0  -0.580981  9.4e-05  2.107331  0.0  -0.608711  0.000133  2.100024  0.0  -0.321333  -0.561275  3.9e-05  2.112105  0.0
O  O89  1  0.54122089  0.75089038  0.08533986  1  -0.62039  6.5e-05  1.884691  0.0  -0.581617  9.4e-05  2.107289  0.0  -0.609346  0.000132  2.100005  0.0  -0.322103  -0.561895  3.7e-05  2.112075  0.0
