# generated using pymatgen
data_TbH6C7O9
_symmetry_space_group_name_H-M   'P 1'
_cell_length_a   7.39381075
_cell_length_b   9.41924856
_cell_length_c   14.58403781
_cell_angle_alpha   90.00049888
_cell_angle_beta   102.72780792
_cell_angle_gamma   90.00002752
_symmetry_Int_Tables_number   1
_chemical_formula_structural   TbH6C7O9
_chemical_formula_sum   'Tb4 H24 C28 O36'
_cell_volume   990.73491093
_cell_formula_units_Z   4
loop_
 _symmetry_equiv_pos_site_id
 _symmetry_equiv_pos_as_xyz
  1  'x, y, z'
loop_
 _atom_site_type_symbol
 _atom_site_label
 _atom_site_symmetry_multiplicity
 _atom_site_fract_x
 _atom_site_fract_y
 _atom_site_fract_z
 _atom_site_occupancy
 _atom_site_hle17_bader_spin_density
 _atom_site_hle17_ddec_charge
 _atom_site_hle17_ddec_spin_density
 _atom_site_hle17_ddec_sum_bond_order
 _atom_site_hle17_magmom
 _atom_site_hse06_10hf_bader_spin_density
 _atom_site_hse06_10hf_ddec_charge
 _atom_site_hse06_10hf_ddec_spin_density
 _atom_site_hse06_10hf_ddec_sum_bond_order
 _atom_site_hse06_10hf_magmom
 _atom_site_hse06_bader_spin_density
 _atom_site_hse06_ddec_charge
 _atom_site_hse06_ddec_spin_density
 _atom_site_hse06_ddec_sum_bond_order
 _atom_site_hse06_magmom
 _atom_site_pbe_bader_spin_density
 _atom_site_pbe_cm5_charge
 _atom_site_pbe_ddec_charge
 _atom_site_pbe_ddec_spin_density
 _atom_site_pbe_ddec_sum_bond_order
 _atom_site_pbe_magmom
Tb  Tb0  1  0.62134607  0.44687150  0.35374370  1  0  2.29597  0  1.662987  0  0  2.220087  0  2.007721  0  0  2.266322  0  1.964002  0  0  1.506379  2.118122  0  2.167949  0
Tb  Tb1  1  0.87865300  0.94686755  0.14625611  1  0  2.296016  0  1.66294  0  0  2.220144  0  2.007678  0  0  2.266378  0  1.963957  0  0  1.506351  2.118199  0  2.167894  0
Tb  Tb2  1  0.37864950  0.55312821  0.64625402  1  0  2.296034  0  1.662904  0  0  2.22015  0  2.007634  0  0  2.266385  0  1.963915  0  0  1.506351  2.118218  0  2.167804  0
Tb  Tb3  1  0.12135928  0.05313109  0.85374460  1  0  2.296011  0  1.662856  0  0  2.220138  0  2.00758  0  0  2.266374  0  1.963865  0  0  1.506347  2.118238  0  2.167685  0
H  H4  1  0.72169278  0.96110341  0.63565544  1  0  0.13595  0  0.951857  0  0  0.14548  0  1.010815  0  0  0.149178  0  1.00823  0  0  0.116687  0.14254  0  1.013277  0
H  H5  1  0.77831631  0.46108208  0.86435239  1  0  0.135967  0  0.951941  0  0  0.145566  0  1.0108  0  0  0.149265  0  1.00821  0  0  0.116709  0.142626  0  1.013262  0
H  H6  1  0.27831257  0.03890266  0.36434460  1  0  0.135927  0  0.951845  0  0  0.145485  0  1.010775  0  0  0.149185  0  1.008184  0  0  0.116691  0.142547  0  1.013241  0
H  H7  1  0.22166851  0.53891338  0.13564978  1  0  0.135986  0  0.951834  0  0  0.145545  0  1.010759  0  0  0.149244  0  1.008169  0  0  0.116681  0.142607  0  1.013226  0
H  H8  1  0.83143632  0.19329213  0.54973170  1  0  0.139987  0  0.966146  0  0  0.147214  0  1.026646  0  0  0.151093  0  1.024306  0  0  0.115232  0.143978  0  1.029172  0
H  H9  1  0.66856593  0.69327951  0.95026711  1  0  0.139877  0  0.966161  0  0  0.147088  0  1.026671  0  0  0.150968  0  1.024327  0  0  0.115137  0.143853  0  1.029199  0
H  H10  1  0.16856764  0.80670970  0.45026821  1  0  0.139935  0  0.966192  0  0  0.147177  0  1.026685  0  0  0.151058  0  1.024342  0  0  0.115208  0.143944  0  1.029214  0
H  H11  1  0.33142703  0.30671807  0.04973311  1  0  0.139898  0  0.966244  0  0  0.147122  0  1.026742  0  0  0.151003  0  1.024397  0  0  0.115176  0.143889  0  1.029273  0
H  H12  1  0.20013111  0.44580083  0.28823911  1  0  0.443416  0  0.788798  0  0  0.428652  0  0.83603  0  0  0.436393  0  0.827874  0  0  0.338786  0.422713  0  0.841665  0
H  H13  1  0.29987212  0.94579350  0.21176038  1  0  0.443326  0  0.788908  0  0  0.428628  0  0.836044  0  0  0.436374  0  0.827874  0  0  0.338752  0.42269  0  0.841682  0
H  H14  1  0.79986454  0.55420418  0.71176000  1  0  0.443376  0  0.788835  0  0  0.428611  0  0.836074  0  0  0.43635  0  0.827919  0  0  0.338767  0.422669  0  0.841713  0
H  H15  1  0.70012791  0.05420408  0.78824257  1  0  0.443349  0  0.788919  0  0  0.42865  0  0.836056  0  0  0.436395  0  0.827888  0  0  0.338777  0.42271  0  0.841694  0
H  H16  1  0.26829681  0.55749394  0.36673268  1  0  0.432386  0  0.863577  0  0  0.39877  0  0.938541  0  0  0.410137  0  0.921752  0  0  0.304721  0.390703  0  0.950232  0
H  H17  1  0.23170122  0.05748430  0.13326756  1  0  0.432287  0  0.863753  0  0  0.398687  0  0.938657  0  0  0.410051  0  0.921875  0  0  0.304707  0.390618  0  0.950349  0
H  H18  1  0.73169767  0.44250577  0.63326974  1  0  0.432332  0  0.863706  0  0  0.398711  0  0.938639  0  0  0.410081  0  0.921844  0  0  0.304679  0.390641  0  0.950333  0
H  H19  1  0.76830534  0.94250797  0.86672985  1  0  0.432309  0  0.863744  0  0  0.398676  0  0.93869  0  0  0.410044  0  0.921898  0  0  0.304687  0.390608  0  0.950383  0
H  H20  1  0.52959352  0.21907196  0.19328976  1  0  0.452173  0  0.824325  0  0  0.425144  0  0.884031  0  0  0.435601  0  0.868574  0  0  0.314927  0.417049  0  0.895874  0
H  H21  1  0.97040195  0.71906917  0.30670706  1  0  0.45218  0  0.824322  0  0  0.42515  0  0.884023  0  0  0.435606  0  0.868568  0  0  0.31495  0.417056  0  0.895864  0
H  H22  1  0.47040776  0.78092774  0.80671126  1  0  0.452167  0  0.824391  0  0  0.425137  0  0.884061  0  0  0.435594  0  0.868605  0  0  0.314924  0.417042  0  0.895904  0
H  H23  1  0.02960063  0.28093690  0.69329272  1  0  0.452234  0  0.824272  0  0  0.425159  0  0.884049  0  0  0.435621  0  0.868579  0  0  0.314952  0.417063  0  0.895895  0
H  H24  1  0.37585253  0.20378978  0.24894468  1  0  0.440299  0  0.831057  0  0  0.41687  0  0.889129  0  0  0.426897  0  0.874131  0  0  0.313907  0.409031  0  0.900742  0
H  H25  1  0.12414727  0.70378292  0.25105518  1  0  0.440211  0  0.831139  0  0  0.416783  0  0.889247  0  0  0.426812  0  0.874246  0  0  0.313862  0.408946  0  0.900858  0
H  H26  1  0.62414017  0.79620886  0.75105140  1  0  0.440298  0  0.831034  0  0  0.416858  0  0.889147  0  0  0.426886  0  0.874146  0  0  0.313902  0.409018  0  0.900762  0
H  H27  1  0.87586523  0.29622102  0.74894898  1  0  0.440161  0  0.83117  0  0  0.416749  0  0.889281  0  0  0.426778  0  0.874278  0  0  0.313868  0.408912  0  0.900891  0
C  C28  1  0.60079600  0.72785773  0.49777452  1  0  0.704225  0  3.916065  0  0  0.656204  0  4.214819  0  0  0.692071  0  4.201303  0  0  0.232083  0.631782  0  4.218541  0
C  C29  1  0.89921119  0.22785487  0.00223307  1  0  0.7041  0  3.916327  0  0  0.655999  0  4.215265  0  0  0.691848  0  4.201781  0  0  0.231931  0.631594  0  4.218958  0
C  C30  1  0.39919372  0.27214622  0.50221784  1  0  0.70422  0  3.915871  0  0  0.656108  0  4.214797  0  0  0.691954  0  4.201318  0  0  0.232134  0.6317  0  4.21849  0
C  C31  1  0.10079152  0.77214271  0.99776877  1  0  0.704137  0  3.916232  0  0  0.656066  0  4.215112  0  0  0.691914  0  4.201629  0  0  0.231933  0.631661  0  4.218804  0
C  C32  1  0.68767972  0.86739540  0.49518209  1  0  0.069435  0  3.659587  0  0  0.063677  0  3.922352  0  0  0.063536  0  3.937526  0  0  0.067677  0.062576  0  3.914152  0
C  C33  1  0.81232100  0.36738830  0.00482567  1  0  0.069622  0  3.659607  0  0  0.06384  0  3.922503  0  0  0.063702  0  3.937686  0  0  0.067737  0.062734  0  3.914297  0
C  C34  1  0.31231307  0.13260536  0.50481537  1  0  0.069506  0  3.659741  0  0  0.063734  0  3.922494  0  0  0.063597  0  3.937678  0  0  0.067673  0.062629  0  3.91429  0
C  C35  1  0.18767478  0.63260822  0.99517551  1  0  0.069598  0  3.659769  0  0  0.063807  0  3.922623  0  0  0.063671  0  3.937803  0  0  0.067761  0.062702  0  3.914419  0
C  C36  1  0.73127928  0.97131605  0.56296561  1  0  -0.117734  0  3.708435  0  0  -0.151991  0  3.974959  0  0  -0.1529  0  3.99313  0  0  -0.095004  -0.151606  0  3.964472  0
C  C37  1  0.76872703  0.47130207  0.93704133  1  0  -0.117963  0  3.708886  0  0  -0.152258  0  3.975404  0  0  -0.153177  0  3.993603  0  0  -0.095067  -0.151868  0  3.964909  0
C  C38  1  0.26872217  0.02868684  0.43703817  1  0  -0.11774  0  3.708875  0  0  -0.152027  0  3.975392  0  0  -0.152938  0  3.993571  0  0  -0.094972  -0.151649  0  3.964926  0
C  C39  1  0.23126724  0.52869126  0.06295764  1  0  -0.117876  0  3.708842  0  0  -0.152139  0  3.975348  0  0  -0.153061  0  3.993553  0  0  -0.094991  -0.151755  0  3.964869  0
C  C40  1  0.78979855  0.09090689  0.51873727  1  0  -0.127394  0  3.712572  0  0  -0.163159  0  3.983148  0  0  -0.165213  0  4.001668  0  0  -0.09784  -0.16218  0  3.972033  0
C  C41  1  0.71020510  0.59089683  0.98126659  1  0  -0.127149  0  3.712358  0  0  -0.16284  0  3.982863  0  0  -0.164893  0  4.00138  0  0  -0.097643  -0.161863  0  3.971757  0
C  C42  1  0.21020251  0.90909600  0.48126030  1  0  -0.127304  0  3.712523  0  0  -0.163064  0  3.983109  0  0  -0.165119  0  4.001636  0  0  -0.097817  -0.162094  0  3.972009  0
C  C43  1  0.28979635  0.40909969  0.01873719  1  0  -0.127232  0  3.712521  0  0  -0.162927  0  3.983044  0  0  -0.16498  0  4.00156  0  0  -0.097736  -0.161958  0  3.971948  0
C  C44  1  0.78176275  0.05282997  0.42667534  1  0  0.064048  0  3.668467  0  0  0.057181  0  3.93588  0  0  0.058253  0  3.950042  0  0  0.07363  0.05569  0  3.927412  0
C  C45  1  0.71823539  0.55282817  0.07332765  1  0  0.063938  0  3.668337  0  0  0.057058  0  3.935807  0  0  0.058126  0  3.949963  0  0  0.073582  0.055565  0  3.927347  0
C  C46  1  0.21823840  0.94717079  0.57332361  1  0  0.064069  0  3.668341  0  0  0.057089  0  3.935828  0  0  0.058155  0  3.949996  0  0  0.073614  0.055602  0  3.927358  0
C  C47  1  0.28176874  0.44717154  0.92667501  1  0  0.064087  0  3.668321  0  0  0.057163  0  3.935812  0  0  0.058234  0  3.949967  0  0  0.073626  0.055678  0  3.92734  0
C  C48  1  0.82968854  0.13112444  0.34778616  1  0  0.705597  0  3.929418  0  0  0.658681  0  4.226468  0  0  0.694618  0  4.212327  0  0  0.234516  0.634081  0  4.231055  0
C  C49  1  0.67030566  0.63112687  0.15221621  1  0  0.705628  0  3.929351  0  0  0.658699  0  4.226454  0  0  0.69465  0  4.212286  0  0  0.234515  0.634097  0  4.231048  0
C  C50  1  0.17031270  0.86887739  0.65221417  1  0  0.705629  0  3.929344  0  0  0.658751  0  4.226359  0  0  0.694688  0  4.212219  0  0  0.234545  0.634149  0  4.23095  0
C  C51  1  0.32970273  0.36887389  0.84778824  1  0  0.705512  0  3.929466  0  0  0.658577  0  4.226579  0  0  0.694522  0  4.212424  0  0  0.234462  0.633974  0  4.231169  0
C  C52  1  0.96347361  0.46150881  0.53902561  1  0  0.57069  0  3.895992  0  0  0.525071  0  4.196839  0  0  0.555163  0  4.187178  0  0  0.22444  0.504978  0  4.196738  0
C  C53  1  0.53652102  0.96149735  0.96097122  1  0  0.570846  0  3.895718  0  0  0.52506  0  4.196764  0  0  0.555152  0  4.187105  0  0  0.224446  0.504971  0  4.196662  0
C  C54  1  0.03649532  0.53849939  0.46096474  1  0  0.571182  0  3.895423  0  0  0.525427  0  4.196396  0  0  0.555519  0  4.186729  0  0  0.224645  0.505341  0  4.196297  0
C  C55  1  0.46349823  0.03849174  0.03903084  1  0  0.570769  0  3.895961  0  0  0.525195  0  4.196758  0  0  0.555288  0  4.187095  0  0  0.224564  0.505109  0  4.196656  0
O  O56  1  0.79278776  0.42978638  0.52111794  1  0  -0.66351  0  2.143872  0  0  -0.615907  0  2.383717  0  0  -0.640495  0  2.375925  0  0  -0.329893  -0.591561  0  2.389109  0
O  O57  1  0.70721512  0.92978265  0.97888020  1  0  -0.663501  0  2.143518  0  0  -0.615825  0  2.383418  0  0  -0.640417  0  2.375632  0  0  -0.329844  -0.591484  0  2.388818  0
O  O58  1  0.20719793  0.57022182  0.47887609  1  0  -0.6638  0  2.14323  0  0  -0.616135  0  2.383104  0  0  -0.640724  0  2.375308  0  0  -0.330026  -0.591796  0  2.388508  0
O  O59  1  0.29279854  0.07020325  0.02112064  1  0  -0.663587  0  2.143623  0  0  -0.61601  0  2.383476  0  0  -0.640612  0  2.375712  0  0  -0.329982  -0.591664  0  2.38885  0
O  O60  1  0.56432938  0.65365491  0.42343628  1  0  -0.731421  0  2.083644  0  0  -0.695929  0  2.347636  0  0  -0.718196  0  2.330954  0  0  -0.413237  -0.670082  0  2.360279  0
O  O61  1  0.93567640  0.15365095  0.07657419  1  0  -0.731498  0  2.083735  0  0  -0.695985  0  2.347823  0  0  -0.718242  0  2.331144  0  0  -0.413193  -0.670143  0  2.360459  0
O  O62  1  0.43566610  0.34635328  0.57656006  1  0  -0.731461  0  2.083262  0  0  -0.695974  0  2.347384  0  0  -0.718234  0  2.330712  0  0  -0.413219  -0.670136  0  2.360018  0
O  O63  1  0.06433467  0.84634875  0.92342915  1  0  -0.731474  0  2.083641  0  0  -0.695962  0  2.347689  0  0  -0.718221  0  2.331012  0  0  -0.413189  -0.670127  0  2.360314  0
O  O64  1  0.28225709  0.52777882  0.30276428  1  0  -0.858082  0  1.855511  0  0  -0.815511  0  2.040305  0  0  -0.833993  0  2.012069  0  0  -0.587112  -0.79541  0  2.063219  0
O  O65  1  0.21774505  0.02777005  0.19723687  1  0  -0.857916  0  1.855795  0  0  -0.815413  0  2.040444  0  0  -0.833896  0  2.012217  0  0  -0.587062  -0.795317  0  2.063361  0
O  O66  1  0.71774016  0.47222513  0.69723841  1  0  -0.857981  0  1.855626  0  0  -0.815406  0  2.040362  0  0  -0.833889  0  2.012139  0  0  -0.587051  -0.795315  0  2.063279  0
O  O67  1  0.78226164  0.97223071  0.80276261  1  0  -0.857958  0  1.855771  0  0  -0.815421  0  2.040371  0  0  -0.833903  0  2.012148  0  0  -0.587055  -0.795333  0  2.063283  0
O  O68  1  0.56535114  0.69298499  0.57648706  1  0  -0.75816  0  2.065958  0  0  -0.719036  0  2.329027  0  0  -0.745214  0  2.317525  0  0  -0.41461  -0.690061  0  2.338356  0
O  O69  1  0.93465873  0.19297513  0.92352346  1  0  -0.758101  0  2.066102  0  0  -0.718949  0  2.329234  0  0  -0.745118  0  2.317746  0  0  -0.414557  -0.689986  0  2.338554  0
O  O70  1  0.43463040  0.30702002  0.42350657  1  0  -0.758151  0  2.066074  0  0  -0.719008  0  2.329225  0  0  -0.745177  0  2.317732  0  0  -0.414763  -0.690039  0  2.338558  0
O  O71  1  0.06534818  0.80701820  0.07647947  1  0  -0.758103  0  2.066047  0  0  -0.71899  0  2.329227  0  0  -0.745151  0  2.317721  0  0  -0.414576  -0.690022  0  2.338552  0
O  O72  1  0.46540439  0.27279414  0.23486262  1  0  -0.892318  0  1.838482  0  0  -0.854562  0  2.024547  0  0  -0.871394  0  1.991915  0  0  -0.620508  -0.833852  0  2.052976  0
O  O73  1  0.03459403  0.77278851  0.26513406  1  0  -0.89224  0  1.838541  0  0  -0.85449  0  2.024648  0  0  -0.871328  0  1.992019  0  0  -0.620487  -0.833778  0  2.053061  0
O  O74  1  0.53459273  0.72720450  0.76513800  1  0  -0.892313  0  1.838472  0  0  -0.854556  0  2.02452  0  0  -0.871388  0  1.991889  0  0  -0.620513  -0.833851  0  2.052936  0
O  O75  1  0.96541825  0.22721650  0.73486665  1  0  -0.892222  0  1.838476  0  0  -0.854459  0  2.024549  0  0  -0.871302  0  1.991939  0  0  -0.620495  -0.83376  0  2.052957  0
O  O76  1  0.72102850  0.91532117  0.41158694  1  0  -0.165197  0  2.382737  0  0  -0.100494  0  2.599996  0  0  -0.114068  0  2.606541  0  0  -0.101623  -0.091478  0  2.595817  0
O  O77  1  0.77897233  0.41531837  0.08842041  1  0  -0.165111  0  2.382385  0  0  -0.100455  0  2.599734  0  0  -0.114026  0  2.606278  0  0  -0.101662  -0.091435  0  2.595554  0
O  O78  1  0.27896849  0.08468172  0.58841161  1  0  -0.16522  0  2.382662  0  0  -0.100386  0  2.599859  0  0  -0.113957  0  2.606406  0  0  -0.101597  -0.091366  0  2.595674  0
O  O79  1  0.22102770  0.58468027  0.91158255  1  0  -0.165271  0  2.382729  0  0  -0.100565  0  2.600048  0  0  -0.114135  0  2.606589  0  0  -0.101709  -0.091546  0  2.595863  0
O  O80  1  0.83553402  0.26621806  0.35347849  1  0  -0.746918  0  2.015676  0  0  -0.709945  0  2.264437  0  0  -0.734691  0  2.251468  0  0  -0.4101  -0.683071  0  2.275884  0
O  O81  1  0.66445623  0.76622041  0.14652083  1  0  -0.74699  0  2.015694  0  0  -0.710008  0  2.264468  0  0  -0.734759  0  2.251491  0  0  -0.410125  -0.683138  0  2.275922  0
O  O82  1  0.16446704  0.73378165  0.64651908  1  0  -0.74694  0  2.015656  0  0  -0.709969  0  2.264373  0  0  -0.734714  0  2.251403  0  0  -0.410097  -0.683104  0  2.275821  0
O  O83  1  0.33555652  0.23378035  0.85348747  1  0  -0.746944  0  2.015719  0  0  -0.709976  0  2.264523  0  0  -0.734718  0  2.251539  0  0  -0.410115  -0.683115  0  2.275971  0
O  O84  1  0.86346388  0.05998667  0.27979050  1  0  -0.728157  0  2.061977  0  0  -0.693258  0  2.328199  0  0  -0.716061  0  2.310565  0  0  -0.420853  -0.66503  0  2.343125  0
O  O85  1  0.63653017  0.55999957  0.22021283  1  0  -0.728086  0  2.062042  0  0  -0.693178  0  2.328284  0  0  -0.715984  0  2.310641  0  0  -0.420796  -0.664941  0  2.343207  0
O  O86  1  0.13654152  0.94000772  0.72021023  1  0  -0.728182  0  2.062048  0  0  -0.693306  0  2.328279  0  0  -0.716106  0  2.310642  0  0  -0.420889  -0.665088  0  2.343197  0
O  O87  1  0.36347102  0.44000013  0.77978681  1  0  -0.728088  0  2.062016  0  0  -0.693169  0  2.328245  0  0  -0.715975  0  2.310608  0  0  -0.420792  -0.664941  0  2.343165  0
O  O88  1  0.07860695  0.43606552  0.61538392  1  0  -0.665437  0  2.086226  0  0  -0.623318  0  2.326748  0  0  -0.647119  0  2.316886  0  0  -0.352194  -0.598999  0  2.334175  0
O  O89  1  0.42139882  0.93604785  0.88461519  1  0  -0.665375  0  2.086304  0  0  -0.62324  0  2.326924  0  0  -0.647038  0  2.317065  0  0  -0.352182  -0.598922  0  2.334344  0
O  O90  1  0.92138437  0.56394267  0.38461203  1  0  -0.665438  0  2.086401  0  0  -0.623329  0  2.327027  0  0  -0.647123  0  2.317162  0  0  -0.352222  -0.599009  0  2.334456  0
O  O91  1  0.57861611  0.06394548  0.11538371  1  0  -0.665356  0  2.086471  0  0  -0.623288  0  2.327012  0  0  -0.647084  0  2.317152  0  0  -0.352233  -0.598969  0  2.334439  0
