# generated using pymatgen
data_NiH5(CO)5
_symmetry_space_group_name_H-M   'P 1'
_cell_length_a   12.49732822
_cell_length_b   12.81139349
_cell_length_c   19.08220043
_cell_angle_alpha   89.97262519
_cell_angle_beta   90.00958202
_cell_angle_gamma   111.43288733
_symmetry_Int_Tables_number   1
_chemical_formula_structural   NiH5(CO)5
_chemical_formula_sum   'Ni16 H80 C80 O80'
_cell_volume   2843.93647977
_cell_formula_units_Z   16
loop_
 _symmetry_equiv_pos_site_id
 _symmetry_equiv_pos_as_xyz
  1  'x, y, z'
loop_
 _atom_site_type_symbol
 _atom_site_label
 _atom_site_symmetry_multiplicity
 _atom_site_fract_x
 _atom_site_fract_y
 _atom_site_fract_z
 _atom_site_occupancy
 _atom_site_pbe_bader_charge
 _atom_site_pbe_bader_spin_density
 _atom_site_pbe_cm5_charge
 _atom_site_pbe_ddec_charge
 _atom_site_pbe_ddec_spin_density
 _atom_site_pbe_ddec_sum_bond_order
 _atom_site_pbe_magmom
Ni  Ni0  1  0.52520684  0.69894173  0.06777561  1  1.203763  -1.577254  0.607196  0.92572  -1.759796  2.322783  -1.559
Ni  Ni1  1  0.47486744  0.80102047  0.56783884  1  1.207616  -1.591737  0.608973  0.93191  -1.776268  2.319963  -1.574
Ni  Ni2  1  0.47500770  0.29945162  0.93147051  1  1.20819  -1.582118  0.609012  0.935853  -1.76781  2.322443  -1.564
Ni  Ni3  1  0.52449495  0.20029078  0.43107136  1  1.210388  1.574825  0.609658  0.936695  1.793714  2.318701  1.559
Ni  Ni4  1  0.79411208  0.68212094  0.05398362  1  1.17369  -0.024894  0.576668  0.925293  -0.018834  2.281897  -0.023
Ni  Ni5  1  0.20741009  0.81776351  0.55338417  1  1.215717  -1.591114  0.602169  0.971766  -1.782678  2.253906  -1.579
Ni  Ni6  1  0.20595499  0.31849309  0.94618602  1  1.218251  1.567365  0.603226  0.979204  1.788828  2.249597  1.557
Ni  Ni7  1  0.79431324  0.18274170  0.44667291  1  1.216566  -1.581217  0.601427  0.974669  -1.773386  2.251865  -1.569
Ni  Ni8  1  0.70493410  0.82275135  0.95691224  1  1.226131  -1.568661  0.61751  0.99879  -1.762889  2.319948  -1.557
Ni  Ni9  1  0.29499227  0.67814829  0.45696503  1  1.224388  -1.574776  0.615227  0.998037  -1.769637  2.3198  -1.562
Ni  Ni10  1  0.29303459  0.17626972  0.04394143  1  1.21645  -1.599329  0.604905  0.980388  -1.792745  2.236632  -1.588
Ni  Ni11  1  0.70759945  0.32387435  0.54398273  1  1.216596  -1.595167  0.605426  0.981651  -1.787616  2.23616  -1.583
Ni  Ni12  1  0.97543119  0.80718006  0.94197929  1  1.207844  1.576473  0.607929  0.925955  1.79548  2.306987  1.56
Ni  Ni13  1  0.02378696  0.69299329  0.44213840  1  1.206823  1.57212  0.608333  0.927863  1.790311  2.301555  1.557
Ni  Ni14  1  0.02388124  0.19277081  0.05857664  1  1.208765  -1.58451  0.608383  0.928375  -1.773062  2.302592  -1.569
Ni  Ni15  1  0.97581967  0.30686530  0.55823677  1  1.208707  -1.593052  0.608497  0.928506  -1.781351  2.305416  -1.577
H  H16  1  0.61893125  0.60570467  0.97409678  1  0.626507  -0.000981  0.287624  0.378433  -0.001571  0.949507  -0.002
H  H17  1  0.38380558  0.89562869  0.47283023  1  0.611243  -0.002304  0.287767  0.382718  -0.00283  0.943804  -0.003
H  H18  1  0.38482424  0.39496363  0.02597925  1  0.61775  0.000228  0.284979  0.378261  -0.000514  0.950414  -0.001
H  H19  1  0.61592073  0.10488054  0.52580919  1  0.616277  -0.000576  0.284691  0.378079  -0.000671  0.950733  0.0
H  H20  1  0.88186074  0.90248582  0.03267332  1  0.615026  -0.000472  0.285529  0.379911  0.000309  0.951085  0.0
H  H21  1  0.11874824  0.59777873  0.53307966  1  0.613086  -0.00063  0.285356  0.381677  -0.000646  0.949116  0.0
H  H22  1  0.11682864  0.09667703  0.96702431  1  0.609272  -0.000985  0.284792  0.382196  -0.001203  0.94899  -0.001
H  H23  1  0.88356389  0.40416221  0.46675607  1  0.605023  -0.001715  0.286195  0.385151  -0.002448  0.945062  -0.003
H  H24  1  0.22992105  0.70193682  0.95927956  1  0.105421  -0.000321  0.112942  0.129755  -0.000226  1.019555  0.0
H  H25  1  0.77033816  0.79742092  0.45943181  1  0.105169  -0.000344  0.11294  0.129994  -0.00022  1.019669  0.0
H  H26  1  0.77056014  0.29657682  0.04025006  1  0.107843  -0.00016  0.113013  0.129797  -6e-05  1.020636  0.0
H  H27  1  0.22981820  0.20272652  0.54029247  1  0.101865  0.000183  0.112739  0.129564  0.000186  1.021663  0.0
H  H28  1  0.11332266  0.72806843  0.74975886  1  0.122425  -0.000183  0.112652  0.135438  -0.000127  1.001878  0.0
H  H29  1  0.88691251  0.77221721  0.24979995  1  0.121519  -0.000183  0.112817  0.13557  -0.000136  1.002114  0.0
H  H30  1  0.88674115  0.27125174  0.25000223  1  0.119271  -9.3e-05  0.11271  0.135467  -4e-05  1.002125  0.0
H  H31  1  0.11347758  0.22874611  0.74988595  1  0.121087  7.3e-05  0.112607  0.135411  8.5e-05  1.002593  0.0
H  H32  1  0.47390954  0.80663022  0.78992232  1  0.086354  -0.000315  0.107449  0.117739  -0.000161  1.014946  0.0
H  H33  1  0.52634558  0.69362015  0.29006800  1  0.096967  -0.000328  0.107225  0.116974  -0.000154  1.015376  0.0
H  H34  1  0.52611975  0.19137564  0.20933485  1  0.127589  4.5e-05  0.107474  0.117744  5e-05  1.014382  0.0
H  H35  1  0.47416969  0.30856880  0.70936250  1  0.125261  -0.000278  0.107501  0.117422  -0.000159  1.014539  0.0
H  H36  1  0.05330450  0.56120836  0.95076657  1  0.099666  -0.001535  0.114647  0.109805  -0.000705  0.997682  -0.001
H  H37  1  0.94715964  0.93937613  0.45005569  1  0.102313  -0.001207  0.115028  0.110336  -0.000551  0.997055  -0.001
H  H38  1  0.94767488  0.43872392  0.04966945  1  0.105432  0.001178  0.115101  0.110533  0.000587  0.997834  0.001
H  H39  1  0.05311266  0.06234398  0.54854687  1  0.095887  -0.000626  0.114918  0.110144  -0.00021  0.998873  0.0
H  H40  1  0.98771178  0.51087644  0.86840348  1  0.097299  0.000941  0.117526  0.120101  0.000479  0.961224  0.001
H  H41  1  0.01325618  0.98862924  0.36763190  1  0.096026  0.000983  0.117557  0.120057  0.000466  0.960934  0.001
H  H42  1  0.01265621  0.48800003  0.13241523  1  0.100245  -0.001028  0.117518  0.119931  -0.000468  0.96071  -0.001
H  H43  1  0.98848955  0.01107891  0.63108270  1  0.106271  -0.000789  0.117576  0.12081  -0.000353  0.961518  0.0
H  H44  1  0.60865614  0.72140906  0.76027796  1  0.109916  -7.2e-05  0.11339  0.136014  -1.5e-05  1.000653  0.0
H  H45  1  0.39076467  0.77857357  0.25996244  1  0.116032  -7e-05  0.114069  0.137304  -1.7e-05  0.998429  0.0
H  H46  1  0.39067948  0.27880438  0.23977380  1  0.115179  -0.00016  0.11423  0.137762  -0.000107  0.997566  0.0
H  H47  1  0.60920498  0.22041981  0.73964097  1  0.11598  -0.000175  0.114079  0.137549  -6.8e-05  0.998015  0.0
H  H48  1  0.72807015  0.68899316  0.55237523  1  0.121895  0.000109  0.114135  0.132229  0.000133  1.017635  0.0
H  H49  1  0.27055209  0.81056384  0.05214111  1  0.119871  9.6e-05  0.114124  0.132464  8.4e-05  1.017398  0.0
H  H50  1  0.27305927  0.31151582  0.44808376  1  0.112513  -0.000287  0.11426  0.132778  -0.00017  1.018595  0.0
H  H51  1  0.72680435  0.18842286  0.94810673  1  0.112721  -0.000242  0.114066  0.132429  -0.000136  1.018923  0.0
H  H52  1  0.97095799  0.80815489  0.72139058  1  0.106905  2.4e-05  0.107025  0.11689  3e-05  1.015262  0.0
H  H53  1  0.02833318  0.69203070  0.22159191  1  0.099107  0.000192  0.107224  0.117341  0.000131  1.015312  0.0
H  H54  1  0.02870061  0.19219765  0.27981407  1  0.109638  -0.000227  0.107169  0.11736  -9.6e-05  1.014106  0.0
H  H55  1  0.97125709  0.30790392  0.77987641  1  0.109155  -0.000106  0.107082  0.117576  -3.4e-05  1.01403  0.0
H  H56  1  0.49170192  0.50049838  0.63142531  1  0.113377  -0.000759  0.115799  0.117847  -0.000344  0.976044  0.0
H  H57  1  0.50692355  0.99932718  0.13085581  1  0.112654  -0.000681  0.115793  0.11805  -0.00032  0.975805  0.0
H  H58  1  0.50843692  0.50035548  0.36750125  1  0.115043  0.000945  0.116211  0.117644  0.000456  0.974344  0.001
H  H59  1  0.49172088  0.99904807  0.86801582  1  0.112833  -0.000716  0.115692  0.117427  -0.000334  0.975334  0.0
H  H60  1  0.55439657  0.56481848  0.55101294  1  0.086107  -0.000725  0.116058  0.112023  -0.000246  0.990259  0.0
H  H61  1  0.44471262  0.93491543  0.05039160  1  0.116621  -0.000787  0.115741  0.111272  -0.000313  0.9913  0.0
H  H62  1  0.44675730  0.43691259  0.44837050  1  0.108984  -0.001158  0.115887  0.11172  -0.00053  0.990009  -0.001
H  H63  1  0.55324697  0.06325106  0.94870979  1  0.106243  -0.000707  0.115684  0.111103  -0.00026  0.992382  0.0
H  H64  1  0.31953041  0.53894694  0.06746237  1  0.642422  3.7e-05  0.298985  0.385153  -0.000265  0.955566  0.0
H  H65  1  0.68097147  0.96054023  0.56690442  1  0.666875  -0.000262  0.299149  0.385649  -0.000384  0.954948  0.0
H  H66  1  0.68144111  0.45924413  0.93344610  1  0.643476  -0.000355  0.299013  0.385567  -0.000502  0.955089  0.0
H  H67  1  0.31859244  0.04044278  0.43291402  1  0.643281  -4.2e-05  0.299155  0.385406  0.000225  0.95519  0.0
H  H68  1  0.39196852  0.51514751  0.13016120  1  0.613539  -0.000239  0.336244  0.420721  -0.000263  0.840482  0.0
H  H69  1  0.60932560  0.98492592  0.62978015  1  0.62175  -0.000256  0.336365  0.421091  -0.000299  0.839552  0.0
H  H70  1  0.61007946  0.48400593  0.87052864  1  0.626677  -0.000289  0.336641  0.421669  -0.00032  0.839517  0.0
H  H71  1  0.39005214  0.01637126  0.36979035  1  0.611935  0.000169  0.337133  0.422075  0.00026  0.839296  0.0
H  H72  1  0.63281677  0.48825303  0.08488342  1  0.616159  0.000274  0.325706  0.407592  0.000295  0.861758  0.0
H  H73  1  0.36712905  0.01103579  0.58479713  1  0.617818  -0.000459  0.326422  0.40902  -0.000485  0.860036  0.0
H  H74  1  0.36671190  0.50866942  0.91458247  1  0.622885  -0.000144  0.326859  0.409422  4.9e-05  0.859791  0.0
H  H75  1  0.63337604  0.99222194  0.41413273  1  0.624419  -0.000458  0.326338  0.409195  -0.000534  0.860554  0.0
H  H76  1  0.73297202  0.46673994  0.04713117  1  0.637586  -0.000107  0.30065  0.380445  -3e-05  0.953486  0.0
H  H77  1  0.26700316  0.03253495  0.54693232  1  0.632609  9.2e-05  0.30095  0.381001  -0.000145  0.952571  0.0
H  H78  1  0.26947883  0.53389538  0.95327285  1  0.644942  -8e-05  0.302212  0.382872  0.000157  0.95027  0.0
H  H79  1  0.73067056  0.96649360  0.45251059  1  0.626064  4.5e-05  0.301603  0.381648  -0.000147  0.951213  0.0
H  H80  1  0.82699689  0.04983251  0.94108086  1  0.643883  -0.000844  0.299954  0.390494  -0.000747  0.939587  -0.001
H  H81  1  0.17297371  0.45058211  0.44126996  1  0.644135  -0.000722  0.299814  0.390381  -0.000718  0.939602  -0.001
H  H82  1  0.16588258  0.94738387  0.06084451  1  0.636289  -0.000398  0.298249  0.389884  -0.000413  0.941453  -0.001
H  H83  1  0.83357875  0.55306331  0.56104866  1  0.633941  -0.000299  0.297987  0.389689  -0.000421  0.942095  -0.001
H  H84  1  0.86126792  0.96933901  0.89173143  1  0.634493  -8.1e-05  0.308987  0.387904  -0.000262  0.913414  0.0
H  H85  1  0.13833872  0.53105400  0.39206028  1  0.613548  -0.000131  0.308801  0.388248  -0.00044  0.914259  0.0
H  H86  1  0.13350405  0.02983793  0.10988976  1  0.612313  0.000226  0.305563  0.384456  0.000108  0.922644  0.0
H  H87  1  0.86644268  0.47081363  0.60999023  1  0.613724  0.000199  0.306078  0.385247  -8.3e-05  0.921219  0.0
H  H88  1  0.18549540  0.95715089  0.93395664  1  0.647434  0.000127  0.296432  0.384024  0.000363  0.961877  0.0
H  H89  1  0.81418781  0.54278598  0.43399212  1  0.647254  5.9e-05  0.297063  0.384745  0.000355  0.960956  0.0
H  H90  1  0.81359924  0.04281817  0.06620834  1  0.675151  -0.000364  0.297307  0.384442  -0.000469  0.960775  -0.001
H  H91  1  0.18595092  0.45726358  0.56630706  1  0.644496  -0.000396  0.297092  0.384343  -0.000481  0.961094  -0.001
H  H92  1  0.10630567  0.97383178  0.87154211  1  0.627527  0.000311  0.336413  0.41967  0.000313  0.839908  0.0
H  H93  1  0.89367443  0.52668603  0.37151845  1  0.627059  0.000206  0.336446  0.419744  0.000271  0.839549  0.0
H  H94  1  0.89123820  0.02577970  0.12921501  1  0.630584  -0.00017  0.336333  0.419372  -0.00032  0.839335  0.0
H  H95  1  0.10768663  0.47343513  0.62924509  1  0.629902  -0.000227  0.335952  0.418928  -0.000323  0.840788  0.0
C  C96  1  0.45592094  0.76340435  0.93021151  1  1.543927  0.003253  0.213371  0.576463  0.000784  4.1721  0.004
C  C97  1  0.54431001  0.73601905  0.43044418  1  1.547813  0.002716  0.213491  0.577238  0.000176  4.170959  0.004
C  C98  1  0.54403790  0.23352526  0.06911082  1  1.5537  0.002735  0.213945  0.579529  0.000447  4.17273  0.004
C  C99  1  0.45618047  0.26609259  0.56914722  1  1.551674  -0.001908  0.214139  0.579816  -0.001323  4.173453  -0.002
C  C100  1  0.36139917  0.75485861  0.87961967  1  0.035202  -0.011304  -0.016518  -0.015474  -0.006646  3.991074  -0.009
C  C101  1  0.63884482  0.74490249  0.37977406  1  -0.039156  -0.012344  -0.016901  -0.016195  -0.007282  3.991238  -0.01
C  C102  1  0.63879149  0.24311596  0.11976329  1  -0.05265  -0.010391  -0.016567  -0.015908  -0.00617  3.991381  -0.008
C  C103  1  0.36144398  0.25643403  0.61982112  1  -0.046855  0.001659  -0.016541  -0.015353  0.000956  3.992786  0.002
C  C104  1  0.24818650  0.72064217  0.90393274  1  0.006212  0.001295  -0.08235  -0.174348  0.000655  3.929649  0.001
C  C105  1  0.75204764  0.77892296  0.40408382  1  0.078306  1.2e-05  -0.082409  -0.174164  -0.000136  3.930109  0.0
C  C106  1  0.75209748  0.27776487  0.09555811  1  0.079817  -0.002868  -0.082243  -0.173881  -0.001587  3.930722  -0.002
C  C107  1  0.24816157  0.22164771  0.59559428  1  0.076682  -0.004595  -0.083068  -0.175508  -0.002543  3.932198  -0.003
C  C108  1  0.16052833  0.71331984  0.85712261  1  0.368502  -0.000872  0.075235  0.244258  -0.000318  4.040336  -0.001
C  C109  1  0.83965245  0.78640759  0.35722128  1  0.361882  -0.00081  0.074542  0.243574  -0.000244  4.04091  -0.001
C  C110  1  0.83963029  0.28544391  0.14253692  1  0.421008  0.000122  0.075526  0.244576  3e-06  4.040772  0.0
C  C111  1  0.16057313  0.21401142  0.64251397  1  0.365787  -0.000583  0.074977  0.244231  -0.000376  4.041505  0.0
C  C112  1  0.18283174  0.73621588  0.78628968  1  -0.007404  0.000741  -0.08409  -0.186169  0.00034  3.919693  0.001
C  C113  1  0.81741427  0.76387749  0.28637185  1  -0.009069  3e-06  -0.084539  -0.187546  -7.1e-05  3.922158  0.0
C  C114  1  0.81726268  0.26269797  0.21336353  1  0.006332  -0.002069  -0.084554  -0.186951  -0.001147  3.922645  -0.001
C  C115  1  0.18297756  0.23712891  0.71329571  1  0.072989  -0.004257  -0.08471  -0.187448  -0.002298  3.921635  -0.003
C  C116  1  0.29622329  0.76894018  0.76179974  1  0.043369  -0.011348  -0.017637  -0.016105  -0.006726  3.979453  -0.009
C  C117  1  0.70402177  0.73137064  0.26189413  1  0.043635  -0.012287  -0.017705  -0.01619  -0.007277  3.981512  -0.009
C  C118  1  0.70382707  0.22985968  0.23773610  1  -0.06179  -0.002044  -0.017858  -0.016698  -0.001151  3.980087  -0.002
C  C119  1  0.29642972  0.27012310  0.73769684  1  -0.071514  0.003014  -0.017692  -0.016231  0.001797  3.979809  0.002
C  C120  1  0.38571523  0.78005918  0.80871153  1  -0.057738  -0.0006  -0.080464  -0.122397  -0.000387  3.931444  -0.001
C  C121  1  0.61454675  0.72007396  0.30884314  1  -0.063483  -0.001743  -0.080407  -0.121655  -0.000992  3.932295  -0.001
C  C122  1  0.61439912  0.21819336  0.19067924  1  -0.05588  -0.003456  -0.080457  -0.121563  -0.001932  3.932004  -0.002
C  C123  1  0.38587728  0.28159617  0.69070483  1  -0.051355  -0.002089  -0.080483  -0.121334  -0.001156  3.932333  -0.001
C  C124  1  0.99765416  0.57409091  0.90938369  1  0.387329  -0.001949  -0.061203  -0.11876  -0.001323  3.849519  -0.001
C  C125  1  0.00288932  0.92582171  0.40898855  1  0.386129  -0.001636  -0.060935  -0.118502  -0.001136  3.84864  -0.001
C  C126  1  0.00301893  0.42537609  0.09108174  1  0.380863  0.001126  -0.061215  -0.119321  0.000889  3.848075  0.001
C  C127  1  0.99770818  0.07451956  0.59031229  1  0.384929  -0.004659  -0.061962  -0.120611  -0.002663  3.848257  -0.003
C  C128  1  0.88245968  0.55903914  0.94176752  1  1.576871  -0.009072  0.219136  0.603241  -0.005518  4.142541  -0.007
C  C129  1  0.11778447  0.94083327  0.44179479  1  1.578636  -0.005392  0.219708  0.605097  -0.002975  4.14035  -0.004
C  C130  1  0.11839925  0.44064792  0.05885562  1  1.575124  0.005828  0.220494  0.605768  0.003328  4.140804  0.004
C  C131  1  0.88209018  0.05922858  0.55838489  1  1.576523  -0.004328  0.22058  0.607275  -0.004061  4.139421  -0.003
C  C132  1  0.31755769  0.78732045  0.68471350  1  1.551468  0.001053  0.21622  0.600077  -0.000953  4.155341  0.003
C  C133  1  0.68275318  0.71360410  0.18476272  1  1.555747  -0.002398  0.21576  0.596524  -0.003366  4.15684  0.0
C  C134  1  0.68244144  0.21210594  0.31486468  1  1.554686  2e-06  0.217002  0.601904  -0.000339  4.153666  -0.001
C  C135  1  0.31773854  0.28828691  0.81481089  1  1.560535  -4.4e-05  0.216688  0.600303  0.000456  4.157706  0.0
C  C136  1  0.81296762  0.78779762  0.82582486  1  1.546911  0.000915  0.215469  0.592243  0.000299  4.151454  0.0
C  C137  1  0.18663738  0.71225109  0.32579871  1  1.549761  0.001209  0.214911  0.590878  0.000497  4.151932  0.001
C  C138  1  0.18642758  0.21242869  0.17495951  1  1.565746  -0.001238  0.215484  0.592938  -0.002474  4.154629  0.001
C  C139  1  0.81360532  0.28716138  0.67490986  1  1.561909  -0.001105  0.215403  0.593724  -0.00239  4.154283  0.001
C  C140  1  0.79225694  0.76612110  0.74896873  1  -0.036346  -0.000744  -0.019613  -0.019644  -0.000399  3.98713  0.0
C  C141  1  0.20711295  0.73384336  0.24888588  1  -0.101048  -0.001098  -0.019087  -0.018757  -0.000616  3.986955  -0.001
C  C142  1  0.20721532  0.23417296  0.25167991  1  -0.023166  -0.00998  -0.019653  -0.0192  -0.005921  3.991635  -0.008
C  C143  1  0.79272538  0.26551166  0.75164083  1  -0.023205  -0.009392  -0.019877  -0.020145  -0.005629  3.992466  -0.007
C  C144  1  0.67881817  0.73007291  0.72413681  1  0.085715  -0.003558  -0.083903  -0.186993  -0.00198  3.916916  -0.002
C  C145  1  0.32046180  0.76980179  0.22388917  1  0.093018  -0.001824  -0.084901  -0.189193  -0.001006  3.915033  -0.001
C  C146  1  0.32084301  0.27028243  0.27612980  1  -0.043106  -0.001066  -0.084381  -0.189284  -0.000666  3.916701  -0.001
C  C147  1  0.67906066  0.22919403  0.77604017  1  -0.0457  -0.003082  -0.083673  -0.187998  -0.001677  3.916446  -0.002
C  C148  1  0.65703366  0.70479810  0.65342673  1  0.394969  0.000479  0.079219  0.249375  0.000228  4.037255  0.001
C  C149  1  0.34202439  0.79501567  0.15312919  1  0.335691  0.000703  0.079807  0.25033  0.000332  4.036201  0.001
C  C150  1  0.34316713  0.29578357  0.34671672  1  0.452438  -0.000625  0.078681  0.250544  -0.000106  4.041754  -0.001
C  C151  1  0.65665238  0.20376113  0.84665183  1  0.453878  0.000187  0.078619  0.25045  8.5e-05  4.042685  0.001
C  C152  1  0.74564601  0.71180423  0.60727703  1  -0.046989  -0.003451  -0.080454  -0.173876  -0.001814  3.913323  -0.002
C  C153  1  0.25320944  0.78793438  0.10709822  1  0.016623  -0.00131  -0.080128  -0.1743  -0.000644  3.912403  -0.001
C  C154  1  0.25502795  0.28883679  0.39319082  1  -0.04596  -0.001487  -0.08054  -0.176682  -0.000909  3.91757  -0.001
C  C155  1  0.74482211  0.21100866  0.89319002  1  -0.046794  -0.003041  -0.080649  -0.176464  -0.001675  3.917167  -0.002
C  C156  1  0.85885685  0.74967367  0.63190059  1  0.015905  0.000734  -0.017548  -0.020346  0.000396  3.994703  0.001
C  C157  1  0.14006711  0.75024488  0.13190814  1  -0.017914  0.00696  -0.017614  -0.020018  0.004159  3.994925  0.006
C  C158  1  0.14168286  0.25093116  0.36885444  1  0.068099  -0.010846  -0.017726  -0.019192  -0.006487  3.995928  -0.008
C  C159  1  0.85820731  0.24913837  0.86890723  1  0.068745  -0.001439  -0.018273  -0.01995  -0.000847  3.996405  -0.001
C  C160  1  0.88267926  0.77845445  0.70249125  1  -0.037549  -0.003094  -0.080878  -0.121689  -0.001685  3.930781  -0.002
C  C161  1  0.11651661  0.72154436  0.20254386  1  0.024128  -0.001902  -0.081493  -0.123141  -0.000994  3.932202  -0.001
C  C162  1  0.11718482  0.22194042  0.29836177  1  -0.044414  -0.002379  -0.080287  -0.121437  -0.001366  3.93124  -0.002
C  C163  1  0.88275460  0.27805139  0.79839835  1  -0.042537  -0.005008  -0.080605  -0.122119  -0.002794  3.932026  -0.003
C  C164  1  0.49828581  0.56876301  0.59477142  1  0.382474  -0.004582  -0.061855  -0.123052  -0.002576  3.846557  -0.003
C  C165  1  0.50067476  0.93109467  0.09429489  1  0.344483  -0.004654  -0.061621  -0.122679  -0.002612  3.844889  -0.003
C  C166  1  0.50234031  0.43255226  0.40442446  1  0.360757  -0.001792  -0.061314  -0.12074  -0.001256  3.843822  -0.002
C  C167  1  0.49766202  0.06712742  0.90462676  1  0.367291  -0.004497  -0.061326  -0.121163  -0.00253  3.846203  -0.003
C  C168  1  0.38111866  0.55372835  0.56504542  1  1.592817  -0.005375  0.221198  0.606651  -0.004861  4.133199  -0.004
C  C169  1  0.61808774  0.94643229  0.06476773  1  1.577904  -0.005373  0.220976  0.605342  -0.004854  4.133284  -0.004
C  C170  1  0.61976298  0.44737812  0.43352741  1  1.583532  -0.006412  0.21952  0.603899  -0.003621  4.139937  -0.005
C  C171  1  0.38012891  0.05227598  0.93357634  1  1.580607  -0.00424  0.219226  0.604319  -0.003954  4.141589  -0.003
C  C172  1  0.95394571  0.75762574  0.58183279  1  1.541895  -0.002035  0.217657  0.582533  -0.001375  4.160166  -0.002
C  C173  1  0.04501836  0.74285349  0.08198162  1  1.562359  -0.00234  0.218275  0.581834  -0.00063  4.154841  -0.003
C  C174  1  0.04696902  0.24297207  0.41908786  1  1.55357  0.001138  0.217122  0.582408  -0.000676  4.162824  0.003
C  C175  1  0.95295773  0.25724417  0.91916534  1  1.553182  0.001508  0.21783  0.584128  0.000914  4.161074  0.002
O  O176  1  0.42471754  0.70837689  0.98762047  1  -1.154766  -0.066866  -0.320888  -0.573527  -0.037904  2.399476  -0.062
O  O177  1  0.57577941  0.79009722  0.48811855  1  -1.155342  -0.071426  -0.320896  -0.573743  -0.040614  2.395352  -0.066
O  O178  1  0.57485653  0.28770290  0.01143523  1  -1.153521  -0.067294  -0.320379  -0.574326  -0.038145  2.399587  -0.063
O  O179  1  0.42524952  0.21144022  0.51164276  1  -1.155069  0.064808  -0.321153  -0.574701  0.037991  2.395462  0.06
O  O180  1  0.55778090  0.82273889  0.91235992  1  -1.132284  -0.055486  -0.304356  -0.537213  -0.03166  2.360537  -0.051
O  O181  1  0.44236159  0.67730577  0.41241982  1  -1.13379  -0.057066  -0.304735  -0.537516  -0.032446  2.354727  -0.053
O  O182  1  0.44239306  0.17390127  0.08733717  1  -1.139129  -0.055244  -0.304366  -0.540153  -0.031369  2.340892  -0.051
O  O183  1  0.55770465  0.32618906  0.58720643  1  -1.140198  -0.056756  -0.303996  -0.53999  -0.03253  2.3382  -0.051
O  O184  1  0.04728540  0.68537613  0.88039284  1  -1.0762  0.022454  -0.191321  -0.235574  0.013761  2.619112  0.019
O  O185  1  0.95294175  0.81423180  0.38053008  1  -1.076378  0.02351  -0.191194  -0.235348  0.014372  2.620757  0.021
O  O186  1  0.95308068  0.31367485  0.11945531  1  -1.077113  -0.024619  -0.191697  -0.235585  -0.014621  2.625415  -0.022
O  O187  1  0.04713459  0.18565519  0.61946307  1  -1.077419  -0.025635  -0.191212  -0.234816  -0.015128  2.624191  -0.022
O  O188  1  0.81482222  0.46155188  0.95771450  1  -1.194367  0.001517  -0.305543  -0.548934  0.001257  2.197214  0.002
O  O189  1  0.18553919  0.03833767  0.45748222  1  -1.192154  0.004489  -0.304405  -0.547953  0.002726  2.197892  0.004
O  O190  1  0.18655562  0.53816216  0.04363185  1  -1.188981  -0.004584  -0.304871  -0.547405  -0.002607  2.196022  -0.004
O  O191  1  0.81410073  0.96180081  0.54300872  1  -1.190588  -0.013714  -0.303891  -0.546304  -0.007184  2.195541  -0.011
O  O192  1  0.85942187  0.64730810  0.95254032  1  -1.130217  0.014248  -0.300364  -0.556464  0.008699  2.543302  0.019
O  O193  1  0.14037020  0.85245949  0.45314101  1  -1.133992  0.019561  -0.301385  -0.560707  0.011368  2.548829  0.02
O  O194  1  0.14087887  0.35220737  0.04747177  1  -1.133989  -0.023377  -0.302692  -0.562838  -0.012801  2.544669  -0.024
O  O195  1  0.85914613  0.14758855  0.54745893  1  -1.133789  -0.091689  -0.303591  -0.565559  -0.052992  2.549775  -0.082
O  O196  1  0.22825305  0.75515303  0.64625860  1  -1.128453  -0.075993  -0.30967  -0.543054  -0.042488  2.360028  -0.07
O  O197  1  0.77217277  0.74654315  0.14640299  1  -1.124638  -0.08826  -0.305487  -0.532078  -0.048291  2.35344  -0.077
O  O198  1  0.77173174  0.24420437  0.35325723  1  -1.1241  -0.071725  -0.309578  -0.542156  -0.040739  2.352949  -0.065
O  O199  1  0.22820754  0.25707876  0.85302412  1  -1.12853  0.070796  -0.308946  -0.541676  0.041085  2.357984  0.065
O  O200  1  0.42147286  0.83194756  0.66336327  1  -1.157099  -0.065521  -0.327692  -0.586126  -0.037004  2.330717  -0.059
O  O201  1  0.57884757  0.66892410  0.16337628  1  -1.155521  -0.068945  -0.327141  -0.58366  -0.038914  2.331278  -0.062
O  O202  1  0.57832986  0.16807211  0.33605549  1  -1.158048  0.061639  -0.328345  -0.587623  0.036067  2.328555  0.055
O  O203  1  0.42174404  0.33171134  0.83619807  1  -1.158865  -0.062462  -0.328064  -0.586041  -0.035775  2.328541  -0.056
O  O204  1  0.72539930  0.75208358  0.86531134  1  -1.130368  -0.066955  -0.306066  -0.53469  -0.038333  2.351146  -0.061
O  O205  1  0.27435985  0.74820233  0.36513697  1  -1.130686  -0.066867  -0.305621  -0.532917  -0.038179  2.351016  -0.061
O  O206  1  0.27435435  0.24869979  0.13574599  1  -1.138137  -0.0764  -0.303879  -0.532534  -0.042959  2.345647  -0.07
O  O207  1  0.72569360  0.25096301  0.63565653  1  -1.13275  -0.075343  -0.304192  -0.533579  -0.04215  2.34563  -0.069
O  O208  1  0.91663398  0.84138242  0.84659512  1  -1.171818  0.059906  -0.328689  -0.599806  0.035096  2.318886  0.053
O  O209  1  0.08308700  0.65856056  0.34672911  1  -1.172697  0.058578  -0.328535  -0.600477  0.034309  2.317525  0.052
O  O210  1  0.08304763  0.15844498  0.15393412  1  -1.172948  -0.062313  -0.328443  -0.600612  -0.035235  2.321593  -0.056
O  O211  1  0.91700742  0.34088800  0.65387516  1  -1.175827  -0.06354  -0.327606  -0.599961  -0.035893  2.320465  -0.057
O  O212  1  0.54395969  0.67524674  0.63028539  1  -1.069397  -0.025197  -0.18713  -0.2256  -0.014844  2.61381  -0.021
O  O213  1  0.45502936  0.82458215  0.12985134  1  -1.063306  -0.024274  -0.186977  -0.224907  -0.014334  2.611195  -0.02
O  O214  1  0.45641410  0.32562225  0.36941100  1  -1.072897  0.024509  -0.186761  -0.226324  0.014894  2.620095  0.021
O  O215  1  0.54338635  0.17374896  0.86925319  1  -1.074274  -0.025134  -0.186809  -0.225739  -0.0148  2.619318  -0.021
O  O216  1  0.35737762  0.64220441  0.55479123  1  -1.136116  -0.10138  -0.307188  -0.570658  -0.058419  2.555079  -0.091
O  O217  1  0.64197086  0.85806187  0.05450279  1  -1.131353  -0.101611  -0.306958  -0.568491  -0.058748  2.555539  -0.091
O  O218  1  0.64335682  0.35872964  0.44284305  1  -1.133027  0.026588  -0.303345  -0.565623  0.015269  2.528883  0.027
O  O219  1  0.35639934  0.14087434  0.94273079  1  -1.135426  -0.102486  -0.304376  -0.5674  -0.059311  2.529141  -0.092
O  O220  1  0.31247588  0.45671887  0.55077773  1  -1.183319  -0.015732  -0.297601  -0.522292  -0.008215  2.205001  -0.013
O  O221  1  0.68673509  0.04349578  0.05057508  1  -1.168274  -0.015613  -0.297695  -0.522307  -0.008193  2.205196  -0.013
O  O222  1  0.68858977  0.54422051  0.44816826  1  -1.17667  0.00519  -0.298776  -0.523331  0.00311  2.203437  0.004
O  O223  1  0.31125906  0.95540970  0.94817613  1  -1.172261  -0.013175  -0.29873  -0.523508  -0.007048  2.204086  -0.011
O  O224  1  0.92438544  0.69406114  0.52722052  1  -1.158644  0.061119  -0.313962  -0.574213  0.035948  2.38259  0.057
O  O225  1  0.07457850  0.80584013  0.02717211  1  -1.158522  0.062475  -0.312454  -0.572903  0.036503  2.384965  0.059
O  O226  1  0.07678157  0.30572328  0.47395182  1  -1.165018  -0.069792  -0.313943  -0.573281  -0.039743  2.380731  -0.064
O  O227  1  0.92334349  0.19412006  0.97390989  1  -1.164795  -0.067042  -0.313502  -0.573364  -0.038627  2.379219  -0.062
O  O228  1  0.05417797  0.82420406  0.59653155  1  -1.145433  -0.055032  -0.297542  -0.526628  -0.031607  2.302653  -0.05
O  O229  1  0.94448062  0.67700223  0.09716921  1  -1.132935  0.024575  -0.294259  -0.516792  0.014006  2.317448  0.022
O  O230  1  0.94664314  0.17682521  0.40405573  1  -1.143935  -0.052831  -0.298629  -0.52885  -0.030036  2.310964  -0.048
O  O231  1  0.05313274  0.32382729  0.90414845  1  -1.143339  0.053677  -0.299049  -0.530012  0.031588  2.310888  0.049
O  O232  1  0.64258539  0.66916331  0.00693714  1  -1.14035  -0.145869  -0.545231  -0.849686  -0.082592  2.38205  -0.132
O  O233  1  0.36012347  0.83190200  0.50537912  1  -1.137735  -0.242218  -0.554125  -0.870679  -0.138047  2.379563  -0.217
O  O234  1  0.36030967  0.33217219  0.99271426  1  -1.146384  -0.111678  -0.550323  -0.867087  -0.062142  2.352005  -0.1
O  O235  1  0.63959316  0.16791962  0.49268238  1  -1.145145  -0.05771  -0.550579  -0.867271  -0.033908  2.348144  -0.049
O  O236  1  0.85719541  0.83684683  0.00136821  1  -1.123773  0.093248  -0.548861  -0.854232  0.052432  2.376565  0.083
O  O237  1  0.14250504  0.66368241  0.50197993  1  -1.132908  -0.051306  -0.554411  -0.867306  -0.030647  2.37577  -0.044
O  O238  1  0.14069534  0.16385878  0.99698861  1  -1.131124  -0.090816  -0.553735  -0.867892  -0.050749  2.364628  -0.083
O  O239  1  0.85970835  0.33740968  0.49711650  1  -1.126085  -0.242204  -0.554545  -0.869573  -0.13782  2.369529  -0.217
O  O240  1  0.39617473  0.53565559  0.08072719  1  -1.200032  -0.045904  -0.544796  -0.727245  -0.02662  2.143524  -0.039
O  O241  1  0.60453044  0.96405044  0.58040850  1  -1.23206  -0.045449  -0.544753  -0.728034  -0.026158  2.142465  -0.038
O  O242  1  0.60500471  0.46271215  0.91984850  1  -1.21396  -0.046015  -0.545636  -0.729864  -0.026592  2.140784  -0.039
O  O243  1  0.39505207  0.03722810  0.41917511  1  -1.197423  0.042158  -0.544394  -0.728223  0.025253  2.142809  0.037
O  O244  1  0.71594208  0.50873113  0.08621368  1  -1.190421  0.040032  -0.552217  -0.711465  0.023503  2.105087  0.034
O  O245  1  0.28387054  0.98965256  0.58560386  1  -1.188858  -0.049395  -0.552986  -0.715661  -0.028688  2.114314  -0.043
O  O246  1  0.28378934  0.48997780  0.91434248  1  -1.203636  0.046043  -0.552886  -0.715978  0.02754  2.117448  0.041
O  O247  1  0.71627734  0.01080705  0.41383004  1  -1.187962  -0.049481  -0.553194  -0.715709  -0.028743  2.112319  -0.043
O  O248  1  0.79469691  0.98219207  0.91136591  1  -1.227853  -0.04677  -0.561869  -0.727415  -0.027296  2.134153  -0.041
O  O249  1  0.20503458  0.51822441  0.41153660  1  -1.20832  -0.050283  -0.563393  -0.729282  -0.029275  2.1326  -0.043
O  O250  1  0.19914693  0.01451555  0.09092747  1  -1.20319  -0.045851  -0.56291  -0.72824  -0.026629  2.108514  -0.04
O  O251  1  0.80054882  0.48579352  0.59113302  1  -1.202375  -0.049613  -0.562924  -0.728384  -0.028688  2.106655  -0.043
O  O252  1  0.10702227  0.96062275  0.92185246  1  -1.216304  0.045802  -0.543315  -0.725976  0.027501  2.184933  0.039
O  O253  1  0.89281292  0.53958653  0.42185377  1  -1.214007  0.044258  -0.543201  -0.725855  0.026678  2.184851  0.038
O  O254  1  0.89170713  0.03947965  0.07891722  1  -1.246897  -0.045201  -0.543213  -0.725561  -0.026174  2.182063  -0.039
O  O255  1  0.10777421  0.46062006  0.57887303  1  -1.215882  -0.046866  -0.543264  -0.725183  -0.027082  2.179529  -0.04
