# generated using pymatgen
data_AgH5C6S(NO)2
_symmetry_space_group_name_H-M   'P 1'
_cell_length_a   6.80527210
_cell_length_b   9.92586354
_cell_length_c   10.74137607
_cell_angle_alpha   89.99983124
_cell_angle_beta   90.00005971
_cell_angle_gamma   100.18291067
_symmetry_Int_Tables_number   1
_chemical_formula_structural   AgH5C6S(NO)2
_chemical_formula_sum   'Ag4 H20 C24 S4 N8 O8'
_cell_volume   714.13188941
_cell_formula_units_Z   4
loop_
 _symmetry_equiv_pos_site_id
 _symmetry_equiv_pos_as_xyz
  1  'x, y, z'
loop_
 _atom_site_type_symbol
 _atom_site_label
 _atom_site_symmetry_multiplicity
 _atom_site_fract_x
 _atom_site_fract_y
 _atom_site_fract_z
 _atom_site_occupancy
 _atom_site_hle17_bader_spin_density
 _atom_site_hle17_ddec_charge
 _atom_site_hle17_ddec_spin_density
 _atom_site_hle17_ddec_sum_bond_order
 _atom_site_hle17_magmom
 _atom_site_hse06_10hf_bader_spin_density
 _atom_site_hse06_10hf_ddec_charge
 _atom_site_hse06_10hf_ddec_spin_density
 _atom_site_hse06_10hf_ddec_sum_bond_order
 _atom_site_hse06_10hf_magmom
 _atom_site_hse06_bader_spin_density
 _atom_site_hse06_ddec_charge
 _atom_site_hse06_ddec_spin_density
 _atom_site_hse06_ddec_sum_bond_order
 _atom_site_hse06_magmom
 _atom_site_pbe_bader_spin_density
 _atom_site_pbe_cm5_charge
 _atom_site_pbe_ddec_charge
 _atom_site_pbe_ddec_spin_density
 _atom_site_pbe_ddec_sum_bond_order
 _atom_site_pbe_magmom
Ag  Ag0  1  0.83299925  0.07450156  0.02273002  1  0  0.424529  0  1.6232  0  0  0.291576  0  2.10929  0  0  0.319684  0  2.059425  0  0  0.404286  0.270173  0  2.146451  0
Ag  Ag1  1  0.66699879  0.92550327  0.52272906  1  0  0.424538  0  1.623235  0  0  0.291559  0  2.1094  0  0  0.319679  0  2.059507  0  0  0.404285  0.270157  0  2.146559  0
Ag  Ag2  1  0.16700179  0.92549887  0.97726843  1  0  0.424521  0  1.623213  0  0  0.29156  0  2.109348  0  0  0.319668  0  2.059482  0  0  0.404274  0.270158  0  2.14651  0
Ag  Ag3  1  0.33298775  0.07449196  0.47727405  1  0  0.424595  0  1.623265  0  0  0.291593  0  2.109414  0  0  0.319703  0  2.059538  0  0  0.404297  0.27019  0  2.146576  0
H  H4  1  0.54933434  0.94533816  0.24092153  1  0  0.115937  0  0.971456  0  0  0.118154  0  1.043846  0  0  0.122821  0  1.039346  0  0  0.113407  0.114521  0  1.047337  0
H  H5  1  0.95066318  0.05466901  0.74092391  1  0  0.115906  0  0.971588  0  0  0.118218  0  1.043845  0  0  0.122884  0  1.039349  0  0  0.113461  0.114583  0  1.047337  0
H  H6  1  0.45066939  0.05466126  0.75907600  1  0  0.115915  0  0.971433  0  0  0.118194  0  1.043782  0  0  0.122864  0  1.039276  0  0  0.113387  0.114559  0  1.047274  0
H  H7  1  0.04932856  0.94533545  0.25907361  1  0  0.115896  0  0.971486  0  0  0.118203  0  1.043785  0  0  0.122872  0  1.03928  0  0  0.113402  0.114568  0  1.047278  0
H  H8  1  0.65428243  0.61746052  0.45707679  1  0  0.112485  0  0.930225  0  0  0.120781  0  0.99132  0  0  0.124332  0  0.988376  0  0  0.122331  0.118112  0  0.993487  0
H  H9  1  0.84571995  0.38254701  0.95707826  1  0  0.112558  0  0.930353  0  0  0.12082  0  0.991472  0  0  0.124371  0  0.988531  0  0  0.122362  0.118151  0  0.993638  0
H  H10  1  0.34572865  0.38253895  0.54291981  1  0  0.11255  0  0.93016  0  0  0.120833  0  0.991242  0  0  0.124384  0  0.988301  0  0  0.12235  0.118163  0  0.993407  0
H  H11  1  0.15427768  0.61745749  0.04292113  1  0  0.112451  0  0.930247  0  0  0.120761  0  0.991316  0  0  0.124312  0  0.988375  0  0  0.122321  0.118094  0  0.993481  0
H  H12  1  0.80222962  0.70076837  0.90716896  1  0  0.134062  0  0.93493  0  0  0.144894  0  1.001802  0  0  0.147262  0  1.000094  0  0  0.10907  0.142921  0  1.003329  0
H  H13  1  0.69776604  0.29923008  0.40716926  1  0  0.134047  0  0.93502  0  0  0.144864  0  1.001871  0  0  0.147233  0  1.000163  0  0  0.109043  0.142896  0  1.003393  0
H  H14  1  0.19777041  0.29922796  0.09283415  1  0  0.134068  0  0.93488  0  0  0.144884  0  1.001768  0  0  0.147259  0  1.000057  0  0  0.10906  0.142895  0  1.003314  0
H  H15  1  0.30223159  0.70077442  0.59282733  1  0  0.134055  0  0.934984  0  0  0.144884  0  1.001825  0  0  0.147256  0  1.000111  0  0  0.109045  0.142901  0  1.003362  0
H  H16  1  0.54399211  0.62706862  0.90145928  1  0  0.144743  0  0.927432  0  0  0.155067  0  0.991545  0  0  0.157387  0  0.990188  0  0  0.114186  0.153469  0  0.992612  0
H  H17  1  0.95600678  0.37293702  0.40146141  1  0  0.144746  0  0.927456  0  0  0.155085  0  0.991518  0  0  0.157405  0  0.99016  0  0  0.114173  0.153484  0  0.992587  0
H  H18  1  0.45601532  0.37293388  0.09854569  1  0  0.144764  0  0.927319  0  0  0.155072  0  0.991463  0  0  0.157398  0  0.990106  0  0  0.114179  0.153473  0  0.99253  0
H  H19  1  0.04398518  0.62706234  0.59853984  1  0  0.144736  0  0.927408  0  0  0.155046  0  0.991545  0  0  0.157366  0  0.990189  0  0  0.114168  0.153446  0  0.99261  0
H  H20  1  0.69252822  0.48160322  0.25842552  1  0  0.095932  0  0.969588  0  0  0.100459  0  1.03568  0  0  0.103698  0  1.034036  0  0  0.115381  0.097821  0  1.037244  0
H  H21  1  0.80747689  0.51839883  0.75842569  1  0  0.095821  0  0.969654  0  0  0.100417  0  1.035686  0  0  0.103656  0  1.034043  0  0  0.11537  0.097783  0  1.037246  0
H  H22  1  0.30748509  0.51839932  0.74157387  1  0  0.095817  0  0.969501  0  0  0.100337  0  1.035628  0  0  0.103576  0  1.033985  0  0  0.115348  0.097705  0  1.037179  0
H  H23  1  0.19251973  0.48160157  0.24157370  1  0  0.095863  0  0.969598  0  0  0.100455  0  1.035636  0  0  0.103694  0  1.033992  0  0  0.115383  0.097818  0  1.037198  0
C  C24  1  0.58169372  0.84160375  0.24530938  1  0  0.032138  0  3.652016  0  0  -0.001277  0  3.904759  0  0  0.000886  0  3.921991  0  0  0.039693  -0.002841  0  3.893583  0
C  C25  1  0.91831730  0.15840452  0.74531148  1  0  0.032124  0  3.651886  0  0  -0.001396  0  3.904721  0  0  0.000765  0  3.921954  0  0  0.03964  -0.002962  0  3.893547  0
C  C26  1  0.41831001  0.15839567  0.75469280  1  0  0.032175  0  3.65186  0  0  -0.001372  0  3.904717  0  0  0.000792  0  3.921947  0  0  0.039693  -0.002934  0  3.893539  0
C  C27  1  0.08168083  0.84160203  0.25468326  1  0  0.032254  0  3.651727  0  0  -0.001306  0  3.904608  0  0  0.000857  0  3.921843  0  0  0.039722  -0.002868  0  3.89343  0
C  C28  1  0.63830311  0.65836672  0.36414264  1  0  0.058578  0  3.643834  0  0  0.020508  0  3.906994  0  0  0.024788  0  3.922389  0  0  0.037866  0.017719  0  3.897019  0
C  C29  1  0.86169179  0.34163493  0.86414888  1  0  0.058552  0  3.643919  0  0  0.020538  0  3.907125  0  0  0.024819  0  3.922519  0  0  0.037849  0.017751  0  3.89715  0
C  C30  1  0.36170137  0.34163577  0.63586327  1  0  0.058427  0  3.644116  0  0  0.020385  0  3.907299  0  0  0.024665  0  3.922695  0  0  0.037812  0.017596  0  3.897327  0
C  C31  1  0.13830655  0.65836650  0.13585516  1  0  0.058597  0  3.643767  0  0  0.020563  0  3.906966  0  0  0.024844  0  3.922358  0  0  0.037907  0.017774  0  3.896992  0
C  C32  1  0.65235353  0.72142684  0.88633450  1  0  -0.28767  0  3.592602  0  0  -0.32248  0  3.841876  0  0  -0.326363  0  3.847089  0  0  -0.146469  -0.319803  0  3.838065  0
C  C33  1  0.84764580  0.27857477  0.38633960  1  0  -0.287795  0  3.592722  0  0  -0.322605  0  3.842022  0  0  -0.326493  0  3.847239  0  0  -0.146467  -0.319932  0  3.838216  0
C  C34  1  0.34764553  0.27857154  0.11366861  1  0  -0.287674  0  3.592628  0  0  -0.322488  0  3.841923  0  0  -0.326395  0  3.847165  0  0  -0.146469  -0.319806  0  3.838123  0
C  C35  1  0.15235376  0.72142565  0.61365979  1  0  -0.287754  0  3.592723  0  0  -0.322539  0  3.84193  0  0  -0.326427  0  3.847149  0  0  -0.146453  -0.31985  0  3.838122  0
C  C36  1  0.60767740  0.76622043  0.13752348  1  0  0.130089  0  3.797961  0  0  0.137245  0  4.062198  0  0  0.141343  0  4.083473  0  0  0.117057  0.134179  0  4.048932  0
C  C37  1  0.89233255  0.23379023  0.63752537  1  0  0.130115  0  3.798028  0  0  0.137382  0  4.06212  0  0  0.14148  0  4.083394  0  0  0.117032  0.134317  0  4.048854  0
C  C38  1  0.39232704  0.23377593  0.86247684  1  0  0.130123  0  3.797838  0  0  0.137319  0  4.062067  0  0  0.141417  0  4.083342  0  0  0.117029  0.134255  0  4.048798  0
C  C39  1  0.10766609  0.76621836  0.36247216  1  0  0.130047  0  3.7978  0  0  0.137284  0  4.061959  0  0  0.141381  0  4.083236  0  0  0.117034  0.134219  0  4.048691  0
C  C40  1  0.64357861  0.76966176  0.75198852  1  0  0.69726  0  3.88831  0  0  0.648009  0  4.185283  0  0  0.681626  0  4.18072  0  0  0.190483  0.625537  0  4.18592  0
C  C41  1  0.85642519  0.23032906  0.25198631  1  0  0.697292  0  3.888326  0  0  0.648017  0  4.185289  0  0  0.681642  0  4.180712  0  0  0.190457  0.625531  0  4.18595  0
C  C42  1  0.35641966  0.23032740  0.24800808  1  0  0.697308  0  3.888276  0  0  0.648069  0  4.185228  0  0  0.681693  0  4.180664  0  0  0.190484  0.625601  0  4.185857  0
C  C43  1  0.14357677  0.76966320  0.74801029  1  0  0.69732  0  3.888009  0  0  0.648054  0  4.184977  0  0  0.681675  0  4.180409  0  0  0.190539  0.625572  0  4.185626  0
C  C44  1  0.65876306  0.58502890  0.25589683  1  0  0.088641  0  3.68111  0  0  0.066121  0  3.944639  0  0  0.068009  0  3.960828  0  0  0.050374  0.064129  0  3.935075  0
C  C45  1  0.84123691  0.41497620  0.75589729  1  0  0.088761  0  3.680985  0  0  0.06615  0  3.944591  0  0  0.068038  0  3.96078  0  0  0.050384  0.064159  0  3.93502  0
C  C46  1  0.34125190  0.41496241  0.74410163  1  0  0.088801  0  3.681266  0  0  0.066274  0  3.944827  0  0  0.068161  0  3.961018  0  0  0.050394  0.064284  0  3.935259  0
C  C47  1  0.15875778  0.58502828  0.24410303  1  0  0.088797  0  3.681027  0  0  0.066188  0  3.944608  0  0  0.068077  0  3.960795  0  0  0.05038  0.064196  0  3.935043  0
S  S48  1  0.59405401  0.84935186  0.99321820  1  0  0.043977  0  2.830135  0  0  0.067757  0  3.260999  0  0  0.062474  0  3.249545  0  0  0.028274  0.071142  0  3.269483  0
S  S49  1  0.90594693  0.15065554  0.49322088  1  0  0.044005  0  2.830314  0  0  0.067733  0  3.261132  0  0  0.062447  0  3.249683  0  0  0.028257  0.071116  0  3.269617  0
S  S50  1  0.40594972  0.15064756  0.00678584  1  0  0.043934  0  2.83004  0  0  0.06771  0  3.2609  0  0  0.062431  0  3.249455  0  0  0.028261  0.071093  0  3.269381  0
S  S51  1  0.09404283  0.84934687  0.50678224  1  0  0.044024  0  2.830236  0  0  0.067769  0  3.261061  0  0  0.062484  0  3.24961  0  0  0.028241  0.071154  0  3.269537  0
N  N52  1  0.60006964  0.78729676  0.35765633  1  0  -0.247063  0  3.331195  0  0  -0.169947  0  3.615196  0  0  -0.184882  0  3.632337  0  0  -0.332587  -0.159238  0  3.604097  0
N  N53  1  0.89993387  0.21271007  0.85766014  1  0  -0.247073  0  3.331264  0  0  -0.170013  0  3.615334  0  0  -0.18495  0  3.632475  0  0  -0.332593  -0.159303  0  3.604237  0
N  N54  1  0.39993754  0.21270473  0.64234120  1  0  -0.247049  0  3.331125  0  0  -0.169902  0  3.615137  0  0  -0.184832  0  3.632269  0  0  -0.332565  -0.159193  0  3.604039  0
N  N55  1  0.10006300  0.78729135  0.14233646  1  0  -0.247103  0  3.331329  0  0  -0.170052  0  3.615446  0  0  -0.184988  0  3.632586  0  0  -0.332646  -0.159341  0  3.604345  0
N  N56  1  0.64462814  0.63860646  0.14195605  1  0  -0.287212  0  3.054323  0  0  -0.25724  0  3.318365  0  0  -0.265195  0  3.333955  0  0  -0.303663  -0.252564  0  3.30941  0
N  N57  1  0.85537614  0.36139903  0.64195572  1  0  -0.287219  0  3.054521  0  0  -0.257243  0  3.318543  0  0  -0.265198  0  3.334134  0  0  -0.303612  -0.252565  0  3.309585  0
N  N58  1  0.35537534  0.36139193  0.85804520  1  0  -0.287231  0  3.054298  0  0  -0.257244  0  3.318326  0  0  -0.265198  0  3.333914  0  0  -0.303586  -0.252569  0  3.30937  0
N  N59  1  0.14461854  0.63860545  0.35804180  1  0  -0.287278  0  3.054418  0  0  -0.257273  0  3.318427  0  0  -0.265229  0  3.334019  0  0  -0.303624  -0.252595  0  3.30947  0
O  O60  1  0.61226054  0.89188255  0.73358662  1  0  -0.631586  0  2.031882  0  0  -0.549179  0  2.290333  0  0  -0.580818  0  2.281651  0  0  -0.334076  -0.526444  0  2.294772  0
O  O61  1  0.88774774  0.10812062  0.23359125  1  0  -0.631548  0  2.032232  0  0  -0.549064  0  2.290607  0  0  -0.5807  0  2.281921  0  0  -0.33401  -0.52633  0  2.295059  0
O  O62  1  0.38773873  0.10811071  0.26641371  1  0  -0.631635  0  2.032011  0  0  -0.549148  0  2.290371  0  0  -0.580781  0  2.281685  0  0  -0.33406  -0.52642  0  2.294816  0
O  O63  1  0.11225822  0.89188188  0.76640814  1  0  -0.631558  0  2.031826  0  0  -0.549132  0  2.290254  0  0  -0.580768  0  2.281571  0  0  -0.33405  -0.526394  0  2.294698  0
O  O64  1  0.66971624  0.68559468  0.66894155  1  0  -0.624817  0  1.908882  0  0  -0.570424  0  2.138114  0  0  -0.597036  0  2.13148  0  0  -0.32561  -0.54882  0  2.141258  0
O  O65  1  0.83027845  0.31440147  0.16893817  1  0  -0.624875  0  1.908757  0  0  -0.570504  0  2.138028  0  0  -0.597123  0  2.131392  0  0  -0.32562  -0.548869  0  2.141146  0
O  O66  1  0.33027765  0.31440059  0.33106343  1  0  -0.624904  0  1.908656  0  0  -0.570523  0  2.13787  0  0  -0.597136  0  2.131227  0  0  -0.325618  -0.548892  0  2.140978  0
O  O67  1  0.16971936  0.68559179  0.83106029  1  0  -0.624833  0  1.90868  0  0  -0.570441  0  2.137902  0  0  -0.597052  0  2.131257  0  0  -0.325654  -0.548829  0  2.141045  0
