# generated using pymatgen
data_NiAg2H6C14(NO5)2
_symmetry_space_group_name_H-M   'P 1'
_cell_length_a   5.04179908
_cell_length_b   8.92076042
_cell_length_c   9.02309268
_cell_angle_alpha   96.05549243
_cell_angle_beta   95.78281399
_cell_angle_gamma   102.70501564
_symmetry_Int_Tables_number   1
_chemical_formula_structural   NiAg2H6C14(NO5)2
_chemical_formula_sum   'Ni1 Ag2 H6 C14 N2 O10'
_cell_volume   390.45580655
_cell_formula_units_Z   1
loop_
 _symmetry_equiv_pos_site_id
 _symmetry_equiv_pos_as_xyz
  1  'x, y, z'
loop_
 _atom_site_type_symbol
 _atom_site_label
 _atom_site_symmetry_multiplicity
 _atom_site_fract_x
 _atom_site_fract_y
 _atom_site_fract_z
 _atom_site_occupancy
 _atom_site_hle17_bader_spin_density
 _atom_site_hle17_ddec_charge
 _atom_site_hle17_ddec_spin_density
 _atom_site_hle17_ddec_sum_bond_order
 _atom_site_hle17_magmom
 _atom_site_hse06_10hf_bader_spin_density
 _atom_site_hse06_10hf_ddec_charge
 _atom_site_hse06_10hf_ddec_spin_density
 _atom_site_hse06_10hf_ddec_sum_bond_order
 _atom_site_hse06_10hf_magmom
 _atom_site_hse06_bader_spin_density
 _atom_site_hse06_ddec_charge
 _atom_site_hse06_ddec_spin_density
 _atom_site_hse06_ddec_sum_bond_order
 _atom_site_hse06_magmom
 _atom_site_pbe_bader_spin_density
 _atom_site_pbe_cm5_charge
 _atom_site_pbe_ddec_charge
 _atom_site_pbe_ddec_spin_density
 _atom_site_pbe_ddec_sum_bond_order
 _atom_site_pbe_magmom
Ni  Ni0  1  0.49999612  0.50000006  0.49999804  1  0  0.720027  0  2.152526  0  0  0.692497  0  2.635498  0  0  0.786247  0  2.53828  0  0  0.548988  0.643604  0  2.694474  0
Ag  Ag1  1  0.09879208  0.46922463  0.85505629  1  0  0.653418  0  1.235889  0  0  0.533538  0  1.675406  0  0  0.569206  0  1.614256  0  0  0.435493  0.509002  0  1.717643  0
Ag  Ag2  1  0.90120083  0.53077213  0.14494399  1  0  0.653372  0  1.235898  0  0  0.533482  0  1.675407  0  0  0.569151  0  1.614259  0  0  0.435457  0.508949  0  1.717643  0
H  H3  1  0.78370188  0.05373909  0.95335542  1  0  0.120137  0  0.955066  0  0  0.130508  0  1.012105  0  0  0.133194  0  1.012222  0  0  0.113476  0.128656  0  1.012084  0
H  H4  1  0.21630596  0.94626000  0.04664693  1  0  0.120129  0  0.955037  0  0  0.130487  0  1.012103  0  0  0.133171  0  1.012222  0  0  0.113472  0.128639  0  1.012078  0
H  H5  1  0.49070232  0.17810728  0.78788334  1  0  0.127398  0  0.934131  0  0  0.138105  0  0.991063  0  0  0.142392  0  0.986827  0  0  0.117385  0.134527  0  0.994696  0
H  H6  1  0.50930735  0.82189637  0.21211616  1  0  0.127418  0  0.934122  0  0  0.13813  0  0.991046  0  0  0.142417  0  0.986811  0  0  0.117406  0.134558  0  0.99468  0
H  H7  1  0.19842572  0.01900890  0.56190748  1  0  0.127298  0  0.963953  0  0  0.134437  0  1.026175  0  0  0.138014  0  1.024831  0  0  0.113841  0.13173  0  1.027316  0
H  H8  1  0.80158148  0.98099359  0.43809180  1  0  0.127289  0  0.963984  0  0  0.13442  0  1.026205  0  0  0.137994  0  1.02487  0  0  0.113832  0.13169  0  1.027373  0
C  C9  1  0.64200586  0.83023364  0.82257011  1  0  0.065193  0  3.593757  0  0  0.058877  0  3.842473  0  0  0.064508  0  3.852752  0  0  0.129432  0.054695  0  3.836363  0
C  C10  1  0.35798954  0.16976430  0.17743150  1  0  0.06524  0  3.593688  0  0  0.058844  0  3.842523  0  0  0.064475  0  3.852802  0  0  0.12942  0.054663  0  3.836412  0
C  C11  1  0.65325980  0.98720343  0.85432323  1  0  -0.098716  0  3.68623  0  0  -0.117332  0  3.937338  0  0  -0.121785  0  3.954003  0  0  -0.067972  -0.115463  0  3.927226  0
C  C12  1  0.34673858  0.01279686  0.14567984  1  0  -0.09873  0  3.686199  0  0  -0.117311  0  3.937328  0  0  -0.121763  0  3.953992  0  0  -0.067959  -0.115441  0  3.927218  0
C  C13  1  0.49166142  0.05636000  0.76129745  1  0  0.018606  0  3.645498  0  0  -0.010226  0  3.907531  0  0  -0.003923  0  3.919886  0  0  -0.060449  -0.014766  0  3.899837  0
C  C14  1  0.50833988  0.94364257  0.23870486  1  0  0.018549  0  3.645492  0  0  -0.010293  0  3.907533  0  0  -0.003991  0  3.919886  0  0  -0.06049  -0.014843  0  3.899845  0
C  C15  1  0.32596011  0.96705455  0.63566902  1  0  -0.09747  0  3.697666  0  0  -0.120294  0  3.952351  0  0  -0.125091  0  3.971453  0  0  -0.069199  -0.117388  0  3.939923  0
C  C16  1  0.67404465  0.03294681  0.36433114  1  0  -0.097397  0  3.697649  0  0  -0.120202  0  3.952304  0  0  -0.124996  0  3.971404  0  0  -0.069175  -0.117274  0  3.939894  0
C  C17  1  0.32113860  0.81074147  0.60283244  1  0  0.034355  0  3.629289  0  0  0.026753  0  3.880899  0  0  0.029092  0  3.894665  0  0  0.120777  0.023771  0  3.873158  0
C  C18  1  0.67886416  0.18925990  0.39716762  1  0  0.034279  0  3.62933  0  0  0.026694  0  3.880921  0  0  0.029026  0  3.894692  0  0  0.120776  0.023713  0  3.873175  0
C  C19  1  0.79656884  0.73434367  0.91101762  1  0  0.620657  0  3.994279  0  0  0.567258  0  4.288891  0  0  0.60351  0  4.280817  0  0  0.207718  0.542727  0  4.29287  0
C  C20  1  0.20342557  0.26565193  0.08898263  1  0  0.620606  0  3.994342  0  0  0.567194  0  4.289015  0  0  0.603446  0  4.280941  0  0  0.207704  0.542664  0  4.292995  0
C  C21  1  0.16189408  0.71461139  0.46199460  1  0  0.604532  0  3.911304  0  0  0.559571  0  4.211084  0  0  0.597291  0  4.203465  0  0  0.212781  0.533221  0  4.21625  0
C  C22  1  0.83810666  0.28538994  0.53800424  1  0  0.604517  0  3.911282  0  0  0.559534  0  4.21109  0  0  0.597256  0  4.203469  0  0  0.212747  0.533183  0  4.216255  0
N  N23  1  0.47653007  0.74719369  0.69952041  1  0  0.215898  0  3.576396  0  0  0.26054  0  3.831667  0  0  0.2619  0  3.852329  0  0  -0.108363  0.258607  0  3.819291  0
N  N24  1  0.52346822  0.25280651  0.30047933  1  0  0.21597  0  3.576307  0  0  0.260624  0  3.831592  0  0  0.261987  0  3.85225  0  0  -0.108346  0.258691  0  3.819219  0
O  O25  1  0.45555585  0.59265299  0.68737557  1  0  -0.436473  0  2.018301  0  0  -0.404007  0  2.327628  0  0  -0.441754  0  2.316946  0  0  -0.214399  -0.381  0  2.335049  0
O  O26  1  0.54443843  0.40734719  0.31262284  1  0  -0.436527  0  2.018342  0  0  -0.404013  0  2.327608  0  0  -0.441773  0  2.316953  0  0  -0.214402  -0.381003  0  2.335023  0
O  O27  1  0.00510579  0.70673539  0.85684790  1  0  -0.610771  0  2.109206  0  0  -0.550637  0  2.380378  0  0  -0.583712  0  2.371488  0  0  -0.315273  -0.527453  0  2.385594  0
O  O28  1  0.99489059  0.29326018  0.14315134  1  0  -0.610757  0  2.109232  0  0  -0.550616  0  2.380422  0  0  -0.583689  0  2.371532  0  0  -0.315253  -0.527427  0  2.385625  0
O  O29  1  0.70000844  0.69223735  0.02790546  1  0  -0.589985  0  2.092163  0  0  -0.520095  0  2.362311  0  0  -0.552668  0  2.349185  0  0  -0.299549  -0.497291  0  2.369809  0
O  O30  1  0.29998255  0.30775477  0.97209432  1  0  -0.589969  0  2.092198  0  0  -0.520066  0  2.36235  0  0  -0.552644  0  2.349237  0  0  -0.29953  -0.497263  0  2.369847  0
O  O31  1  0.24511119  0.59576265  0.40376536  1  0  -0.556772  0  2.170088  0  0  -0.514473  0  2.477752  0  0  -0.559321  0  2.460695  0  0  -0.300763  -0.485336  0  2.48869  0
O  O32  1  0.75488705  0.40423750  0.59623215  1  0  -0.556721  0  2.170029  0  0  -0.514407  0  2.477688  0  0  -0.559258  0  2.460633  0  0  -0.300705  -0.485271  0  2.488621  0
O  O33  1  0.96477955  0.75741148  0.39950993  1  0  -0.5573  0  1.933531  0  0  -0.518761  0  2.175899  0  0  -0.543956  0  2.16462  0  0  -0.289431  -0.500038  0  2.182799  0
O  O34  1  0.03522361  0.24259096  0.60048692  1  0  -0.557302  0  1.933501  0  0  -0.51876  0  2.175889  0  0  -0.543955  0  2.164609  0  0  -0.289446  -0.500034  0  2.182777  0
