# generated using pymatgen
data_H16RhC22N(ClO3)2
_symmetry_space_group_name_H-M   'P 1'
_cell_length_a   9.74404199
_cell_length_b   10.70833448
_cell_length_c   11.05359474
_cell_angle_alpha   99.67751432
_cell_angle_beta   93.80085766
_cell_angle_gamma   106.18112262
_symmetry_Int_Tables_number   1
_chemical_formula_structural   H16RhC22N(ClO3)2
_chemical_formula_sum   'H32 Rh2 C44 N2 Cl4 O12'
_cell_volume   1084.08226824
_cell_formula_units_Z   2
loop_
 _symmetry_equiv_pos_site_id
 _symmetry_equiv_pos_as_xyz
  1  'x, y, z'
loop_
 _atom_site_type_symbol
 _atom_site_label
 _atom_site_symmetry_multiplicity
 _atom_site_fract_x
 _atom_site_fract_y
 _atom_site_fract_z
 _atom_site_occupancy
 _atom_site_pbe_bader_spin_density
 _atom_site_pbe_cm5_charge
 _atom_site_pbe_ddec_charge
 _atom_site_pbe_ddec_spin_density
 _atom_site_pbe_ddec_sum_bond_order
 _atom_site_pbe_magmom
H  H0  1  0.68355301  0.77491133  0.34670233  1  0  0.107285  0.128177  0  1.059893  0
H  H1  1  0.31642683  0.22511922  0.65328624  1  0  0.107393  0.128308  0  1.059873  0
H  H2  1  0.76164387  0.65862611  0.16286889  1  0  0.098323  0.094982  0  1.006642  0
H  H3  1  0.23833597  0.34139164  0.83712675  1  0  0.098332  0.095079  0  1.006596  0
H  H4  1  0.01971912  0.72943684  0.12297495  1  0  0.097258  0.0946  0  1.009113  0
H  H5  1  0.98026547  0.27055728  0.87703361  1  0  0.097254  0.094607  0  1.009232  0
H  H6  1  0.19942186  0.90404741  0.27358551  1  0  0.107819  0.127432  0  1.042206  0
H  H7  1  0.80056668  0.09595259  0.72641696  1  0  0.107766  0.127236  0  1.042315  0
H  H8  1  0.55432231  0.35781241  0.36914913  1  0  0.096748  0.102262  0  1.029403  0
H  H9  1  0.44568602  0.64219161  0.63085879  1  0  0.096737  0.102164  0  1.029515  0
H  H10  1  0.69493265  0.49103943  0.33456811  1  0  0.103814  0.115372  0  0.988991  0
H  H11  1  0.30507725  0.50896963  0.66545064  1  0  0.103854  0.115396  0  0.989045  0
H  H12  1  0.54444499  0.40238724  0.21984984  1  0  0.090219  0.08799  0  1.044243  0
H  H13  1  0.45557180  0.59762075  0.78016012  1  0  0.090126  0.087906  0  1.044246  0
H  H14  1  0.33405750  0.29007315  0.29238132  1  0  0.110558  0.144665  0  1.01864  0
H  H15  1  0.66595376  0.70992387  0.70761846  1  0  0.110621  0.144811  0  1.018572  0
H  H16  1  0.94709903  0.40125003  0.34386327  1  0  0.102349  0.121072  0  1.014332  0
H  H17  1  0.05289863  0.59872988  0.65610681  1  0  0.102339  0.121043  0  1.01457  0
H  H18  1  0.09457914  0.63702680  0.41374830  1  0  0.10796  0.117969  0  1.003027  0
H  H19  1  0.90540815  0.36295618  0.58623157  1  0  0.107977  0.11807  0  1.003053  0
H  H20  1  0.23209929  0.02646305  0.89441190  1  0  0.094417  0.10154  0  1.032605  0
H  H21  1  0.76791893  0.97354279  0.10557881  1  0  0.094445  0.101541  0  1.032628  0
H  H22  1  0.10951045  0.97529668  0.00290415  1  0  0.099345  0.105621  0  1.020318  0
H  H23  1  0.89049868  0.02470314  0.99707784  1  0  0.099355  0.10564  0  1.020108  0
H  H24  1  0.18946449  0.14879651  0.00613327  1  0  0.09211  0.090353  0  1.020039  0
H  H25  1  0.81054115  0.85120533  0.99385425  1  0  0.092125  0.09041  0  1.019988  0
H  H26  1  0.41099097  0.20701517  0.91882771  1  0  0.10765  0.13628  0  1.026304  0
H  H27  1  0.58903398  0.79299569  0.08117142  1  0  0.107655  0.136302  0  1.026259  0
H  H28  1  0.84932733  0.34565850  0.09343199  1  0  0.100782  0.113738  0  1.012522  0
H  H29  1  0.15069064  0.65434375  0.90659887  1  0  0.100724  0.113723  0  1.012787  0
H  H30  1  0.77903211  0.20023575  0.24788501  1  0  0.096412  0.091778  0  1.061065  0
H  H31  1  0.22095982  0.79975257  0.75213849  1  0  0.096396  0.09183  0  1.061038  0
Rh  Rh32  1  0.61754148  0.98062859  0.50366163  1  0  0.647133  0.573682  0  3.65279  0
Rh  Rh33  1  0.38244826  0.01936545  0.49633818  1  0  0.647101  0.573712  0  3.652568  0
C  C34  1  0.89670452  0.90601485  0.41706170  1  0  0.111056  0.159435  0  3.977213  0
C  C35  1  0.10327651  0.09399697  0.58293490  1  0  0.111124  0.159603  0  3.977413  0
C  C36  1  0.79570762  0.80290104  0.32973947  1  0  -0.093055  -0.158575  0  3.939314  0
C  C37  1  0.20428077  0.19711769  0.67025412  1  0  -0.093095  -0.158713  0  3.939103  0
C  C38  1  0.83997449  0.73875661  0.22807952  1  0  -0.094684  -0.078905  0  4.032007  0
C  C39  1  0.16000614  0.26125725  0.77192371  1  0  -0.094728  -0.079049  0  4.032192  0
C  C40  1  0.98641420  0.77711956  0.20639814  1  0  -0.095382  -0.081193  0  4.023831  0
C  C41  1  0.01357861  0.22288744  0.79361110  1  0  -0.095423  -0.081233  0  4.023841  0
C  C42  1  0.08768061  0.87326783  0.29054739  1  0  -0.089891  -0.146106  0  3.955521  0
C  C43  1  0.91229662  0.12673217  0.70945530  1  0  -0.089859  -0.145888  0  3.955096  0
C  C44  1  0.04794662  0.93709328  0.40075127  1  0  0.109439  0.15556  0  3.980482  0
C  C45  1  0.95203932  0.06291460  0.59924683  1  0  0.109488  0.155493  0  3.980837  0
C  C46  1  0.37424246  0.74324452  0.43158544  1  0  0.209002  0.537318  0  4.139036  0
C  C47  1  0.62574490  0.25674852  0.56841226  1  0  0.209086  0.537506  0  4.139255  0
C  C48  1  0.29742736  0.59962808  0.39384796  1  0  -0.035658  -0.167374  0  3.974724  0
C  C49  1  0.70256965  0.40036297  0.60614912  1  0  -0.035675  -0.167312  0  3.974904  0
C  C50  1  0.36709849  0.50084795  0.35949038  1  0  0.098172  0.271683  0  4.004698  0
C  C51  1  0.63290050  0.49914611  0.64051091  1  0  0.098137  0.271525  0  4.004705  0
C  C52  1  0.57927638  0.44022665  0.31916235  1  0  -0.144616  -0.182966  0  3.890717  0
C  C53  1  0.42073226  0.55977838  0.68084846  1  0  -0.144565  -0.182804  0  3.890675  0
C  C54  1  0.28425720  0.36822469  0.31814725  1  0  -0.116108  -0.289017  0  3.950044  0
C  C55  1  0.71575375  0.63177129  0.68184783  1  0  -0.116248  -0.28926  0  3.950209  0
C  C56  1  0.13507154  0.33515757  0.31187561  1  0  0.015702  0.176993  0  4.088556  0
C  C57  1  0.86492999  0.66483138  0.68810876  1  0  0.015647  0.177047  0  4.088624  0
C  C58  1  0.06378025  0.42938519  0.34766883  1  0  -0.115838  -0.203626  0  4.037836  0
C  C59  1  0.93622540  0.57060373  0.65231217  1  0  -0.115684  -0.203408  0  4.037557  0
C  C60  1  0.14661378  0.56038714  0.38769365  1  0  -0.082923  -0.055256  0  3.993174  0
C  C61  1  0.85337493  0.43959390  0.61229143  1  0  -0.083018  -0.055481  0  3.99347  0
C  C62  1  0.52543695  0.05592168  0.27942630  1  0  0.216625  0.556789  0  4.109881  0
C  C63  1  0.47455524  0.94407039  0.72057427  1  0  0.216605  0.556738  0  4.110019  0
C  C64  1  0.55769327  0.12429223  0.17375325  1  0  -0.030863  -0.156248  0  3.958881  0
C  C65  1  0.44230571  0.87570187  0.82625257  1  0  -0.030954  -0.156451  0  3.95924  0
C  C66  1  0.45149256  0.12516331  0.08010184  1  0  0.097018  0.264494  0  4.021888  0
C  C67  1  0.54851410  0.87483865  0.91989752  1  0  0.097076  0.264532  0  4.021948  0
C  C68  1  0.20642004  0.05024435  0.98931248  1  0  -0.145915  -0.19098  0  3.915651  0
C  C69  1  0.79358909  0.94975552  0.01067494  1  0  -0.145981  -0.191021  0  3.915552  0
C  C70  1  0.48986145  0.20593521  0.99268969  1  0  -0.116526  -0.298512  0  3.969409  0
C  C71  1  0.51015685  0.79406779  0.00731597  1  0  -0.116531  -0.298379  0  3.96911  0
C  C72  1  0.63221305  0.28420760  0.99943835  1  0  0.014641  0.181358  0  4.081964  0
C  C73  1  0.36780904  0.71579451  0.00057736  1  0  0.014608  0.18123  0  4.081895  0
C  C74  1  0.73902021  0.28342880  0.08951738  1  0  -0.114026  -0.200236  0  4.030247  0
C  C75  1  0.26099072  0.71656743  0.91050488  1  0  -0.113869  -0.200156  0  4.030229  0
C  C76  1  0.69936377  0.20259449  0.17523653  1  0  -0.082207  -0.057766  0  4.012316  0
C  C77  1  0.30064028  0.79740265  0.82477731  1  0  -0.082243  -0.057788  0  4.012187  0
N  N78  1  0.84975313  0.97201878  0.51410301  1  0  -0.302211  -0.24914  0  3.41615  0
N  N79  1  0.15023130  0.02799408  0.48589848  1  0  -0.302157  -0.249087  0  3.415914  0
Cl  Cl80  1  0.03722368  0.17134188  0.25665719  1  0  0.042789  -0.026934  0  1.644227  0
Cl  Cl81  1  0.96278846  0.82864798  0.74331802  1  0  0.042766  -0.027042  0  1.644267  0
Cl  Cl82  1  0.67669477  0.38540129  0.89251946  1  0  0.004035  -0.068735  0  1.551567  0
Cl  Cl83  1  0.32334021  0.61460581  0.10750052  1  0  0.004037  -0.068714  0  1.551568  0
O  O84  1  0.51221479  0.78242679  0.44915520  1  0  -0.290595  -0.438562  0  2.503002  0
O  O85  1  0.48777558  0.21756920  0.55084134  1  0  -0.29054  -0.438564  0  2.503299  0
O  O86  1  0.29373732  0.82010415  0.44493022  1  0  -0.295291  -0.44199  0  2.508321  0
O  O87  1  0.70625147  0.17988690  0.55506727  1  0  -0.295308  -0.442053  0  2.508238  0
O  O88  1  0.51217045  0.53880209  0.36571313  1  0  -0.17186  -0.136895  0  2.61341  0
O  O89  1  0.48783179  0.46119898  0.63429758  1  0  -0.171751  -0.13681  0  2.613456  0
O  O90  1  0.62412347  0.01352479  0.32545821  1  0  -0.297031  -0.44864  0  2.427017  0
O  O91  1  0.37586666  0.98646728  0.67454314  1  0  -0.296994  -0.448586  0  2.427038  0
O  O92  1  0.40576263  0.05355269  0.32220844  1  0  -0.29053  -0.435384  0  2.482734  0
O  O93  1  0.59422814  0.94644134  0.67779053  1  0  -0.290531  -0.435314  0  2.48279  0
O  O94  1  0.31687919  0.04437536  0.07844354  1  0  -0.173535  -0.138223  0  2.60092  0
O  O95  1  0.68312368  0.95562755  0.92155212  1  0  -0.173535  -0.138223  0  2.600895  0
