# generated using pymatgen
data_CdH10(C4N5)2
_symmetry_space_group_name_H-M   'P 1'
_cell_length_a   6.48217449
_cell_length_b   10.44984867
_cell_length_c   18.97360788
_cell_angle_alpha   90.00018539
_cell_angle_beta   90.00002932
_cell_angle_gamma   90.40831566
_symmetry_Int_Tables_number   1
_chemical_formula_structural   CdH10(C4N5)2
_chemical_formula_sum   'Cd4 H40 C32 N40'
_cell_volume   1285.19672782
_cell_formula_units_Z   4
loop_
 _symmetry_equiv_pos_site_id
 _symmetry_equiv_pos_as_xyz
  1  'x, y, z'
loop_
 _atom_site_type_symbol
 _atom_site_label
 _atom_site_symmetry_multiplicity
 _atom_site_fract_x
 _atom_site_fract_y
 _atom_site_fract_z
 _atom_site_occupancy
 _atom_site_hle17_bader_spin_density
 _atom_site_hle17_ddec_charge
 _atom_site_hle17_ddec_spin_density
 _atom_site_hle17_ddec_sum_bond_order
 _atom_site_hle17_magmom
 _atom_site_hse06_10hf_bader_spin_density
 _atom_site_hse06_10hf_ddec_charge
 _atom_site_hse06_10hf_ddec_spin_density
 _atom_site_hse06_10hf_ddec_sum_bond_order
 _atom_site_hse06_10hf_magmom
 _atom_site_hse06_bader_spin_density
 _atom_site_hse06_ddec_charge
 _atom_site_hse06_ddec_spin_density
 _atom_site_hse06_ddec_sum_bond_order
 _atom_site_hse06_magmom
 _atom_site_pbe_bader_spin_density
 _atom_site_pbe_cm5_charge
 _atom_site_pbe_ddec_charge
 _atom_site_pbe_ddec_spin_density
 _atom_site_pbe_ddec_sum_bond_order
 _atom_site_pbe_magmom
Cd  Cd0  1  0.74573921  0.06069862  0.53812814  1  0  1.033704  0  1.912296  0  0  0.851337  0  2.382172  0  0  0.895113  0  2.346182  0  0  0.792312  0.821144  0  2.405902  0
Cd  Cd1  1  0.25426354  0.43929383  0.03813707  1  0  1.033769  0  1.912279  0  0  0.851429  0  2.38215  0  0  0.895204  0  2.346158  0  0  0.792347  0.821243  0  2.405878  0
Cd  Cd2  1  0.25426235  0.93930090  0.46186294  1  0  1.033661  0  1.912333  0  0  0.851293  0  2.382209  0  0  0.895068  0  2.34622  0  0  0.792297  0.821099  0  2.405936  0
Cd  Cd3  1  0.74573640  0.56069611  0.96187034  1  0  1.033725  0  1.912339  0  0  0.85137  0  2.38225  0  0  0.895144  0  2.346259  0  0  0.792299  0.82118  0  2.405978  0
H  H4  1  0.81806657  0.39792144  0.53430682  1  0  0.099294  0  0.979359  0  0  0.103563  0  1.050562  0  0  0.105699  0  1.049648  0  0  0.111873  0.102486  0  1.050339  0
H  H5  1  0.18193005  0.10207673  0.03430618  1  0  0.099315  0  0.979316  0  0  0.103608  0  1.050495  0  0  0.105745  0  1.049576  0  0  0.111879  0.102522  0  1.05028  0
H  H6  1  0.18192726  0.60207615  0.46569269  1  0  0.099314  0  0.979261  0  0  0.103591  0  1.05046  0  0  0.105728  0  1.049544  0  0  0.111897  0.102528  0  1.050222  0
H  H7  1  0.81806688  0.89792279  0.96569333  1  0  0.09931  0  0.979336  0  0  0.103592  0  1.050522  0  0  0.105736  0  1.049597  0  0  0.111866  0.102504  0  1.050311  0
H  H8  1  0.53955880  0.56327816  0.59583926  1  0  0.117155  0  0.978401  0  0  0.11976  0  1.050913  0  0  0.122269  0  1.050158  0  0  0.118695  0.118758  0  1.050468  0
H  H9  1  0.46044255  0.93672627  0.09583821  1  0  0.117236  0  0.978459  0  0  0.119814  0  1.050996  0  0  0.122326  0  1.050235  0  0  0.11871  0.118812  0  1.05055  0
H  H10  1  0.46044279  0.43672423  0.40416025  1  0  0.117161  0  0.978451  0  0  0.119761  0  1.050958  0  0  0.122268  0  1.050206  0  0  0.11869  0.11876  0  1.050513  0
H  H11  1  0.53955440  0.06327420  0.90416183  1  0  0.117209  0  0.978478  0  0  0.119822  0  1.050975  0  0  0.122337  0  1.050211  0  0  0.118705  0.118821  0  1.050531  0
H  H12  1  0.29468588  0.18557162  0.59935642  1  0  0.09003  0  0.963627  0  0  0.093003  0  1.042112  0  0  0.09556  0  1.039474  0  0  0.126903  0.091481  0  1.043243  0
H  H13  1  0.70530777  0.31442789  0.09935783  1  0  0.090099  0  0.963612  0  0  0.093079  0  1.042073  0  0  0.095634  0  1.039432  0  0  0.126953  0.091541  0  1.043217  0
H  H14  1  0.70530953  0.81442981  0.40064309  1  0  0.09004  0  0.963639  0  0  0.093027  0  1.042096  0  0  0.095578  0  1.039463  0  0  0.126933  0.091503  0  1.043229  0
H  H15  1  0.29469069  0.68556971  0.90064221  1  0  0.09007  0  0.963592  0  0  0.093052  0  1.04206  0  0  0.095607  0  1.03942  0  0  0.126934  0.091512  0  1.043205  0
H  H16  1  0.07723486  0.35306886  0.65370045  1  0  0.083425  0  0.922379  0  0  0.097861  0  0.985627  0  0  0.098448  0  0.986516  0  0  0.113547  0.097283  0  0.985249  0
H  H17  1  0.92276197  0.14693193  0.15370003  1  0  0.08339  0  0.922383  0  0  0.097825  0  0.985633  0  0  0.098415  0  0.986522  0  0  0.11354  0.097247  0  0.985255  0
H  H18  1  0.92276518  0.64693257  0.34630011  1  0  0.083404  0  0.922342  0  0  0.097844  0  0.985599  0  0  0.09843  0  0.986483  0  0  0.113543  0.097266  0  0.985221  0
H  H19  1  0.07723652  0.85306854  0.84630001  1  0  0.083413  0  0.922404  0  0  0.097838  0  0.985647  0  0  0.098428  0  0.986536  0  0  0.113543  0.097261  0  0.985269  0
H  H20  1  0.10201659  0.50402365  0.61080627  1  0  0.08723  0  0.949311  0  0  0.097835  0  1.019489  0  0  0.098789  0  1.018612  0  0  0.111439  0.097186  0  1.019887  0
H  H21  1  0.89798165  0.99597608  0.11080593  1  0  0.0872  0  0.94934  0  0  0.097814  0  1.019519  0  0  0.098769  0  1.018641  0  0  0.111438  0.097167  0  1.019918  0
H  H22  1  0.89798499  0.49597779  0.38919324  1  0  0.087211  0  0.949408  0  0  0.097818  0  1.019577  0  0  0.09877  0  1.018704  0  0  0.111454  0.097173  0  1.019977  0
H  H23  1  0.10201990  0.00402248  0.88919410  1  0  0.087212  0  0.94939  0  0  0.097803  0  1.019565  0  0  0.098755  0  1.018693  0  0  0.111432  0.097156  0  1.019967  0
H  H24  1  0.32885581  0.42458858  0.74689420  1  0  0.084356  0  0.941662  0  0  0.095321  0  1.009961  0  0  0.096521  0  1.009301  0  0  0.111733  0.094296  0  1.010686  0
H  H25  1  0.67113962  0.07541370  0.24689413  1  0  0.084361  0  0.941596  0  0  0.095394  0  1.009851  0  0  0.096598  0  1.009181  0  0  0.111727  0.094344  0  1.010603  0
H  H26  1  0.67114424  0.57541476  0.25310583  1  0  0.084367  0  0.941594  0  0  0.095389  0  1.009849  0  0  0.096592  0  1.00918  0  0  0.111725  0.094338  0  1.0106  0
H  H27  1  0.32886041  0.92458772  0.75310696  1  0  0.084334  0  0.941701  0  0  0.095341  0  1.009971  0  0  0.096543  0  1.009305  0  0  0.111706  0.094317  0  1.010695  0
H  H28  1  0.35322428  0.57627787  0.70422085  1  0  0.086401  0  0.950763  0  0  0.098788  0  1.019092  0  0  0.09962  0  1.018294  0  0  0.11094  0.098139  0  1.019601  0
H  H29  1  0.64677102  0.92372241  0.20422245  1  0  0.086389  0  0.950751  0  0  0.098793  0  1.019084  0  0  0.099625  0  1.018284  0  0  0.110957  0.098146  0  1.01959  0
H  H30  1  0.64677422  0.42372452  0.29577918  1  0  0.086385  0  0.950775  0  0  0.09877  0  1.019123  0  0  0.099602  0  1.018326  0  0  0.110954  0.098122  0  1.01963  0
H  H31  1  0.35322901  0.07627807  0.79577969  1  0  0.086434  0  0.950679  0  0  0.098759  0  1.01911  0  0  0.099597  0  1.018296  0  0  0.110934  0.098111  0  1.019621  0
H  H32  1  0.92603519  0.66968611  0.68085379  1  0  0.115942  0  0.983597  0  0  0.119568  0  1.054353  0  0  0.122218  0  1.053272  0  0  0.118132  0.117444  0  1.055621  0
H  H33  1  0.07396473  0.83031690  0.18085512  1  0  0.115972  0  0.983737  0  0  0.119567  0  1.054514  0  0  0.12221  0  1.053455  0  0  0.118139  0.117451  0  1.055766  0
H  H34  1  0.07396331  0.33031531  0.31914519  1  0  0.115937  0  0.983629  0  0  0.11955  0  1.054412  0  0  0.122196  0  1.053343  0  0  0.118128  0.117433  0  1.055665  0
H  H35  1  0.92603529  0.16968262  0.81914650  1  0  0.115971  0  0.983715  0  0  0.119568  0  1.054497  0  0  0.122219  0  1.053416  0  0  0.118131  0.11745  0  1.05575  0
H  H36  1  0.66929985  0.71088523  0.79574234  1  0  0.103212  0  0.961025  0  0  0.110852  0  1.02452  0  0  0.113325  0  1.023359  0  0  0.113395  0.109073  0  1.025386  0
H  H37  1  0.33069713  0.78911462  0.29574311  1  0  0.103208  0  0.96114  0  0  0.110859  0  1.024628  0  0  0.113329  0  1.023472  0  0  0.113425  0.109083  0  1.025485  0
H  H38  1  0.33069863  0.28911524  0.20425875  1  0  0.103216  0  0.961109  0  0  0.110864  0  1.024607  0  0  0.113337  0  1.023446  0  0  0.113405  0.109087  0  1.025469  0
H  H39  1  0.66930133  0.21088298  0.70425798  1  0  0.103192  0  0.961102  0  0  0.110839  0  1.0246  0  0  0.113309  0  1.023445  0  0  0.11339  0.109063  0  1.025457  0
H  H40  1  0.11835030  0.43954467  0.85227479  1  0  0.09058  0  0.985073  0  0  0.093058  0  1.062169  0  0  0.094886  0  1.06042  0  0  0.130147  0.091733  0  1.063439  0
H  H41  1  0.88164837  0.06045633  0.35227578  1  0  0.090601  0  0.985019  0  0  0.093063  0  1.062132  0  0  0.094893  0  1.060378  0  0  0.13016  0.091739  0  1.063401  0
H  H42  1  0.88164973  0.56045580  0.14772630  1  0  0.090549  0  0.985189  0  0  0.093028  0  1.062278  0  0  0.094857  0  1.060528  0  0  0.130132  0.091705  0  1.063546  0
H  H43  1  0.11835166  0.93954415  0.64772478  1  0  0.090567  0  0.985076  0  0  0.093037  0  1.062179  0  0  0.094868  0  1.060424  0  0  0.130145  0.091714  0  1.063446  0
C  C44  1  0.66924444  0.37704996  0.55777043  1  0  -0.004966  0  3.759617  0  0  -0.039236  0  4.030579  0  0  -0.037777  0  4.051109  0  0  -0.011016  -0.040423  0  4.017142  0
C  C45  1  0.33074761  0.12295026  0.05776670  1  0  -0.005031  0  3.759569  0  0  -0.039315  0  4.0305  0  0  -0.037854  0  4.051032  0  0  -0.010991  -0.040494  0  4.017067  0
C  C46  1  0.33074634  0.62295146  0.44223013  1  0  -0.004943  0  3.759556  0  0  -0.039219  0  4.030517  0  0  -0.037759  0  4.051045  0  0  -0.010988  -0.040422  0  4.017074  0
C  C47  1  0.66925241  0.87704926  0.94223176  1  0  -0.005003  0  3.759638  0  0  -0.039275  0  4.03058  0  0  -0.037821  0  4.051107  0  0  -0.010975  -0.040446  0  4.017149  0
C  C48  1  0.53251463  0.46064737  0.58787916  1  0  -0.059683  0  3.67167  0  0  -0.098748  0  3.929691  0  0  -0.097762  0  3.949912  0  0  0.000917  -0.099815  0  3.916281  0
C  C49  1  0.46748359  0.03934824  0.08787741  1  0  -0.059802  0  3.671751  0  0  -0.098852  0  3.929761  0  0  -0.097872  0  3.949987  0  0  0.000868  -0.099919  0  3.916349  0
C  C50  1  0.46748384  0.53935214  0.41212193  1  0  -0.05981  0  3.671699  0  0  -0.098839  0  3.929691  0  0  -0.097854  0  3.949914  0  0  0.000903  -0.099905  0  3.916284  0
C  C51  1  0.53251334  0.96065127  0.91212368  1  0  -0.05983  0  3.671841  0  0  -0.09891  0  3.92984  0  0  -0.097931  0  3.950069  0  0  0.000855  -0.099983  0  3.916431  0
C  C52  1  0.40237058  0.26390889  0.59029602  1  0  0.150758  0  3.673005  0  0  0.090425  0  3.941615  0  0  0.103509  0  3.954804  0  0  0.130736  0.082318  0  3.931574  0
C  C53  1  0.59762614  0.23609057  0.09029516  1  0  0.150607  0  3.673292  0  0  0.090279  0  3.941893  0  0  0.103365  0  3.955082  0  0  0.130703  0.082194  0  3.93186  0
C  C54  1  0.59762791  0.73609254  0.40970613  1  0  0.150663  0  3.673373  0  0  0.09036  0  3.941961  0  0  0.10345  0  3.955149  0  0  0.13073  0.082252  0  3.931923  0
C  C55  1  0.40237697  0.76390895  0.90970277  1  0  0.150612  0  3.67327  0  0  0.090279  0  3.941889  0  0  0.103362  0  3.95508  0  0  0.130664  0.082191  0  3.931855  0
C  C56  1  0.18191600  0.43444695  0.64444768  1  0  -0.01622  0  3.611561  0  0  -0.079213  0  3.867124  0  0  -0.075592  0  3.878041  0  0  -0.047663  -0.081502  0  3.859705  0
C  C57  1  0.81808080  0.06555282  0.14444709  1  0  -0.016073  0  3.611416  0  0  -0.079071  0  3.866994  0  0  -0.075457  0  3.877918  0  0  -0.047644  -0.081357  0  3.859569  0
C  C58  1  0.81808095  0.56555448  0.35555288  1  0  -0.016218  0  3.61144  0  0  -0.07921  0  3.867053  0  0  -0.075583  0  3.877964  0  0  -0.047673  -0.081499  0  3.85963  0
C  C59  1  0.18191921  0.93444573  0.85555295  1  0  -0.016234  0  3.611622  0  0  -0.079158  0  3.867095  0  0  -0.075545  0  3.87802  0  0  -0.047672  -0.08145  0  3.859682  0
C  C60  1  0.24828305  0.49532822  0.71429740  1  0  -0.023365  0  3.619845  0  0  -0.087151  0  3.87442  0  0  -0.083428  0  3.885248  0  0  -0.050725  -0.089452  0  3.86709  0
C  C61  1  0.75171695  0.00467197  0.21429774  1  0  -0.023398  0  3.619778  0  0  -0.087285  0  3.874379  0  0  -0.083563  0  3.885213  0  0  -0.050744  -0.089571  0  3.867055  0
C  C62  1  0.75171545  0.50467321  0.28570211  1  0  -0.023411  0  3.619761  0  0  -0.087268  0  3.874369  0  0  -0.083547  0  3.885198  0  0  -0.050748  -0.089553  0  3.867044  0
C  C63  1  0.24828308  0.99532850  0.78570229  1  0  -0.02337  0  3.619839  0  0  -0.08718  0  3.874409  0  0  -0.083457  0  3.885239  0  0  -0.050671  -0.089483  0  3.867079  0
C  C64  1  0.92844872  0.63068970  0.73381680  1  0  -0.065544  0  3.665534  0  0  -0.103389  0  3.91953  0  0  -0.102524  0  3.939221  0  0  -0.001282  -0.10397  0  3.906694  0
C  C65  1  0.07155281  0.86931171  0.23381451  1  0  -0.065633  0  3.665536  0  0  -0.103465  0  3.919533  0  0  -0.102604  0  3.939218  0  0  -0.001291  -0.104042  0  3.9067  0
C  C66  1  0.07155286  0.36931173  0.26618376  1  0  -0.065539  0  3.66537  0  0  -0.10338  0  3.91936  0  0  -0.102516  0  3.939048  0  0  -0.001231  -0.103956  0  3.906527  0
C  C67  1  0.92844720  0.13068685  0.76618500  1  0  -0.065648  0  3.665478  0  0  -0.103468  0  3.919463  0  0  -0.102606  0  3.939152  0  0  -0.001252  -0.104042  0  3.906628  0
C  C68  1  0.80151044  0.64862232  0.79101626  1  0  -0.004727  0  3.768167  0  0  -0.037794  0  4.036045  0  0  -0.035813  0  4.055925  0  0  -0.010035  -0.038998  0  4.022427  0
C  C69  1  0.19849576  0.85137464  0.29101817  1  0  -0.004675  0  3.768061  0  0  -0.037751  0  4.035924  0  0  -0.035768  0  4.055799  0  0  -0.010033  -0.038955  0  4.022311  0
C  C70  1  0.19849575  0.35137720  0.20898272  1  0  -0.00474  0  3.768167  0  0  -0.037824  0  4.036044  0  0  -0.035842  0  4.055921  0  0  -0.01003  -0.039031  0  4.022432  0
C  C71  1  0.80150423  0.14862200  0.70898186  1  0  -0.004615  0  3.768029  0  0  -0.03769  0  4.035892  0  0  -0.035709  0  4.055768  0  0  -0.009973  -0.038896  0  4.022278  0
C  C72  1  0.02896038  0.50771095  0.82229109  1  0  0.149291  0  3.68648  0  0  0.090613  0  3.951189  0  0  0.103831  0  3.964923  0  0  0.131468  0.082047  0  3.941746  0
C  C73  1  0.97103355  0.99228906  0.32229286  1  0  0.149178  0  3.686443  0  0  0.090517  0  3.95116  0  0  0.103733  0  3.964894  0  0  0.131415  0.081951  0  3.941716  0
C  C74  1  0.97103193  0.49228951  0.17770684  1  0  0.149202  0  3.686472  0  0  0.090526  0  3.951178  0  0  0.103744  0  3.964905  0  0  0.131448  0.08196  0  3.941731  0
C  C75  1  0.02896799  0.00770855  0.67770717  1  0  0.149135  0  3.68645  0  0  0.090466  0  3.951178  0  0  0.103683  0  3.964911  0  0  0.13139  0.0819  0  3.941731  0
N  N76  1  0.58617431  0.25491728  0.55938941  1  0  -0.384289  0  3.263917  0  0  -0.310661  0  3.544715  0  0  -0.33017  0  3.562934  0  0  -0.36334  -0.297293  0  3.531624  0
N  N77  1  0.41382852  0.24508008  0.05938748  1  0  -0.384206  0  3.264039  0  0  -0.310605  0  3.544861  0  0  -0.330115  0  3.56308  0  0  -0.363395  -0.297237  0  3.531764  0
N  N78  1  0.41382726  0.74508224  0.44061010  1  0  -0.384271  0  3.26405  0  0  -0.31068  0  3.544866  0  0  -0.330192  0  3.563086  0  0  -0.3634  -0.297311  0  3.531779  0
N  N79  1  0.58617456  0.75491656  0.94060834  1  0  -0.384162  0  3.26406  0  0  -0.31057  0  3.54489  0  0  -0.33008  0  3.563117  0  0  -0.363328  -0.297199  0  3.531788  0
N  N80  1  0.36413413  0.38748120  0.60806133  1  0  -0.058986  0  3.57501  0  0  0.038282  0  3.788236  0  0  0.023456  0  3.81523  0  0  -0.242928  0.048088  0  3.770003  0
N  N81  1  0.63585960  0.11252601  0.10806078  1  0  -0.05895  0  3.57513  0  0  0.038327  0  3.788319  0  0  0.023505  0  3.815314  0  0  -0.242881  0.048132  0  3.770083  0
N  N82  1  0.63586442  0.61252693  0.39194135  1  0  -0.058787  0  3.57503  0  0  0.038446  0  3.788242  0  0  0.023621  0  3.815232  0  0  -0.242923  0.048252  0  3.770012  0
N  N83  1  0.36413890  0.88747542  0.89193978  1  0  -0.058888  0  3.57513  0  0  0.038383  0  3.788321  0  0  0.023562  0  3.815317  0  0  -0.242876  0.048189  0  3.770084  0
N  N84  1  0.07233873  0.54100702  0.75466297  1  0  -0.055625  0  3.565613  0  0  0.04294  0  3.776422  0  0  0.028066  0  3.80324  0  0  -0.242022  0.052678  0  3.758196  0
N  N85  1  0.92765974  0.95899355  0.25466415  1  0  -0.0555  0  3.565556  0  0  0.043074  0  3.776373  0  0  0.028201  0  3.803193  0  0  -0.241968  0.052812  0  3.758139  0
N  N86  1  0.92765667  0.45899345  0.24533549  1  0  -0.055471  0  3.565421  0  0  0.043097  0  3.776242  0  0  0.028224  0  3.80306  0  0  -0.241991  0.052833  0  3.758009  0
N  N87  1  0.07234336  0.04100501  0.74533588  1  0  -0.055462  0  3.565517  0  0  0.043102  0  3.776329  0  0  0.028228  0  3.80315  0  0  -0.242019  0.05284  0  3.758099  0
N  N88  1  0.86643444  0.57167311  0.84587977  1  0  -0.390056  0  3.275252  0  0  -0.318528  0  3.559135  0  0  -0.338157  0  3.577136  0  0  -0.362614  -0.304904  0  3.546238  0
N  N89  1  0.13355953  0.92832704  0.34587971  1  0  -0.390039  0  3.275312  0  0  -0.318512  0  3.559206  0  0  -0.338141  0  3.577207  0  0  -0.362637  -0.304889  0  3.54631  0
N  N90  1  0.13356403  0.42832640  0.15412185  1  0  -0.390023  0  3.275279  0  0  -0.318499  0  3.559177  0  0  -0.338127  0  3.577175  0  0  -0.362651  -0.304878  0  3.546281  0
N  N91  1  0.86644048  0.07167152  0.65412138  1  0  -0.390027  0  3.275246  0  0  -0.318508  0  3.559147  0  0  -0.338136  0  3.577148  0  0  -0.362617  -0.304883  0  3.546249  0
N  N92  1  0.55268198  0.05466395  0.42777167  1  0  -0.611272  0  2.739398  0  0  -0.568488  0  3.048095  0  0  -0.5933  0  3.055327  0  0  -0.323388  -0.551676  0  3.042743  0
N  N93  1  0.44732447  0.44533080  0.92777074  1  0  -0.611371  0  2.739576  0  0  -0.56855  0  3.048242  0  0  -0.593356  0  3.055473  0  0  -0.323433  -0.551743  0  3.042885  0
N  N94  1  0.44732409  0.94532122  0.57223206  1  0  -0.611213  0  2.740166  0  0  -0.568321  0  3.048749  0  0  -0.593149  0  3.056018  0  0  -0.323307  -0.551512  0  3.043386  0
N  N95  1  0.55267559  0.55467254  0.07222982  1  0  -0.611277  0  2.739983  0  0  -0.568474  0  3.04858  0  0  -0.593294  0  3.055853  0  0  -0.323423  -0.55167  0  3.043217  0
N  N96  1  0.54633339  0.13902582  0.38464499  1  0  0.404019  0  4.247884  0  0  0.437401  0  4.530172  0  0  0.453434  0  4.559016  0  0  0.07643  0.42659  0  4.511159  0
N  N97  1  0.45366532  0.36097441  0.88464497  1  0  0.404133  0  4.248113  0  0  0.437515  0  4.530376  0  0  0.453543  0  4.559225  0  0  0.076506  0.426706  0  4.511367  0
N  N98  1  0.45366821  0.86097849  0.61535346  1  0  0.404162  0  4.248235  0  0  0.437485  0  4.530564  0  0  0.453532  0  4.559394  0  0  0.076469  0.426675  0  4.511548  0
N  N99  1  0.54633469  0.63902510  0.11535190  1  0  0.404106  0  4.248336  0  0  0.437547  0  4.530544  0  0  0.453573  0  4.559392  0  0  0.076568  0.426739  0  4.511528  0
N  N100  1  0.54461006  0.21877826  0.34129221  1  0  -0.417484  0  2.387867  0  0  -0.418692  0  2.611196  0  0  -0.425429  0  2.619884  0  0  -0.211195  -0.414149  0  2.605434  0
N  N101  1  0.45538550  0.28122171  0.84129100  1  0  -0.417593  0  2.387918  0  0  -0.418816  0  2.611232  0  0  -0.425556  0  2.619926  0  0  -0.211266  -0.41428  0  2.605476  0
N  N102  1  0.45539305  0.78122126  0.65871309  1  0  -0.417803  0  2.387341  0  0  -0.419026  0  2.610738  0  0  -0.425779  0  2.619415  0  0  -0.211399  -0.414484  0  2.60498  0
N  N103  1  0.54461302  0.71878258  0.15870693  1  0  -0.417681  0  2.387793  0  0  -0.418941  0  2.611094  0  0  -0.425677  0  2.61978  0  0  -0.211377  -0.414403  0  2.605332  0
N  N104  1  0.04904013  0.12890568  0.48105886  1  0  -0.611116  0  2.75497  0  0  -0.564238  0  3.063829  0  0  -0.589365  0  3.070669  0  0  -0.325578  -0.547835  0  3.059771  0
N  N105  1  0.95096648  0.37109896  0.98105579  1  0  -0.611257  0  2.754523  0  0  -0.564388  0  3.063386  0  0  -0.589517  0  3.07022  0  0  -0.325626  -0.547983  0  3.059336  0
N  N106  1  0.95096919  0.87109959  0.51893959  1  0  -0.611253  0  2.754414  0  0  -0.564383  0  3.063313  0  0  -0.589517  0  3.070148  0  0  -0.325589  -0.547978  0  3.059262  0
N  N107  1  0.04903971  0.62890057  0.01893845  1  0  -0.611265  0  2.754273  0  0  -0.564459  0  3.063227  0  0  -0.589593  0  3.070063  0  0  -0.325662  -0.548057  0  3.059169  0
N  N108  1  0.07843136  0.23791509  0.46289215  1  0  0.399505  0  4.2444  0  0  0.43295  0  4.521253  0  0  0.448787  0  4.550338  0  0  0.081165  0.422278  0  4.502558  0
N  N109  1  0.92156899  0.26208178  0.96289046  1  0  0.399684  0  4.243989  0  0  0.433112  0  4.520865  0  0  0.44895  0  4.549942  0  0  0.081212  0.422436  0  4.50218  0
N  N110  1  0.92157018  0.76208156  0.53710894  1  0  0.399679  0  4.243942  0  0  0.433073  0  4.520866  0  0  0.448914  0  4.549938  0  0  0.08117  0.422397  0  4.50218  0
N  N111  1  0.07843723  0.73792062  0.03710905  1  0  0.399517  0  4.244206  0  0  0.432957  0  4.52108  0  0  0.448792  0  4.55016  0  0  0.081107  0.422286  0  4.502388  0
N  N112  1  0.10644541  0.34412196  0.44595029  1  0  -0.391504  0  2.429372  0  0  -0.387354  0  2.659895  0  0  -0.39414  0  2.669407  0  0  -0.188026  -0.382953  0  2.653393  0
N  N113  1  0.89355956  0.15587768  0.94595051  1  0  -0.391564  0  2.429476  0  0  -0.387398  0  2.660057  0  0  -0.394182  0  2.669567  0  0  -0.188013  -0.382982  0  2.653533  0
N  N114  1  0.89355618  0.65588139  0.55405132  1  0  -0.39153  0  2.429536  0  0  -0.387336  0  2.660118  0  0  -0.394116  0  2.669622  0  0  -0.18797  -0.382916  0  2.653584  0
N  N115  1  0.10645276  0.84411706  0.05404952  1  0  -0.391399  0  2.42984  0  0  -0.387182  0  2.660348  0  0  -0.393958  0  2.66986  0  0  -0.187877  -0.382787  0  2.653841  0
