# generated using pymatgen
data_ZnH14(C3O)4
_symmetry_space_group_name_H-M   'P 1'
_cell_length_a   6.75201415
_cell_length_b   7.88659836
_cell_length_c   10.74706621
_cell_angle_alpha   68.48441937
_cell_angle_beta   89.59976863
_cell_angle_gamma   88.84977122
_symmetry_Int_Tables_number   1
_chemical_formula_structural   ZnH14(C3O)4
_chemical_formula_sum   'Zn2 H28 C24 O8'
_cell_volume   532.30040904
_cell_formula_units_Z   2
loop_
 _symmetry_equiv_pos_site_id
 _symmetry_equiv_pos_as_xyz
  1  'x, y, z'
loop_
 _atom_site_type_symbol
 _atom_site_label
 _atom_site_symmetry_multiplicity
 _atom_site_fract_x
 _atom_site_fract_y
 _atom_site_fract_z
 _atom_site_occupancy
 _atom_site_hle17_bader_spin_density
 _atom_site_hle17_ddec_charge
 _atom_site_hle17_ddec_spin_density
 _atom_site_hle17_ddec_sum_bond_order
 _atom_site_hle17_magmom
 _atom_site_hse06_10hf_bader_spin_density
 _atom_site_hse06_10hf_ddec_charge
 _atom_site_hse06_10hf_ddec_spin_density
 _atom_site_hse06_10hf_ddec_sum_bond_order
 _atom_site_hse06_10hf_magmom
 _atom_site_hse06_bader_spin_density
 _atom_site_hse06_ddec_charge
 _atom_site_hse06_ddec_spin_density
 _atom_site_hse06_ddec_sum_bond_order
 _atom_site_hse06_magmom
 _atom_site_pbe_bader_spin_density
 _atom_site_pbe_cm5_charge
 _atom_site_pbe_ddec_charge
 _atom_site_pbe_ddec_spin_density
 _atom_site_pbe_ddec_sum_bond_order
 _atom_site_pbe_magmom
Zn  Zn0  1  0.01075902  0.03956633  0.92558824  1  0  1.168195  0  1.77491  0  0  0.993712  0  2.265824  0  0  1.04467  0  2.196849  0  0  0.709203  0.95767  0  2.313635  0
Zn  Zn1  1  0.51067442  0.96485246  0.07450351  1  0  1.168016  0  1.77523  0  0  0.994024  0  2.26616  0  0  1.04495  0  2.197168  0  0  0.70941  0.958013  0  2.313978  0
H  H2  1  0.15848541  0.50606289  0.10729115  1  0  0.084468  0  0.931609  0  0  0.10002  0  0.993118  0  0  0.101148  0  0.993073  0  0  0.091868  0.099122  0  0.993328  0
H  H3  1  0.65818704  0.61295975  0.89270995  1  0  0.084063  0  0.930734  0  0  0.099833  0  0.992683  0  0  0.101044  0  0.992582  0  0  0.091722  0.098907  0  0.992908  0
H  H4  1  0.94037975  0.42850272  0.05652582  1  0  0.088838  0  0.934484  0  0  0.102505  0  0.999032  0  0  0.103733  0  0.99894  0  0  0.092567  0.101582  0  0.999174  0
H  H5  1  0.44011818  0.48476016  0.94353505  1  0  0.088723  0  0.933791  0  0  0.1031  0  0.99804  0  0  0.104369  0  0.997969  0  0  0.092831  0.102118  0  0.998262  0
H  H6  1  0.62068166  0.46279704  0.33443381  1  0  0.073816  0  0.949812  0  0  0.08744  0  1.018631  0  0  0.089226  0  1.017332  0  0  0.089032  0.08608  0  1.019693  0
H  H7  1  0.12028024  0.79723887  0.66555511  1  0  0.073895  0  0.950863  0  0  0.087343  0  1.019738  0  0  0.089142  0  1.018456  0  0  0.08921  0.085985  0  1.020793  0
H  H8  1  0.62224415  0.40253713  0.19068204  1  0  0.080728  0  0.924971  0  0  0.098801  0  0.98378  0  0  0.099641  0  0.984262  0  0  0.092095  0.098122  0  0.983575  0
H  H9  1  0.12176452  0.59317846  0.80919404  1  0  0.080505  0  0.924575  0  0  0.098123  0  0.984025  0  0  0.099004  0  0.984433  0  0  0.091901  0.097433  0  0.983844  0
H  H10  1  0.63235237  0.12486007  0.39711374  1  0  0.048046  0  0.943499  0  0  0.062872  0  1.004257  0  0  0.062928  0  1.005558  0  0  0.094268  0.06283  0  1.003367  0
H  H11  1  0.13171429  0.52219796  0.60266610  1  0  0.047996  0  0.943731  0  0  0.062925  0  1.003973  0  0  0.063073  0  1.005153  0  0  0.094326  0.06282  0  1.003157  0
H  H12  1  0.80592955  0.11679402  0.19469457  1  0  0.077553  0  0.965226  0  0  0.091971  0  1.03458  0  0  0.093218  0  1.034502  0  0  0.087919  0.091031  0  1.034733  0
H  H13  1  0.30525255  0.31135490  0.80495935  1  0  0.07762  0  0.964862  0  0  0.091909  0  1.034796  0  0  0.093098  0  1.034771  0  0  0.087984  0.091009  0  1.03492  0
H  H14  1  0.93147022  0.97456644  0.34160726  1  0  0.074383  0  0.930552  0  0  0.090604  0  0.993275  0  0  0.091741  0  0.993354  0  0  0.089356  0.089705  0  0.993348  0
H  H15  1  0.43075808  0.31619543  0.65803719  1  0  0.073451  0  0.930665  0  0  0.090246  0  0.992971  0  0  0.091402  0  0.992993  0  0  0.089296  0.089366  0  0.993052  0
H  H16  1  0.24634311  0.08685835  0.41402570  1  0  0.072806  0  0.963328  0  0  0.086445  0  1.034309  0  0  0.087827  0  1.033522  0  0  0.089126  0.085391  0  1.035  0
H  H17  1  0.74570301  0.50053152  0.58599167  1  0  0.073066  0  0.963406  0  0  0.087157  0  1.034154  0  0  0.088533  0  1.033442  0  0  0.089494  0.086064  0  1.03488  0
H  H18  1  0.33821283  0.30425832  0.31795544  1  0  0.073104  0  0.959106  0  0  0.090052  0  1.025255  0  0  0.090501  0  1.026117  0  0  0.09079  0.089675  0  1.024702  0
H  H19  1  0.83774196  0.62163242  0.68225223  1  0  0.073258  0  0.959625  0  0  0.090574  0  1.025736  0  0  0.091018  0  1.026599  0  0  0.091062  0.090197  0  1.025163  0
H  H20  1  0.15574579  0.59064151  0.31387885  1  0  0.075105  0  0.933646  0  0  0.093299  0  0.994326  0  0  0.094252  0  0.994625  0  0  0.091636  0.092556  0  0.994227  0
H  H21  1  0.65548086  0.90396024  0.68646290  1  0  0.075259  0  0.933013  0  0  0.093818  0  0.993504  0  0  0.094806  0  0.993777  0  0  0.091376  0.093046  0  0.993424  0
H  H22  1  0.93358557  0.57466437  0.40635404  1  0  0.076642  0  0.945049  0  0  0.093201  0  1.009345  0  0  0.094301  0  1.009564  0  0  0.092054  0.09234  0  1.009328  0
H  H23  1  0.43337576  0.98077083  0.59383451  1  0  0.076537  0  0.945034  0  0  0.093552  0  1.009102  0  0  0.094704  0  1.009196  0  0  0.092133  0.092663  0  1.009136  0
H  H24  1  0.93063217  0.05985598  0.54845102  1  0  0.068462  0  0.94269  0  0  0.085737  0  1.007046  0  0  0.086849  0  1.006745  0  0  0.087095  0.084875  0  1.007363  0
H  H25  1  0.43015605  0.60819608  0.45150727  1  0  0.067798  0  0.942184  0  0  0.084891  0  1.007253  0  0  0.086004  0  1.006912  0  0  0.086744  0.084038  0  1.007586  0
H  H26  1  0.80089632  0.25651616  0.54780646  1  0  0.071278  0  0.956099  0  0  0.085498  0  1.024223  0  0  0.086955  0  1.023783  0  0  0.085845  0.084414  0  1.024625  0
H  H27  1  0.30053063  0.80427573  0.45214215  1  0  0.071199  0  0.956395  0  0  0.086034  0  1.023997  0  0  0.087428  0  1.023614  0  0  0.085838  0.08495  0  1.024415  0
H  H28  1  0.16423172  0.30974801  0.52189466  1  0  0.049369  0  0.935717  0  0  0.066525  0  0.990464  0  0  0.066835  0  0.991386  0  0  0.094889  0.066279  0  0.989855  0
H  H29  1  0.66393193  0.83132003  0.47832221  1  0  0.049088  0  0.934946  0  0  0.066357  0  0.989158  0  0  0.066656  0  0.990116  0  0  0.095066  0.066119  0  0.988554  0
C  C30  1  0.08239450  0.22799060  0.23113129  1  0  0.002271  0  3.577165  0  0  0.030669  0  3.802502  0  0  0.024562  0  3.820584  0  0  -0.015156  0.034812  0  3.790051  0
C  C31  1  0.58180517  0.45875502  0.76881167  1  0  0.004427  0  3.573914  0  0  0.034313  0  3.797891  0  0  0.028332  0  3.81593  0  0  -0.014935  0.038394  0  3.785473  0
C  C32  1  0.02425418  0.42634412  0.14423396  1  0  -0.177857  0  3.619305  0  0  -0.225721  0  3.860333  0  0  -0.226443  0  3.874376  0  0  -0.162798  -0.22504  0  3.850646  0
C  C33  1  0.52386021  0.57020251  0.85579613  1  0  -0.176499  0  3.615743  0  0  -0.227146  0  3.857664  0  0  -0.228018  0  3.871768  0  0  -0.162911  -0.226403  0  3.847919  0
C  C34  1  0.89912155  0.51241470  0.22649647  1  0  0.005305  0  3.569033  0  0  0.03172  0  3.796709  0  0  0.025771  0  3.814659  0  0  -0.014646  0.035779  0  3.784352  0
C  C35  1  0.39868100  0.73857801  0.77358168  1  0  0.003106  0  3.571428  0  0  0.033575  0  3.793571  0  0  0.027673  0  3.811706  0  0  -0.014735  0.037614  0  3.781095  0
C  C36  1  0.71116858  0.39981543  0.27697906  1  0  -0.175925  0  3.634456  0  0  -0.223084  0  3.88375  0  0  -0.22402  0  3.896918  0  0  -0.16335  -0.222229  0  3.874602  0
C  C37  1  0.21071403  0.67668842  0.72295608  1  0  -0.17432  0  3.635025  0  0  -0.222132  0  3.883072  0  0  -0.223087  0  3.896262  0  0  -0.162876  -0.221297  0  3.873935  0
C  C38  1  0.76842583  0.20292475  0.36389265  1  0  0.036631  0  3.630062  0  0  0.035398  0  3.869302  0  0  0.03494  0  3.88727  0  0  -0.092218  0.035719  0  3.857  0
C  C39  1  0.26790399  0.56678789  0.63593963  1  0  0.035105  0  3.630046  0  0  0.034945  0  3.867942  0  0  0.03444  0  3.885917  0  0  -0.092651  0.035341  0  3.855615  0
C  C40  1  0.89144041  0.11715968  0.28106157  1  0  -0.171373  0  3.609703  0  0  -0.217912  0  3.854983  0  0  -0.219688  0  3.869421  0  0  -0.161374  -0.216515  0  3.845029  0
C  C41  1  0.39076314  0.39808655  0.71868376  1  0  -0.170633  0  3.607311  0  0  -0.218269  0  3.852573  0  0  -0.220033  0  3.867057  0  0  -0.161498  -0.216885  0  3.842533  0
C  C42  1  0.20182439  0.22721229  0.35240043  1  0  -0.177375  0  3.639664  0  0  -0.23007  0  3.891856  0  0  -0.230593  0  3.905073  0  0  -0.166524  -0.229507  0  3.882658  0
C  C43  1  0.70130924  0.57918932  0.64768410  1  0  -0.178812  0  3.640907  0  0  -0.233168  0  3.89402  0  0  -0.233829  0  3.907449  0  0  -0.16712  -0.232521  0  3.884719  0
C  C44  1  0.02135005  0.50983973  0.34878024  1  0  -0.170862  0  3.607822  0  0  -0.219808  0  3.857786  0  0  -0.221302  0  3.871869  0  0  -0.15824  -0.218628  0  3.848044  0
C  C45  1  0.52104235  0.85825123  0.65141024  1  0  -0.171676  0  3.607828  0  0  -0.222404  0  3.857201  0  0  -0.22397  0  3.87138  0  0  -0.158824  -0.221162  0  3.847397  0
C  C46  1  0.88908301  0.20071778  0.48477375  1  0  -0.168766  0  3.641705  0  0  -0.214938  0  3.895432  0  0  -0.216526  0  3.909068  0  0  -0.166791  -0.213622  0  3.88585  0
C  C47  1  0.38868019  0.68541322  0.51517983  1  0  -0.16751  0  3.640587  0  0  -0.214594  0  3.89428  0  0  -0.216146  0  3.907966  0  0  -0.166137  -0.213315  0  3.884722  0
C  C48  1  0.07696828  0.31191878  0.43534603  1  0  0.039783  0  3.614433  0  0  0.040575  0  3.852374  0  0  0.040351  0  3.869369  0  0  -0.090678  0.040808  0  3.840621  0
C  C49  1  0.57660129  0.74694170  0.56479569  1  0  0.04092  0  3.613042  0  0  0.042432  0  3.851115  0  0  0.042203  0  3.868111  0  0  -0.090798  0.042657  0  3.839334  0
C  C50  1  0.19421764  0.13941774  0.14689662  1  0  0.688826  0  3.764642  0  0  0.636004  0  4.05618  0  0  0.671112  0  4.048512  0  0  0.235399  0.611998  0  4.060733  0
C  C51  1  0.69373772  0.28600061  0.85299825  1  0  0.687978  0  3.766697  0  0  0.635111  0  4.057439  0  0  0.670191  0  4.049831  0  0  0.235436  0.611116  0  4.061946  0
C  C52  1  0.84334676  0.71022825  0.14479527  1  0  0.69733  0  3.765341  0  0  0.644459  0  4.058211  0  0  0.679876  0  4.050261  0  0  0.238649  0.620242  0  4.062912  0
C  C53  1  0.34318734  0.85478433  0.85533661  1  0  0.69613  0  3.769232  0  0  0.642857  0  4.061164  0  0  0.67814  0  4.053457  0  0  0.238292  0.618731  0  4.065705  0
O  O54  1  0.13349690  0.17313047  0.02791554  1  0  -0.686159  0  2.125846  0  0  -0.618915  0  2.425334  0  0  -0.646827  0  2.404929  0  0  -0.327112  -0.599476  0  2.438876  0
O  O55  1  0.63320141  0.20060347  0.97193782  1  0  -0.685001  0  2.12756  0  0  -0.618171  0  2.427022  0  0  -0.64608  0  2.406616  0  0  -0.326283  -0.598729  0  2.440565  0
O  O56  1  0.34241165  0.03395069  0.19848606  1  0  -0.616867  0  2.033962  0  0  -0.536027  0  2.295419  0  0  -0.56547  0  2.279531  0  0  -0.300375  -0.515611  0  2.305711  0
O  O57  1  0.84220702  0.23237195  0.80146302  1  0  -0.618432  0  2.034209  0  0  -0.536449  0  2.294363  0  0  -0.565957  0  2.278617  0  0  -0.301051  -0.516054  0  2.304693  0
O  O58  1  0.94490677  0.79094626  0.03970465  1  0  -0.663758  0  2.105551  0  0  -0.591612  0  2.39461  0  0  -0.62109  0  2.375585  0  0  -0.317821  -0.571127  0  2.407113  0
O  O59  1  0.44485912  0.83018182  0.96043615  1  0  -0.662957  0  2.106714  0  0  -0.591092  0  2.395864  0  0  -0.620519  0  2.376951  0  0  -0.317807  -0.570645  0  2.408293  0
O  O60  1  0.70207193  0.78245899  0.18852214  1  0  -0.643795  0  2.064321  0  0  -0.569994  0  2.338239  0  0  -0.598984  0  2.321385  0  0  -0.315053  -0.549848  0  2.349276  0
O  O61  1  0.20213790  0.97103844  0.81160213  1  0  -0.6425  0  2.064518  0  0  -0.569117  0  2.338702  0  0  -0.598064  0  2.321931  0  0  -0.314147  -0.548993  0  2.349682  0
