# generated using pymatgen
data_Ag2H5C6SClO5
_symmetry_space_group_name_H-M   'P 1'
_cell_length_a   9.23628247
_cell_length_b   9.52668910
_cell_length_c   10.99694586
_cell_angle_alpha   90.00000723
_cell_angle_beta   89.99999826
_cell_angle_gamma   101.00170152
_symmetry_Int_Tables_number   1
_chemical_formula_structural   Ag2H5C6SClO5
_chemical_formula_sum   'Ag8 H20 C24 S4 Cl4 O20'
_cell_volume   949.85071699
_cell_formula_units_Z   4
loop_
 _symmetry_equiv_pos_site_id
 _symmetry_equiv_pos_as_xyz
  1  'x, y, z'
loop_
 _atom_site_type_symbol
 _atom_site_label
 _atom_site_symmetry_multiplicity
 _atom_site_fract_x
 _atom_site_fract_y
 _atom_site_fract_z
 _atom_site_occupancy
 _atom_site_pbe_bader_spin_density
 _atom_site_pbe_cm5_charge
 _atom_site_pbe_ddec_charge
 _atom_site_pbe_ddec_spin_density
 _atom_site_pbe_ddec_sum_bond_order
 _atom_site_pbe_magmom
Ag  Ag0  1  0.54916769  0.43130280  0.63628759  1  0  0.447173  0.532689  0  1.808412  0
Ag  Ag1  1  0.95083274  0.56869741  0.13628695  1  0  0.447168  0.532678  0  1.808411  0
Ag  Ag2  1  0.45083150  0.56869702  0.36371283  1  0  0.447182  0.532701  0  1.808422  0
Ag  Ag3  1  0.04916795  0.43130456  0.86371256  1  0  0.447173  0.532683  0  1.80841  0
Ag  Ag4  1  0.61944350  0.24510763  0.37897068  1  0  0.421661  0.5153  0  1.627034  0
Ag  Ag5  1  0.88055454  0.75489155  0.87897135  1  0  0.421658  0.515309  0  1.626996  0
Ag  Ag6  1  0.38055547  0.75489113  0.62102974  1  0  0.421656  0.515295  0  1.627046  0
Ag  Ag7  1  0.11944464  0.24510828  0.12102907  1  0  0.42167  0.515321  0  1.627036  0
H  H8  1  0.61510575  0.95675322  0.34577150  1  0  0.291337  0.399204  0  0.926924  0
H  H9  1  0.88489467  0.04324702  0.84577209  1  0  0.291334  0.399192  0  0.926939  0
H  H10  1  0.38489431  0.04324554  0.65422801  1  0  0.291359  0.399192  0  0.926928  0
H  H11  1  0.11510689  0.95675388  0.15422742  1  0  0.291362  0.399203  0  0.926909  0
H  H12  1  0.63087023  0.03980369  0.21647646  1  0  0.290823  0.389152  0  0.945533  0
H  H13  1  0.86912911  0.96019653  0.71647715  1  0  0.290819  0.389141  0  0.945547  0
H  H14  1  0.36913025  0.96019721  0.78352214  1  0  0.290808  0.38914  0  0.94555  0
H  H15  1  0.13087008  0.03980329  0.28352236  1  0  0.290828  0.38918  0  0.945505  0
H  H16  1  0.11765159  0.63479822  0.66277496  1  0  0.095982  0.118034  0  1.04816  0
H  H17  1  0.38234852  0.36520119  0.16277521  1  0  0.095982  0.118042  0  1.04815  0
H  H18  1  0.88234739  0.36520053  0.33722546  1  0  0.095992  0.118068  0  1.048126  0
H  H19  1  0.61765066  0.63479863  0.83722521  1  0  0.095981  0.11804  0  1.048152  0
H  H20  1  0.86043700  0.50608755  0.69749640  1  0  0.098643  0.112813  0  1.038874  0
H  H21  1  0.63956213  0.49391160  0.19749667  1  0  0.098639  0.112803  0  1.038889  0
H  H22  1  0.13956218  0.49391228  0.30250402  1  0  0.098648  0.11281  0  1.038892  0
H  H23  1  0.36043685  0.50608716  0.80250375  1  0  0.098637  0.112783  0  1.038915  0
H  H24  1  0.97018982  0.12686845  0.53683905  1  0  0.111391  0.14615  0  1.027068  0
H  H25  1  0.52981168  0.87313175  0.03683936  1  0  0.111419  0.146211  0  1.027036  0
H  H26  1  0.02980915  0.87313031  0.46316137  1  0  0.1114  0.146145  0  1.027087  0
H  H27  1  0.47018879  0.12686915  0.96316106  1  0  0.111377  0.146127  0  1.027138  0
C  C28  1  0.14640005  0.31099958  0.54560787  1  0  -0.042001  -0.198621  0  3.925359  0
C  C29  1  0.35360027  0.68900089  0.04560906  1  0  -0.041998  -0.198578  0  3.925372  0
C  C30  1  0.85359892  0.68899918  0.45439164  1  0  -0.042006  -0.198649  0  3.925403  0
C  C31  1  0.64640021  0.31100000  0.95439136  1  0  -0.041978  -0.198524  0  3.925276  0
C  C32  1  0.19373716  0.45588172  0.58152603  1  0  0.066993  0.312682  0  4.11834  0
C  C33  1  0.30626425  0.54411875  0.08152630  1  0  0.06697  0.312629  0  4.11837  0
C  C34  1  0.80626290  0.54411704  0.41847348  1  0  0.067009  0.312669  0  4.118416  0
C  C35  1  0.69373710  0.45588108  0.91847412  1  0  0.066976  0.312631  0  4.118378  0
C  C36  1  0.08711395  0.52125941  0.64020142  1  0  -0.123592  -0.206165  0  3.978711  0
C  C37  1  0.41288529  0.47874108  0.14020168  1  0  -0.123585  -0.20616  0  3.978733  0
C  C38  1  0.91288394  0.47873935  0.35979900  1  0  -0.123602  -0.206185  0  3.978726  0
C  C39  1  0.58711390  0.52125875  0.85979783  1  0  -0.12361  -0.206203  0  3.978724  0
C  C40  1  0.94300036  0.44797533  0.66304502  1  0  -0.125931  -0.154373  0  4.079246  0
C  C41  1  0.55700006  0.55202488  0.16304529  1  0  -0.12594  -0.154391  0  4.079262  0
C  C42  1  0.05699862  0.55202343  0.33695540  1  0  -0.125912  -0.154337  0  4.079209  0
C  C43  1  0.44300020  0.44797495  0.83695513  1  0  -0.1259  -0.154295  0  4.079171  0
C  C44  1  0.90167001  0.30512146  0.62523178  1  0  -0.010238  0.113759  0  4.04962  0
C  C45  1  0.59832999  0.69487661  0.12523298  1  0  -0.010247  0.113828  0  4.049517  0
C  C46  1  0.09832896  0.69487730  0.37476864  1  0  -0.010282  0.113699  0  4.049543  0
C  C47  1  0.40167007  0.30512215  0.87476834  1  0  -0.01024  0.113791  0  4.04957  0
C  C48  1  0.00246127  0.23727117  0.56676192  1  0  -0.097366  -0.148275  0  3.985484  0
C  C49  1  0.49753905  0.76272930  0.06676221  1  0  -0.097385  -0.148397  0  3.985547  0
C  C50  1  0.99753792  0.76272866  0.43323850  1  0  -0.097343  -0.148209  0  3.985412  0
C  C51  1  0.50246013  0.23727053  0.93323821  1  0  -0.097373  -0.148322  0  3.985548  0
S  S52  1  0.26886115  0.21508973  0.47304771  1  0  0.507828  1.205017  0  6.112679  0
S  S53  1  0.23113917  0.78491080  0.97304748  1  0  0.507864  1.205085  0  6.112718  0
S  S54  1  0.73113803  0.78491010  0.52695271  1  0  0.50785  1.205103  0  6.112691  0
S  S55  1  0.76886327  0.21508903  0.02695203  1  0  0.507811  1.204989  0  6.112792  0
Cl  Cl56  1  0.72223551  0.21430050  0.64993864  1  0  0.040003  -0.024209  0  1.869727  0
Cl  Cl57  1  0.77776687  0.78569865  0.14993985  1  0  0.039991  -0.024246  0  1.869674  0
Cl  Cl58  1  0.27776454  0.78569826  0.35006178  1  0  0.040002  -0.024206  0  1.869744  0
Cl  Cl59  1  0.22223448  0.21430118  0.85006148  1  0  0.039991  -0.024247  0  1.869736  0
O  O60  1  0.58416261  0.03423597  0.29804547  1  0  -0.588836  -0.716801  0  2.170128  0
O  O61  1  0.91583673  0.96576427  0.79804525  1  0  -0.588833  -0.716785  0  2.170138  0
O  O62  1  0.41583678  0.96576493  0.70195404  1  0  -0.588839  -0.716749  0  2.170239  0
O  O63  1  0.08416375  0.03423663  0.20195516  1  0  -0.588873  -0.71682  0  2.170169  0
O  O64  1  0.38271551  0.19882551  0.56513419  1  0  -0.344049  -0.632819  0  2.344411  0
O  O65  1  0.11728590  0.80117496  0.06513358  1  0  -0.344042  -0.63286  0  2.344426  0
O  O66  1  0.61728368  0.80117432  0.43486532  1  0  -0.344051  -0.632872  0  2.344404  0
O  O67  1  0.88271587  0.19882701  0.93486502  1  0  -0.344047  -0.632847  0  2.344457  0
O  O68  1  0.18113931  0.07707441  0.43631023  1  0  -0.325392  -0.577987  0  2.264993  0
O  O69  1  0.31886189  0.92292505  0.93631001  1  0  -0.325401  -0.578004  0  2.265057  0
O  O70  1  0.81885988  0.92292542  0.56368928  1  0  -0.325404  -0.577983  0  2.265066  0
O  O71  1  0.68114055  0.07707478  0.06368859  1  0  -0.325386  -0.577956  0  2.265076  0
O  O72  1  0.33468587  0.30193622  0.36874148  1  0  -0.350006  -0.636947  0  2.387424  0
O  O73  1  0.16531554  0.69806430  0.86874215  1  0  -0.350017  -0.636926  0  2.387423  0
O  O74  1  0.66531332  0.69806361  0.63125893  1  0  -0.349995  -0.636949  0  2.387431  0
O  O75  1  0.83468690  0.30193553  0.13125827  1  0  -0.350003  -0.636928  0  2.387448  0
O  O76  1  0.32926237  0.52977035  0.56187603  1  0  -0.364417  -0.548625  0  2.553236  0
O  O77  1  0.17073795  0.47023012  0.06187629  1  0  -0.364408  -0.548597  0  2.553166  0
O  O78  1  0.67073573  0.47022948  0.43812530  1  0  -0.364446  -0.548638  0  2.553228  0
O  O79  1  0.82926231  0.52976971  0.93812412  1  0  -0.364409  -0.548605  0  2.55322  0
