# generated using pymatgen
data_CdH15C23(NO3)2
_symmetry_space_group_name_H-M   'P 1'
_cell_length_a   6.80296146
_cell_length_b   12.47084314
_cell_length_c   14.50836325
_cell_angle_alpha   103.39134338
_cell_angle_beta   100.50095795
_cell_angle_gamma   97.73314668
_symmetry_Int_Tables_number   1
_chemical_formula_structural   CdH15C23(NO3)2
_chemical_formula_sum   'Cd2 H30 C46 N4 O12'
_cell_volume   1157.07004218
_cell_formula_units_Z   2
loop_
 _symmetry_equiv_pos_site_id
 _symmetry_equiv_pos_as_xyz
  1  'x, y, z'
loop_
 _atom_site_type_symbol
 _atom_site_label
 _atom_site_symmetry_multiplicity
 _atom_site_fract_x
 _atom_site_fract_y
 _atom_site_fract_z
 _atom_site_occupancy
 _atom_site_hle17_bader_spin_density
 _atom_site_hle17_ddec_charge
 _atom_site_hle17_ddec_spin_density
 _atom_site_hle17_ddec_sum_bond_order
 _atom_site_hle17_magmom
 _atom_site_hse06_10hf_bader_spin_density
 _atom_site_hse06_10hf_ddec_charge
 _atom_site_hse06_10hf_ddec_spin_density
 _atom_site_hse06_10hf_ddec_sum_bond_order
 _atom_site_hse06_10hf_magmom
 _atom_site_hse06_bader_spin_density
 _atom_site_hse06_ddec_charge
 _atom_site_hse06_ddec_spin_density
 _atom_site_hse06_ddec_sum_bond_order
 _atom_site_hse06_magmom
 _atom_site_pbe_bader_spin_density
 _atom_site_pbe_cm5_charge
 _atom_site_pbe_ddec_charge
 _atom_site_pbe_ddec_spin_density
 _atom_site_pbe_ddec_sum_bond_order
 _atom_site_pbe_magmom
Cd  Cd0  1  0.19380492  0.16467627  0.49052252  1  0  1.120589  0  1.619243  0  0  0.926121  0  2.050059  0  0  0.987028  0  1.996703  0  0  0.766477  0.883036  0  2.086392  0
Cd  Cd1  1  0.80619288  0.83532734  0.50947739  1  0  1.120602  0  1.619255  0  0  0.926117  0  2.050085  0  0  0.987025  0  1.996725  0  0  0.766428  0.883026  0  2.086417  0
H  H2  1  0.79098974  0.09971890  0.51863788  1  0  0.434079  0  0.856619  0  0  0.401474  0  0.925057  0  0  0.41223  0  0.909551  0  0  0.29329  0.393818  0  0.936078  0
H  H3  1  0.20901492  0.90028722  0.48136251  1  0  0.434054  0  0.856631  0  0  0.401502  0  0.924986  0  0  0.412253  0  0.909493  0  0  0.293306  0.393844  0  0.936008  0
H  H4  1  0.78402881  0.04426783  0.41117043  1  0  0.436291  0  0.857028  0  0  0.40717  0  0.916508  0  0  0.417727  0  0.901278  0  0  0.293515  0.399663  0  0.927301  0
H  H5  1  0.21597409  0.95573748  0.58882893  1  0  0.436466  0  0.856838  0  0  0.407322  0  0.91634  0  0  0.417893  0  0.901094  0  0  0.293537  0.399812  0  0.927138  0
H  H6  1  0.08582872  0.22697388  0.71286228  1  0  0.084387  0  0.946911  0  0  0.090655  0  1.013067  0  0  0.092272  0  1.012416  0  0  0.116748  0.08939  0  1.013708  0
H  H7  1  0.91416957  0.77301810  0.28713100  1  0  0.084332  0  0.946808  0  0  0.090635  0  1.012946  0  0  0.09225  0  1.012298  0  0  0.116732  0.089367  0  1.013584  0
H  H8  1  0.08246680  0.39479342  0.84577917  1  0  0.098984  0  0.97868  0  0  0.107866  0  1.041168  0  0  0.109458  0  1.043078  0  0  0.100599  0.106684  0  1.040011  0
H  H9  1  0.91753316  0.60519502  0.15421899  1  0  0.099013  0  0.978665  0  0  0.107886  0  1.041149  0  0  0.109477  0  1.043059  0  0  0.100625  0.106694  0  1.040021  0
H  H10  1  0.15911031  0.58669669  0.81921542  1  0  0.098715  0  0.94303  0  0  0.108718  0  1.004176  0  0  0.111924  0  1.001516  0  0  0.106326  0.106317  0  1.006147  0
H  H11  1  0.84088301  0.41329423  0.18078477  1  0  0.098744  0  0.942943  0  0  0.108683  0  1.004172  0  0  0.111908  0  1.001489  0  0  0.106313  0.106284  0  1.006145  0
H  H12  1  0.22881710  0.70368602  0.70475279  1  0  0.105821  0  0.923168  0  0  0.12208  0  0.971479  0  0  0.124475  0  0.971492  0  0  0.111251  0.120272  0  0.971689  0
H  H13  1  0.77117437  0.29631247  0.29524889  1  0  0.105794  0  0.923183  0  0  0.122074  0  0.971471  0  0  0.12447  0  0.971482  0  0  0.111249  0.120267  0  0.971682  0
H  H14  1  0.28093722  0.71443084  0.54287379  1  0  0.127209  0  0.941096  0  0  0.1379  0  0.999798  0  0  0.141203  0  0.997737  0  0  0.112582  0.13538  0  1.001508  0
H  H15  1  0.71904742  0.28556518  0.45712605  1  0  0.127183  0  0.94111  0  0  0.137894  0  0.999802  0  0  0.141193  0  0.997743  0  0  0.112584  0.135375  0  1.001517  0
H  H16  1  0.32180571  0.61904154  0.37890616  1  0  0.123722  0  0.964078  0  0  0.13252  0  1.025932  0  0  0.136242  0  1.022942  0  0  0.110267  0.129762  0  1.028098  0
H  H17  1  0.67818518  0.38095952  0.62109465  1  0  0.123756  0  0.964094  0  0  0.132499  0  1.026001  0  0  0.13621  0  1.023028  0  0  0.110263  0.129744  0  1.028165  0
H  H18  1  0.31828809  0.43820785  0.25594521  1  0  0.09609  0  0.941559  0  0  0.110048  0  0.993952  0  0  0.112467  0  0.994511  0  0  0.104019  0.108308  0  0.993706  0
H  H19  1  0.68170323  0.56179420  0.74405102  1  0  0.096081  0  0.941647  0  0  0.110074  0  0.993987  0  0  0.11251  0  0.994526  0  0  0.104067  0.108335  0  0.993744  0
H  H20  1  0.26089007  0.25626940  0.30410340  1  0  0.092868  0  0.947302  0  0  0.10165  0  1.007678  0  0  0.104509  0  1.004411  0  0  0.117476  0.099501  0  1.010075  0
H  H21  1  0.73910276  0.74373267  0.69589229  1  0  0.092959  0  0.947162  0  0  0.101595  0  1.007699  0  0  0.10445  0  1.004438  0  0  0.117471  0.099443  0  1.010097  0
H  H22  1  0.45905130  0.68300403  0.18503902  1  0  0.111675  0  0.963466  0  0  0.12035  0  1.026858  0  0  0.12362  0  1.026715  0  0  0.100722  0.118011  0  1.027144  0
H  H23  1  0.54095071  0.31699926  0.81497086  1  0  0.111678  0  0.963446  0  0  0.120322  0  1.026877  0  0  0.123591  0  1.026738  0  0  0.100699  0.117981  0  1.027173  0
H  H24  1  0.98156435  0.78261741  0.00256560  1  0  0.110536  0  0.937912  0  0  0.124386  0  0.990691  0  0  0.128115  0  0.988944  0  0  0.10556  0.121732  0  0.992074  0
H  H25  1  0.01844124  0.21737859  0.99743403  1  0  0.110567  0  0.937923  0  0  0.124425  0  0.990689  0  0  0.128153  0  0.988943  0  0  0.105585  0.121769  0  0.992073  0
H  H26  1  0.98226796  0.94527853  0.14267471  1  0  0.107509  0  0.933221  0  0  0.117537  0  0.988679  0  0  0.12145  0  0.985585  0  0  0.108057  0.114682  0  0.990987  0
H  H27  1  0.01773203  0.05472266  0.85732142  1  0  0.107486  0  0.933281  0  0  0.117521  0  0.988739  0  0  0.121433  0  0.985646  0  0  0.108046  0.114668  0  0.991051  0
H  H28  1  0.16927510  0.43388929  0.03786596  1  0  0.118557  0  0.95407  0  0  0.123894  0  1.020705  0  0  0.127939  0  1.017556  0  0  0.108201  0.120945  0  1.023067  0
H  H29  1  0.83072641  0.56610395  0.96214098  1  0  0.118584  0  0.954002  0  0  0.123981  0  1.020583  0  0  0.127992  0  1.017473  0  0  0.108214  0.121028  0  1.022953  0
H  H30  1  0.57069089  0.69218494  0.97678476  1  0  0.117122  0  0.924795  0  0  0.131593  0  0.974263  0  0  0.134431  0  0.973465  0  0  0.114518  0.129573  0  0.974897  0
H  H31  1  0.42931484  0.30780748  0.02322100  1  0  0.117066  0  0.924821  0  0  0.131577  0  0.97426  0  0  0.134414  0  0.973463  0  0  0.114542  0.129557  0  0.974892  0
C  C32  1  0.11650869  0.31131268  0.70330686  1  0  0.151002  0  3.684364  0  0  0.12066  0  3.938489  0  0  0.128551  0  3.95574  0  0  0.058123  0.115456  0  3.926747  0
C  C33  1  0.88349137  0.68868011  0.29668744  1  0  0.151123  0  3.683834  0  0  0.120728  0  3.938001  0  0  0.128621  0  3.955245  0  0  0.058152  0.115534  0  3.926246  0
C  C34  1  0.11667054  0.40618721  0.77799512  1  0  -0.123117  0  3.744152  0  0  -0.135696  0  3.997572  0  0  -0.142847  0  4.021071  0  0  -0.089612  -0.130972  0  3.981626  0
C  C35  1  0.88333006  0.59380298  0.22200141  1  0  -0.123033  0  3.743971  0  0  -0.135572  0  3.997371  0  0  -0.142723  0  4.020874  0  0  -0.089595  -0.130858  0  3.981424  0
C  C36  1  0.15924773  0.51145343  0.76304013  1  0  -0.060982  0  3.716708  0  0  -0.086263  0  3.96854  0  0  -0.084669  0  3.987437  0  0  -0.071191  -0.086934  0  3.95549  0
C  C37  1  0.84075131  0.48854092  0.23695856  1  0  -0.061106  0  3.716591  0  0  -0.086332  0  3.968489  0  0  -0.084755  0  3.987378  0  0  -0.071236  -0.087009  0  3.955444  0
C  C38  1  0.19843253  0.52207914  0.67293041  1  0  0.019625  0  3.81979  0  0  0.035504  0  4.053132  0  0  0.033582  0  4.078275  0  0  -0.00404  0.036682  0  4.036162  0
C  C39  1  0.80156611  0.47791848  0.32707172  1  0  0.019562  0  3.819627  0  0  0.035374  0  4.053079  0  0  0.033442  0  4.078243  0  0  -0.004098  0.036557  0  4.036108  0
C  C40  1  0.23177324  0.62766180  0.65007830  1  0  -0.107212  0  3.744038  0  0  -0.131332  0  4.002404  0  0  -0.135984  0  4.026227  0  0  -0.086537  -0.128251  0  3.986216  0
C  C41  1  0.76822605  0.37233334  0.34992197  1  0  -0.107011  0  3.743837  0  0  -0.131115  0  4.002222  0  0  -0.135764  0  4.026042  0  0  -0.086436  -0.128033  0  3.986038  0
C  C42  1  0.26141157  0.63378986  0.56063772  1  0  -0.076614  0  3.692956  0  0  -0.102201  0  3.951908  0  0  -0.103727  0  3.973339  0  0  -0.076307  -0.100863  0  3.937186  0
C  C43  1  0.73858563  0.36620783  0.43936223  1  0  -0.076727  0  3.693005  0  0  -0.102365  0  3.952002  0  0  -0.103885  0  3.973424  0  0  -0.07635  -0.101036  0  3.937292  0
C  C44  1  0.26341131  0.53441052  0.48810411  1  0  0.022393  0  3.77035  0  0  0.038401  0  4.005348  0  0  0.035321  0  4.028976  0  0  -0.000386  0.040233  0  3.989235  0
C  C45  1  0.73659158  0.46559055  0.51189570  1  0  0.022436  0  3.770374  0  0  0.038439  0  4.0053  0  0  0.03536  0  4.028925  0  0  -0.000433  0.040281  0  3.989182  0
C  C46  1  0.29555884  0.53766387  0.39515712  1  0  -0.041361  0  3.65556  0  0  -0.070145  0  3.910139  0  0  -0.066453  0  3.926417  0  0  -0.065113  -0.072219  0  3.899074  0
C  C47  1  0.70443771  0.46234055  0.60484424  1  0  -0.041482  0  3.655538  0  0  -0.070235  0  3.910148  0  0  -0.066543  0  3.926426  0  0  -0.065088  -0.072317  0  3.899104  0
C  C48  1  0.29427625  0.43861500  0.32823157  1  0  -0.12285  0  3.761293  0  0  -0.135684  0  4.019847  0  0  -0.143653  0  4.041964  0  0  -0.087397  -0.130635  0  4.004947  0
C  C49  1  0.70571882  0.56138942  0.67176966  1  0  -0.12275  0  3.761199  0  0  -0.135592  0  4.019712  0  0  -0.143574  0  4.041822  0  0  -0.087421  -0.130549  0  4.004827  0
C  C50  1  0.26386733  0.33690900  0.35430488  1  0  0.140929  0  3.708059  0  0  0.10816  0  3.96339  0  0  0.117302  0  3.980711  0  0  0.056909  0.102347  0  3.951393  0
C  C51  1  0.73612789  0.66309137  0.64569065  1  0  0.140894  0  3.707984  0  0  0.108209  0  3.963355  0  0  0.117351  0  3.98068  0  0  0.056905  0.102403  0  3.95135  0
C  C52  1  0.23281805  0.42794573  0.50825081  1  0  0.129663  0  3.767144  0  0  0.121848  0  4.004636  0  0  0.127106  0  4.027206  0  0  0.116611  0.118386  0  3.989168  0
C  C53  1  0.76718664  0.57205620  0.49174866  1  0  0.129644  0  3.767266  0  0  0.121952  0  4.004539  0  0  0.12721  0  4.027107  0  0  0.116638  0.118493  0  3.989063  0
C  C54  1  0.19561926  0.42138565  0.60188579  1  0  0.125529  0  3.754548  0  0  0.120687  0  3.990453  0  0  0.124686  0  4.012309  0  0  0.117973  0.117954  0  3.975744  0
C  C55  1  0.80438213  0.57861118  0.39811434  1  0  0.125531  0  3.754661  0  0  0.120679  0  3.990509  0  0  0.124679  0  4.012367  0  0  0.117955  0.117935  0  3.975806  0
C  C56  1  0.20549726  0.00187801  0.32186026  1  0  0.638537  0  3.938243  0  0  0.590172  0  4.229372  0  0  0.624375  0  4.223714  0  0  0.19288  0.567  0  4.232419  0
C  C57  1  0.79450145  0.99812816  0.67813892  1  0  0.638369  0  3.938195  0  0  0.589954  0  4.229394  0  0  0.624159  0  4.223742  0  0  0.192758  0.566792  0  4.232426  0
C  C58  1  0.21767943  0.90487111  0.24134301  1  0  -0.099027  0  3.734503  0  0  -0.089408  0  3.975691  0  0  -0.097718  0  3.996115  0  0  -0.023842  -0.084211  0  3.962204  0
C  C59  1  0.78232525  0.09513504  0.75865669  1  0  -0.098885  0  3.734497  0  0  -0.089253  0  3.97576  0  0  -0.097595  0  3.996165  0  0  -0.023789  -0.084061  0  3.962272  0
C  C60  1  0.35348325  0.83100280  0.25355382  1  0  0.002917  0  3.691548  0  0  0.014909  0  3.931884  0  0  0.016469  0  3.947978  0  0  0.002313  0.013717  0  3.921296  0
C  C61  1  0.64651995  0.16900759  0.74644531  1  0  0.0027  0  3.691719  0  0  0.014577  0  3.932198  0  0  0.016234  0  3.948162  0  0  0.002216  0.01339  0  3.92161  0
C  C62  1  0.35403649  0.74038466  0.17559202  1  0  -0.230204  0  3.737623  0  0  -0.257138  0  3.987401  0  0  -0.263716  0  4.005534  0  0  -0.110307  -0.252808  0  3.975385  0
C  C63  1  0.64596594  0.25961962  0.82441328  1  0  -0.230016  0  3.737522  0  0  -0.256866  0  3.987325  0  0  -0.263475  0  4.005429  0  0  -0.110177  -0.252537  0  3.975311  0
C  C64  1  0.21942758  0.72366599  0.08651276  1  0  0.28013  0  3.813392  0  0  0.269019  0  4.083016  0  0  0.281372  0  4.097042  0  0  0.080582  0.260628  0  4.073437  0
C  C65  1  0.78057877  0.27633661  0.91349183  1  0  0.280054  0  3.813338  0  0  0.268914  0  4.083011  0  0  0.281268  0  4.097037  0  0  0.080558  0.260529  0  4.073424  0
C  C66  1  0.08396460  0.79671167  0.07313095  1  0  -0.203053  0  3.785073  0  0  -0.227354  0  4.045468  0  0  -0.233683  0  4.064388  0  0  -0.112663  -0.223252  0  4.032682  0
C  C67  1  0.91604455  0.20329021  0.92686960  1  0  -0.203149  0  3.785098  0  0  -0.227452  0  4.045529  0  0  -0.233784  0  4.064449  0  0  -0.112766  -0.223354  0  4.032744  0
C  C68  1  0.08538800  0.88663302  0.15048302  1  0  -0.0434  0  3.766806  0  0  -0.064237  0  4.017048  0  0  -0.061364  0  4.03538  0  0  -0.081439  -0.065877  0  4.004526  0
C  C69  1  0.91462086  0.11337227  0.84951687  1  0  -0.043396  0  3.766876  0  0  -0.064231  0  4.017119  0  0  -0.06136  0  4.035459  0  0  -0.081413  -0.065874  0  4.004605  0
C  C70  1  0.50608398  0.84309612  0.34691510  1  0  0.66496  0  3.914249  0  0  0.607126  0  4.222292  0  0  0.641834  0  4.213299  0  0  0.20101  0.583497  0  4.227555  0
C  C71  1  0.49392761  0.15691258  0.65308371  1  0  0.664999  0  3.91447  0  0  0.607172  0  4.222551  0  0  0.641852  0  4.21356  0  0  0.200991  0.583536  0  4.227822  0
C  C72  1  0.35785403  0.56894540  0.00840116  1  0  0.253342  0  3.80415  0  0  0.245147  0  4.066937  0  0  0.252816  0  4.084303  0  0  0.079164  0.239808  0  4.055078  0
C  C73  1  0.64214306  0.43105216  0.99160288  1  0  0.25325  0  3.804351  0  0  0.245104  0  4.067094  0  0  0.252771  0  4.084448  0  0  0.079114  0.239764  0  4.055239  0
C  C74  1  0.31544535  0.46193787  0.02223475  1  0  -0.156597  0  3.753004  0  0  -0.17826  0  4.010668  0  0  -0.180941  0  4.02911  0  0  -0.094752  -0.176333  0  3.998217  0
C  C75  1  0.68454664  0.53805800  0.97776985  1  0  -0.156581  0  3.753539  0  0  -0.17832  0  4.011152  0  0  -0.180978  0  4.029611  0  0  -0.094757  -0.176393  0  3.998704  0
C  C76  1  0.54142320  0.60795270  0.98669326  1  0  -0.152638  0  3.756197  0  0  -0.176102  0  4.010789  0  0  -0.179631  0  4.031157  0  0  -0.091383  -0.173592  0  3.996845  0
C  C77  1  0.45858470  0.39204150  0.01330963  1  0  -0.152548  0  3.755974  0  0  -0.17606  0  4.010536  0  0  -0.179589  0  4.030914  0  0  -0.091381  -0.173553  0  3.996596  0
N  N78  1  0.23518539  0.33202131  0.44166275  1  0  -0.354537  0  3.259017  0  0  -0.284069  0  3.523989  0  0  -0.305608  0  3.544287  0  0  -0.321574  -0.269437  0  3.509813  0
N  N79  1  0.76481340  0.66797648  0.55833391  1  0  -0.354565  0  3.259117  0  0  -0.284119  0  3.52403  0  0  -0.305655  0  3.544318  0  0  -0.321582  -0.269491  0  3.509848  0
N  N80  1  0.15574774  0.31900591  0.61844392  1  0  -0.335154  0  3.221603  0  0  -0.268561  0  3.477489  0  0  -0.287185  0  3.496795  0  0  -0.315575  -0.255854  0  3.464237  0
N  N81  1  0.84425193  0.68099018  0.38155314  1  0  -0.335279  0  3.221454  0  0  -0.268664  0  3.477345  0  0  -0.287288  0  3.496646  0  0  -0.315571  -0.255952  0  3.464083  0
O  O82  1  0.84044112  0.11564062  0.46209194  1  0  -0.824789  0  1.851071  0  0  -0.761535  0  2.039239  0  0  -0.784739  0  2.005583  0  0  -0.578523  -0.74511  0  2.062711  0
O  O83  1  0.15955757  0.88436553  0.53790792  1  0  -0.824951  0  1.85102  0  0  -0.761685  0  2.039235  0  0  -0.784903  0  2.005547  0  0  -0.578542  -0.745257  0  2.062714  0
O  O84  1  0.27121943  0.99767881  0.40994127  1  0  -0.651068  0  2.023737  0  0  -0.574526  0  2.256734  0  0  -0.604865  0  2.24618  0  0  -0.323215  -0.553336  0  2.26321  0
O  O85  1  0.72878085  0.00232744  0.59005531  1  0  -0.65109  0  2.023597  0  0  -0.574456  0  2.256585  0  0  -0.604784  0  2.245988  0  0  -0.323196  -0.553282  0  2.263074  0
O  O86  1  0.13024885  0.08298719  0.30169176  1  0  -0.630167  0  1.908136  0  0  -0.57999  0  2.126395  0  0  -0.605044  0  2.11591  0  0  -0.336107  -0.562395  0  2.132969  0
O  O87  1  0.86974084  0.91701471  0.69830912  1  0  -0.630081  0  1.908164  0  0  -0.579867  0  2.126432  0  0  -0.604923  0  2.115947  0  0  -0.336016  -0.562273  0  2.133001  0
O  O88  1  0.68194394  0.90149107  0.35843368  1  0  -0.660118  0  1.962326  0  0  -0.595339  0  2.190563  0  0  -0.624414  0  2.179924  0  0  -0.32478  -0.57465  0  2.197014  0
O  O89  1  0.31807398  0.09851006  0.64156334  1  0  -0.660106  0  1.962376  0  0  -0.595304  0  2.190568  0  0  -0.624385  0  2.179952  0  0  -0.324756  -0.574609  0  2.197021  0
O  O90  1  0.45786514  0.78605334  0.40388137  1  0  -0.623368  0  1.95856  0  0  -0.566829  0  2.201108  0  0  -0.594914  0  2.191511  0  0  -0.316419  -0.546861  0  2.206886  0
O  O91  1  0.54214310  0.21395869  0.59611925  1  0  -0.623439  0  1.958563  0  0  -0.566821  0  2.20101  0  0  -0.594903  0  2.191426  0  0  -0.316423  -0.546853  0  2.206793  0
O  O92  1  0.20513587  0.63317398  0.00755915  1  0  -0.316877  0  2.34318  0  0  -0.250958  0  2.574583  0  0  -0.267373  0  2.574105  0  0  -0.163984  -0.239197  0  2.574472  0
O  O93  1  0.79486655  0.36682181  0.99244705  1  0  -0.316784  0  2.342976  0  0  -0.250871  0  2.574369  0  0  -0.267281  0  2.573888  0  0  -0.163946  -0.239111  0  2.574257  0
