# generated using pymatgen
data_CuH9C7SIN
_symmetry_space_group_name_H-M   'P 1'
_cell_length_a   7.60683281
_cell_length_b   9.39446037
_cell_length_c   14.78096309
_cell_angle_alpha   90.00007118
_cell_angle_beta   89.99989381
_cell_angle_gamma   110.77521350
_symmetry_Int_Tables_number   1
_chemical_formula_structural   CuH9C7SIN
_chemical_formula_sum   'Cu4 H36 C28 S4 I4 N4'
_cell_volume   987.59844330
_cell_formula_units_Z   4
loop_
 _symmetry_equiv_pos_site_id
 _symmetry_equiv_pos_as_xyz
  1  'x, y, z'
loop_
 _atom_site_type_symbol
 _atom_site_label
 _atom_site_symmetry_multiplicity
 _atom_site_fract_x
 _atom_site_fract_y
 _atom_site_fract_z
 _atom_site_occupancy
 _atom_site_hle17_bader_spin_density
 _atom_site_hle17_ddec_charge
 _atom_site_hle17_ddec_spin_density
 _atom_site_hle17_ddec_sum_bond_order
 _atom_site_hle17_magmom
 _atom_site_hse06_10hf_bader_spin_density
 _atom_site_hse06_10hf_ddec_charge
 _atom_site_hse06_10hf_ddec_spin_density
 _atom_site_hse06_10hf_ddec_sum_bond_order
 _atom_site_hse06_10hf_magmom
 _atom_site_hse06_bader_spin_density
 _atom_site_hse06_ddec_charge
 _atom_site_hse06_ddec_spin_density
 _atom_site_hse06_ddec_sum_bond_order
 _atom_site_hse06_magmom
 _atom_site_pbe_bader_spin_density
 _atom_site_pbe_cm5_charge
 _atom_site_pbe_ddec_charge
 _atom_site_pbe_ddec_spin_density
 _atom_site_pbe_ddec_sum_bond_order
 _atom_site_pbe_magmom
Cu  Cu0  1  0.52930399  0.13424946  0.46267195  1  0  0.296779  0  2.301557  0  0  0.223389  0  2.802382  0  0  0.230002  0  2.750918  0  0  0.326357  0.221696  0  2.834248  0
Cu  Cu1  1  0.47069478  0.86575083  0.96267284  1  0  0.296728  0  2.301635  0  0  0.223352  0  2.802421  0  0  0.229953  0  2.750967  0  0  0.326339  0.221641  0  2.834298  0
Cu  Cu2  1  0.47069690  0.86574492  0.53732843  1  0  0.296755  0  2.301625  0  0  0.223379  0  2.802414  0  0  0.229971  0  2.750951  0  0  0.326363  0.221671  0  2.83431  0
Cu  Cu3  1  0.52930564  0.13425151  0.03732822  1  0  0.296759  0  2.301597  0  0  0.223389  0  2.802378  0  0  0.229978  0  2.750929  0  0  0.326375  0.221676  0  2.834287  0
H  H4  1  0.50087409  0.09556214  0.25000042  1  0  0.090963  0  0.967072  0  0  0.097926  0  1.037684  0  0  0.100379  0  1.036339  0  0  0.088882  0.095531  0  1.039228  0
H  H5  1  0.49912682  0.90444134  0.75000132  1  0  0.090961  0  0.966996  0  0  0.097943  0  1.037625  0  0  0.1004  0  1.036274  0  0  0.088891  0.095549  0  1.039173  0
H  H6  1  0.88539077  0.01100227  0.39657387  1  0  0.103501  0  0.932489  0  0  0.117579  0  0.994928  0  0  0.119027  0  0.994846  0  0  0.094053  0.116699  0  0.994728  0
H  H7  1  0.11461232  0.98900137  0.89657453  1  0  0.103507  0  0.93248  0  0  0.117595  0  0.994913  0  0  0.119043  0  0.994828  0  0  0.094074  0.116716  0  0.99471  0
H  H8  1  0.11461128  0.98899780  0.60342651  1  0  0.103498  0  0.932517  0  0  0.117584  0  0.994951  0  0  0.119032  0  0.994869  0  0  0.094061  0.116705  0  0.994753  0
H  H9  1  0.88538959  0.01100439  0.10342518  1  0  0.103502  0  0.932499  0  0  0.117571  0  0.994944  0  0  0.11902  0  0.99486  0  0  0.094044  0.116691  0  0.994742  0
H  H10  1  0.67020325  0.92476276  0.33727577  1  0  0.090721  0  0.955195  0  0  0.104912  0  1.021699  0  0  0.106232  0  1.021523  0  0  0.088314  0.104163  0  1.021577  0
H  H11  1  0.32980003  0.07524082  0.83727684  1  0  0.090741  0  0.955121  0  0  0.104935  0  1.021645  0  0  0.106255  0  1.021467  0  0  0.088318  0.104191  0  1.021524  0
H  H12  1  0.32979980  0.07523959  0.66272394  1  0  0.090766  0  0.95509  0  0  0.104952  0  1.021609  0  0  0.106275  0  1.021434  0  0  0.088342  0.104209  0  1.021487  0
H  H13  1  0.67020138  0.92476380  0.16272354  1  0  0.090719  0  0.955222  0  0  0.104908  0  1.021723  0  0  0.106229  0  1.021546  0  0  0.088286  0.104162  0  1.021596  0
H  H14  1  0.96940441  0.93123656  0.24999850  1  0  0.080412  0  0.954666  0  0  0.097622  0  1.017718  0  0  0.098666  0  1.01814  0  0  0.083654  0.096834  0  1.017357  0
H  H15  1  0.03059782  0.06876693  0.74999986  1  0  0.080432  0  0.954615  0  0  0.09767  0  1.017636  0  0  0.09872  0  1.018054  0  0  0.08367  0.096883  0  1.017279  0
H  H16  1  0.04183147  0.12991906  0.24999930  1  0  0.069846  0  0.97302  0  0  0.090227  0  1.03136  0  0  0.090625  0  1.03232  0  0  0.087791  0.090037  0  1.030784  0
H  H17  1  0.95817207  0.87008442  0.75000040  1  0  0.069852  0  0.972958  0  0  0.090196  0  1.031352  0  0  0.090595  0  1.032316  0  0  0.087776  0.090002  0  1.030776  0
H  H18  1  0.28671014  0.21401876  0.25000057  1  0  0.089908  0  0.990573  0  0  0.099549  0  1.055157  0  0  0.10271  0  1.053505  0  0  0.095699  0.097238  0  1.056694  0
H  H19  1  0.71328879  0.78598017  0.75000184  1  0  0.089929  0  0.990613  0  0  0.099573  0  1.055195  0  0  0.102739  0  1.053526  0  0  0.095717  0.097264  0  1.056717  0
H  H20  1  0.19511580  0.44498527  0.24999935  1  0  0.082451  0  0.955732  0  0  0.088403  0  1.024372  0  0  0.091851  0  1.022609  0  0  0.093254  0.085852  0  1.025952  0
H  H21  1  0.80487786  0.55501364  0.75000035  1  0  0.082376  0  0.955742  0  0  0.088394  0  1.024323  0  0  0.091841  0  1.02256  0  0  0.093275  0.085843  0  1.025904  0
H  H22  1  0.44427970  0.70262236  0.24999934  1  0  0.08355  0  0.987556  0  0  0.086182  0  1.064975  0  0  0.089703  0  1.063059  0  0  0.084272  0.083786  0  1.066395  0
H  H23  1  0.55571528  0.29737656  0.74999969  1  0  0.083531  0  0.987586  0  0  0.086168  0  1.06499  0  0  0.089684  0  1.063087  0  0  0.084275  0.083773  0  1.066416  0
H  H24  1  0.78347522  0.72635967  0.24999986  1  0  0.087349  0  0.982335  0  0  0.10139  0  1.03795  0  0  0.103856  0  1.037799  0  0  0.095959  0.099152  0  1.038486  0
H  H25  1  0.21651681  0.27364152  0.74999917  1  0  0.087295  0  0.982329  0  0  0.10134  0  1.037946  0  0  0.103811  0  1.037782  0  0  0.095933  0.099106  0  1.038487  0
H  H26  1  0.87014792  0.49696946  0.25000040  1  0  0.088165  0  0.961218  0  0  0.095473  0  1.029944  0  0  0.098901  0  1.027962  0  0  0.093533  0.092588  0  1.031766  0
H  H27  1  0.12985086  0.50303516  0.75000066  1  0  0.088103  0  0.961246  0  0  0.095403  0  1.029989  0  0  0.098832  0  1.028005  0  0  0.093521  0.09252  0  1.031813  0
H  H28  1  0.23370747  0.53247958  0.44817184  1  0  0.149239  0  0.939819  0  0  0.162857  0  1.006536  0  0  0.165535  0  1.005178  0  0  0.105577  0.161066  0  1.007375  0
H  H29  1  0.76628953  0.46751955  0.94817145  1  0  0.149223  0  0.939823  0  0  0.162839  0  1.006546  0  0  0.165517  0  1.005189  0  0  0.105575  0.161048  0  1.007387  0
H  H30  1  0.76628684  0.46751478  0.55182719  1  0  0.14923  0  0.93981  0  0  0.16284  0  1.006546  0  0  0.165518  0  1.005187  0  0  0.105561  0.161049  0  1.007392  0
H  H31  1  0.23371597  0.53247939  0.05182622  1  0  0.149241  0  0.939824  0  0  0.162861  0  1.006532  0  0  0.165538  0  1.005174  0  0  0.105577  0.161068  0  1.007372  0
H  H32  1  0.20145103  0.48624784  0.56577649  1  0  0.148386  0  0.939967  0  0  0.163385  0  1.004474  0  0  0.165394  0  1.004012  0  0  0.107579  0.161724  0  1.005081  0
H  H33  1  0.79854878  0.51374862  0.06577632  1  0  0.148386  0  0.939934  0  0  0.163383  0  1.004454  0  0  0.16539  0  1.003993  0  0  0.107582  0.16172  0  1.005056  0
H  H34  1  0.79855314  0.51374200  0.43422457  1  0  0.148363  0  0.939999  0  0  0.163357  0  1.004515  0  0  0.165359  0  1.004058  0  0  0.107568  0.161695  0  1.00512  0
H  H35  1  0.20145377  0.48625259  0.93422271  1  0  0.148369  0  0.940033  0  0  0.163379  0  1.004517  0  0  0.165387  0  1.004055  0  0  0.107568  0.161718  0  1.005121  0
H  H36  1  0.04151550  0.36650339  0.48535551  1  0  0.141024  0  0.96986  0  0  0.155764  0  1.034994  0  0  0.157868  0  1.034611  0  0  0.097905  0.153883  0  1.035797  0
H  H37  1  0.95848007  0.63349578  0.98535507  1  0  0.140973  0  0.969779  0  0  0.155719  0  1.034927  0  0  0.157822  0  1.034544  0  0  0.097874  0.153834  0  1.035729  0
H  H38  1  0.95848817  0.63348531  0.51464487  1  0  0.141072  0  0.969846  0  0  0.155823  0  1.034965  0  0  0.15793  0  1.034578  0  0  0.097922  0.153936  0  1.035771  0
H  H39  1  0.04151706  0.36651111  0.01464261  1  0  0.141091  0  0.969773  0  0  0.155823  0  1.034911  0  0  0.157926  0  1.034527  0  0  0.09792  0.153942  0  1.035712  0
C  C40  1  0.62893661  0.19828385  0.25000040  1  0  -0.078705  0  3.603207  0  0  -0.080245  0  3.848083  0  0  -0.079465  0  3.860251  0  0  -0.070006  -0.080708  0  3.840555  0
C  C41  1  0.37106430  0.80171963  0.75000134  1  0  -0.07868  0  3.60331  0  0  -0.080206  0  3.848103  0  0  -0.079427  0  3.860273  0  0  -0.070067  -0.080676  0  3.840585  0
C  C42  1  0.80554272  0.02039907  0.33632344  1  0  -0.141348  0  3.626389  0  0  -0.174812  0  3.881974  0  0  -0.174948  0  3.89347  0  0  -0.156091  -0.174489  0  3.873889  0
C  C43  1  0.19446056  0.97960450  0.83632402  1  0  -0.141362  0  3.626273  0  0  -0.174888  0  3.881965  0  0  -0.175016  0  3.893456  0  0  -0.156127  -0.174571  0  3.873883  0
C  C44  1  0.19446033  0.97960328  0.66367627  1  0  -0.1414  0  3.626295  0  0  -0.174897  0  3.881926  0  0  -0.175036  0  3.893431  0  0  -0.156134  -0.174579  0  3.873852  0
C  C45  1  0.80554167  0.02039898  0.16367569  1  0  -0.141379  0  3.626401  0  0  -0.174828  0  3.881967  0  0  -0.174965  0  3.893461  0  0  -0.156064  -0.174505  0  3.873877  0
C  C46  1  0.91648170  0.02613168  0.24999951  1  0  -0.099498  0  3.71936  0  0  -0.141446  0  3.9739  0  0  -0.143565  0  3.98962  0  0  -0.174481  -0.139745  0  3.962845  0
C  C47  1  0.08352184  0.97387181  0.75000019  1  0  -0.0995  0  3.719196  0  0  -0.141404  0  3.973718  0  0  -0.143539  0  3.989462  0  0  -0.174471  -0.139698  0  3.962671  0
C  C48  1  0.58142595  0.34033086  0.25000115  1  0  0.058909  0  3.792636  0  0  0.077888  0  4.031346  0  0  0.077135  0  4.055568  0  0  -0.024363  0.078038  0  4.015108  0
C  C49  1  0.41857365  0.65967261  0.75000126  1  0  0.058781  0  3.79278  0  0  0.077714  0  4.031574  0  0  0.076954  0  4.055797  0  0  -0.024388  0.077869  0  4.015328  0
C  C50  1  0.39290962  0.32775886  0.25000056  1  0  -0.103781  0  3.737939  0  0  -0.125417  0  3.982954  0  0  -0.128118  0  4.004968  0  0  -0.09172  -0.124922  0  3.970569  0
C  C51  1  0.60708767  0.67224234  0.75000117  1  0  -0.103775  0  3.737937  0  0  -0.12541  0  3.982989  0  0  -0.128106  0  4.005006  0  0  -0.091722  -0.12491  0  3.970603  0
C  C52  1  0.34328698  0.45709903  0.25000064  1  0  -0.069264  0  3.775968  0  0  -0.074025  0  4.013873  0  0  -0.07748  0  4.037327  0  0  -0.094392  -0.072346  0  3.999934  0
C  C53  1  0.65670619  0.54289875  0.75000042  1  0  -0.069165  0  3.775874  0  0  -0.074  0  4.013811  0  0  -0.077454  0  4.037263  0  0  -0.094388  -0.072321  0  3.999873  0
C  C54  1  0.48346750  0.60159472  0.25000063  1  0  -0.070009  0  3.759391  0  0  -0.081834  0  4.001325  0  0  -0.084139  0  4.02436  0  0  -0.094722  -0.082004  0  3.987115  0
C  C55  1  0.51652567  0.39840306  0.74999975  1  0  -0.070004  0  3.759459  0  0  -0.08182  0  4.001406  0  0  -0.084124  0  4.024436  0  0  -0.094747  -0.081991  0  3.987208  0
C  C56  1  0.67252764  0.61482980  0.24999987  1  0  -0.069485  0  3.76623  0  0  -0.078589  0  4.003761  0  0  -0.081726  0  4.027437  0  0  -0.096071  -0.074476  0  3.985893  0
C  C57  1  0.32746570  0.38517139  0.75000119  1  0  -0.06944  0  3.766217  0  0  -0.078549  0  4.003744  0  0  -0.081685  0  4.027418  0  0  -0.096018  -0.07444  0  3.985893  0
C  C58  1  0.72207227  0.48530748  0.25000114  1  0  -0.132043  0  3.771587  0  0  -0.150082  0  4.015979  0  0  -0.152876  0  4.037576  0  0  -0.099488  -0.146309  0  3.998707  0
C  C59  1  0.27792519  0.51469713  0.75000127  1  0  -0.13193  0  3.771495  0  0  -0.149934  0  4.015852  0  0  -0.152739  0  4.037477  0  0  -0.09948  -0.14616  0  3.998589  0
C  C60  1  0.30409519  0.34569176  0.48985982  1  0  0.419739  0  3.646751  0  0  0.414051  0  3.915154  0  0  0.427959  0  3.929465  0  0  0.212292  0.404514  0  3.905355  0
C  C61  1  0.69589938  0.65430513  0.98986100  1  0  0.419656  0  3.646884  0  0  0.413968  0  3.915289  0  0  0.427874  0  3.929603  0  0  0.212269  0.404429  0  3.905473  0
C  C62  1  0.69590999  0.65430945  0.51013718  1  0  0.419774  0  3.646987  0  0  0.414082  0  3.915388  0  0  0.427981  0  3.929714  0  0  0.212357  0.404546  0  3.905579  0
C  C63  1  0.30409246  0.34568354  0.01013600  1  0  0.419634  0  3.646887  0  0  0.413939  0  3.915283  0  0  0.427841  0  3.9296  0  0  0.212237  0.404404  0  3.905478  0
C  C64  1  0.18904554  0.43832265  0.49725591  1  0  -0.372622  0  3.75487  0  0  -0.439842  0  3.97954  0  0  -0.443207  0  3.981781  0  0  -0.213641  -0.43722  0  3.978255  0
C  C65  1  0.81095131  0.56167653  0.99725555  1  0  -0.372565  0  3.754807  0  0  -0.439778  0  3.979478  0  0  -0.443142  0  3.98172  0  0  -0.213637  -0.437152  0  3.978187  0
C  C66  1  0.81095667  0.56167173  0.50274312  1  0  -0.372723  0  3.754926  0  0  -0.439886  0  3.979448  0  0  -0.443248  0  3.981683  0  0  -0.213688  -0.437262  0  3.978176  0
C  C67  1  0.18905025  0.43832240  0.00274145  1  0  -0.372723  0  3.754927  0  0  -0.439936  0  3.97956  0  0  -0.443299  0  3.9818  0  0  -0.213687  -0.437316  0  3.978274  0
S  S68  1  0.75753041  0.19454398  0.35383457  1  0  -0.000783  0  2.755495  0  0  0.018544  0  3.16457  0  0  0.017352  0  3.153729  0  0  -0.036884  0.018063  0  3.172412  0
S  S69  1  0.24247018  0.80545961  0.85383496  1  0  -0.000811  0  2.75561  0  0  0.018533  0  3.164688  0  0  0.017344  0  3.153842  0  0  -0.036875  0.018056  0  3.172523  0
S  S70  1  0.24247214  0.80545723  0.64616649  1  0  -0.00078  0  2.755525  0  0  0.018567  0  3.164585  0  0  0.017383  0  3.153738  0  0  -0.036858  0.018087  0  3.172437  0
S  S71  1  0.75752991  0.19454501  0.14616610  1  0  -0.000779  0  2.755541  0  0  0.018559  0  3.164592  0  0  0.017374  0  3.153741  0  0  -0.036888  0.01808  0  3.172432  0
I  I72  1  0.74051294  0.11824466  0.60174600  1  0  -0.465673  0  1.320991  0  0  -0.409132  0  1.685325  0  0  -0.427167  0  1.655988  0  0  -0.229552  -0.396501  0  1.704183  0
I  I73  1  0.25948644  0.88175411  0.10174664  1  0  -0.465657  0  1.321002  0  0  -0.409119  0  1.685312  0  0  -0.42715  0  1.655976  0  0  -0.229556  -0.396489  0  1.704162  0
I  I74  1  0.25948894  0.88175199  0.39825438  1  0  -0.465642  0  1.320989  0  0  -0.409111  0  1.685322  0  0  -0.427144  0  1.655984  0  0  -0.229546  -0.396482  0  1.704172  0
I  I75  1  0.74051348  0.11824709  0.89825374  1  0  -0.465663  0  1.320996  0  0  -0.409135  0  1.685341  0  0  -0.427165  0  1.656004  0  0  -0.229557  -0.396502  0  1.704196  0
N  N76  1  0.39492601  0.26909014  0.48361184  1  0  -0.423325  0  3.115266  0  0  -0.388214  0  3.437259  0  0  -0.397272  0  3.435346  0  0  -0.384793  -0.382868  0  3.437983  0
N  N77  1  0.60507038  0.73090789  0.98361249  1  0  -0.423205  0  3.115343  0  0  -0.388089  0  3.437333  0  0  -0.397147  0  3.435415  0  0  -0.384744  -0.382743  0  3.438038  0
N  N78  1  0.60508031  0.73090767  0.51638516  1  0  -0.423296  0  3.115546  0  0  -0.388195  0  3.437558  0  0  -0.397252  0  3.435635  0  0  -0.384824  -0.382849  0  3.43828  0
N  N79  1  0.39492393  0.26908647  0.01638518  1  0  -0.423174  0  3.115371  0  0  -0.388056  0  3.437356  0  0  -0.397113  0  3.435432  0  0  -0.384721  -0.382713  0  3.43808  0
