# generated using pymatgen
data_Zn4H4C40O17F16
_symmetry_space_group_name_H-M   'P 1'
_cell_length_a   23.88372281
_cell_length_b   23.88514835
_cell_length_c   23.88350296
_cell_angle_alpha   66.29051789
_cell_angle_beta   72.61104393
_cell_angle_gamma   107.39823302
_symmetry_Int_Tables_number   1
_chemical_formula_structural   Zn4H4C40O17F16
_chemical_formula_sum   'Zn8 H8 C80 O34 F32'
_cell_volume   10445.19015427
_cell_formula_units_Z   2
loop_
 _symmetry_equiv_pos_site_id
 _symmetry_equiv_pos_as_xyz
  1  'x, y, z'
loop_
 _atom_site_type_symbol
 _atom_site_label
 _atom_site_symmetry_multiplicity
 _atom_site_fract_x
 _atom_site_fract_y
 _atom_site_fract_z
 _atom_site_occupancy
 _atom_site_pbe_bader_charge
 _atom_site_pbe_bader_spin_density
 _atom_site_pbe_cm5_charge
 _atom_site_pbe_ddec_charge
 _atom_site_pbe_ddec_spin_density
 _atom_site_pbe_ddec_sum_bond_order
 _atom_site_pbe_magmom
Zn  Zn0  1  0.05698252  0.95726542  0.48576239  1  1.321161  0  0.68375  0.972225  0  2.366126  0
Zn  Zn1  1  0.05698404  0.09971859  0.45726688  1  1.320638  0  0.683708  0.972179  0  2.366146  0
Zn  Zn2  1  0.94301051  0.98575893  0.45725924  1  1.321319  0  0.683727  0.972272  0  2.366031  0
Zn  Zn3  1  0.94302624  0.95725989  0.59972212  1  1.320532  0  0.68366  0.972067  0  2.366278  0
Zn  Zn4  1  0.94302091  0.54273543  0.01423809  1  1.321048  0  0.683743  0.972254  0  2.366136  0
Zn  Zn5  1  0.05699079  0.51424344  0.04274294  1  1.32121  0  0.683649  0.972137  0  2.366243  0
Zn  Zn6  1  0.94301740  0.40027941  0.04273727  1  1.320477  0  0.683698  0.972121  0  2.366244  0
Zn  Zn7  1  0.05696928  0.54273202  0.90028121  1  1.320501  0  0.683786  0.972303  0  2.365918  0
H  H8  1  0.91945274  0.83714787  0.74339622  1  0.639301  0  0.3099  0.354697  0  0.963387  0
H  H9  1  0.08055038  0.66285322  0.75660368  1  0.639308  0  0.309927  0.354712  0  0.963365  0
H  H10  1  0.91944960  0.66284591  0.91769939  1  0.63721  0  0.309886  0.35472  0  0.963322  0
H  H11  1  0.08055425  0.83715433  0.58230147  1  0.637415  0  0.309935  0.354653  0  0.963435  0
H  H12  1  0.91944906  0.08230675  0.33713659  1  0.637417  0  0.310013  0.354682  0  0.963396  0
H  H13  1  0.08055381  0.41769529  0.16286384  1  0.6375  0  0.310013  0.354605  0  0.963491  0
H  H14  1  0.91945356  0.25660901  0.16283582  1  0.639383  0  0.309892  0.354574  0  0.963581  0
H  H15  1  0.08054954  0.24339275  0.33716255  1  0.639385  0  0.309898  0.354548  0  0.963578  0
C  C16  1  0.18087431  0.09044462  0.40956000  1  1.599061  0  0.230786  0.642638  0  4.156176  0
C  C17  1  0.99999701  0.13985188  0.36014654  1  1.428021  0  0.226924  0.631143  0  4.119858  0
C  C18  1  0.99998262  0.90956106  0.40957264  1  1.609041  0  0.230675  0.642641  0  4.156086  0
C  C19  1  0.81912776  0.90955467  0.59044888  1  1.599117  0  0.230773  0.642704  0  4.156422  0
C  C20  1  0.00000597  0.86014733  0.63985373  1  1.42866  0  0.226819  0.631075  0  4.119497  0
C  C21  1  0.99999025  0.09043093  0.59044291  1  1.637657  0  0.230817  0.642761  0  4.155986  0
C  C22  1  0.00000486  0.59042795  0.09044279  1  1.608703  0  0.230767  0.642677  0  4.156179  0
C  C23  1  0.00000459  0.36014784  0.13985435  1  1.427875  0  0.226916  0.631244  0  4.119841  0
C  C24  1  0.81912876  0.40955819  0.09042750  1  1.598931  0  0.230826  0.642694  0  4.155906  0
C  C25  1  0.99999332  0.40955024  0.90957358  1  1.637789  0  0.230796  0.642526  0  4.156237  0
C  C26  1  0.99999724  0.63985176  0.86014694  1  1.428427  0  0.226817  0.631009  0  4.119923  0
C  C27  1  0.18086875  0.59043042  0.90955101  1  1.598782  0  0.230742  0.642586  0  4.156222  0
C  C28  1  0.00000497  0.80417792  0.69582350  1  0.01081  0  -0.051593  -0.302333  0  4.029429  0
C  C29  1  0.00000062  0.69582455  0.80417720  1  0.007591  0  -0.051557  -0.302219  0  4.029109  0
C  C30  1  0.95626358  0.77687769  0.76685949  1  0.672786  0  0.070206  0.196616  0  4.065576  0
C  C31  1  0.04374237  0.72312675  0.73313948  1  0.673461  0  0.070134  0.196484  0  4.06548  0
C  C32  1  0.95626262  0.72312199  0.82061457  1  0.523127  0  0.070198  0.196658  0  4.065361  0
C  C33  1  0.04374338  0.77688145  0.67938520  1  0.519669  0  0.070281  0.196733  0  4.065543  0
C  C34  1  0.99999912  0.19582236  0.30417684  1  0.007472  0  -0.05157  -0.302224  0  4.029084  0
C  C35  1  0.00000330  0.30417972  0.19582202  1  0.007443  0  -0.051533  -0.302237  0  4.029319  0
C  C36  1  0.95626068  0.17938649  0.27686956  1  0.523604  0  0.070216  0.196626  0  4.065861  0
C  C37  1  0.04374184  0.32061311  0.22313194  1  0.523661  0  0.070049  0.196336  0  4.065997  0
C  C38  1  0.95626417  0.23314210  0.22311543  1  0.672931  0  0.070108  0.196356  0  4.065524  0
C  C39  1  0.04374190  0.26686001  0.27688526  1  0.673527  0  0.070229  0.196482  0  4.065685  0
C  C40  1  0.00000174  0.62787444  0.12789323  1  0.066849  0  -0.025279  -0.222049  0  3.951433  0
C  C41  1  0.95729706  0.65753662  0.13548808  1  0.649618  0  0.104557  0.176092  0  4.071721  0
C  C42  1  0.95740530  0.69228793  0.17029736  1  0.503511  0  0.10118  0.13502  0  4.063649  0
C  C43  1  0.99999376  0.69967444  0.19970329  1  0.231371  0  -0.005192  -0.033937  0  4.175359  0
C  C44  1  0.04258732  0.67028271  0.19232163  1  0.502106  0  0.101011  0.134575  0  4.063529  0
C  C45  1  0.04270091  0.63547324  0.15756727  1  0.650141  0  0.104672  0.176281  0  4.071428  0
C  C46  1  0.99998624  0.73476002  0.23480219  1  -0.240463  0  -0.020689  -0.036401  0  4.086476  0
C  C47  1  0.99997798  0.76519575  0.26524396  1  -0.031302  0  -0.020465  -0.035986  0  4.086282  0
C  C48  1  0.99997730  0.80029237  0.30033431  1  0.230997  0  -0.005328  -0.034302  0  4.175399  0
C  C49  1  0.95739591  0.82969891  0.30769970  1  0.502321  0  0.101142  0.134911  0  4.06313  0
C  C50  1  0.95728374  0.86451242  0.34245035  1  0.650246  0  0.104642  0.17622  0  4.071405  0
C  C51  1  0.99997389  0.87209798  0.37213280  1  0.066129  0  -0.02524  -0.22196  0  3.951823  0
C  C52  1  0.04265839  0.84241084  0.36456443  1  0.650149  0  0.104439  0.175892  0  4.07189  0
C  C53  1  0.04255219  0.80765999  0.32975813  1  0.505372  0  0.101139  0.135099  0  4.063788  0
C  C54  1  0.00000562  0.37209827  0.87212801  1  0.046364  0  -0.025295  -0.222021  0  3.951443  0
C  C55  1  0.04271562  0.40720077  0.79976355  1  0.661248  0  0.104441  0.176222  0  4.071784  0
C  C56  1  0.04260456  0.37228342  0.76512015  1  0.511602  0  0.101142  0.134587  0  4.063758  0
C  C57  1  0.00000442  0.30029329  0.80032353  1  0.204102  0  -0.005305  -0.034057  0  4.175038  0
C  C58  1  0.95741133  0.26508623  0.87231773  1  0.511604  0  0.101241  0.134858  0  4.0632  0
C  C59  1  0.95730402  0.29973046  0.90723491  1  0.660294  0  0.104594  0.176129  0  4.071408  0
C  C60  1  0.99999837  0.26520404  0.76523185  1  -0.03129  0  -0.020666  -0.036286  0  4.087306  0
C  C61  1  0.99998998  0.23477251  0.73478965  1  -0.241079  0  -0.020523  -0.036135  0  4.087299  0
C  C62  1  0.99998315  0.19968559  0.69969476  1  0.204729  0  -0.005334  -0.034243  0  4.175227  0
C  C63  1  0.04255872  0.23489598  0.62769697  1  0.5118  0  0.101173  0.13491  0  4.063765  0
C  C64  1  0.04266230  0.20025324  0.59278073  1  0.660883  0  0.104558  0.175958  0  4.071808  0
C  C65  1  0.99997814  0.12788409  0.62789046  1  0.046236  0  -0.025395  -0.222033  0  3.951654  0
C  C66  1  0.95728259  0.09277520  0.70025731  1  0.660825  0  0.104722  0.176262  0  4.071388  0
C  C67  1  0.95739706  0.12769334  0.73490147  1  0.511153  0  0.101201  0.134919  0  4.063162  0
C  C68  1  0.74422735  0.37210738  0.12788388  1  0.080335  0  -0.025502  -0.222128  0  3.951985  0
C  C69  1  0.70696995  0.40721485  0.13546323  1  0.531261  0  0.104592  0.176152  0  4.071869  0
C  C70  1  0.63740909  0.37229815  0.17027186  1  0.62578  0  0.101328  0.134958  0  4.063451  0
C  C71  1  0.60062154  0.30030486  0.19968505  1  0.108206  0  -0.005345  -0.034137  0  4.175332  0
C  C72  1  0.63740497  0.26509560  0.19231887  1  0.499042  0  0.101285  0.135084  0  4.063174  0
C  C73  1  0.70696820  0.29973832  0.15756519  1  0.647857  0  0.104599  0.176019  0  4.071672  0
C  C74  1  0.53043986  0.26521900  0.23476613  1  0.149218  0  -0.020696  -0.03642  0  4.086903  0
C  C75  1  0.46956532  0.23479283  0.26519159  1  -0.165683  0  -0.020566  -0.036131  0  4.086645  0
C  C76  1  0.39938154  0.19970275  0.30028086  1  0.106212  0  -0.005212  -0.033926  0  4.175016  0
C  C77  1  0.36259753  0.23490978  0.30766568  1  0.500534  0  0.101215  0.134805  0  4.06332  0
C  C78  1  0.29303594  0.20026609  0.34241925  1  0.64754  0  0.104532  0.176037  0  4.071535  0
C  C79  1  0.25577243  0.12789740  0.37209084  1  0.080678  0  -0.025334  -0.22207  0  3.951621  0
C  C80  1  0.29303369  0.09279599  0.36448154  1  0.53136  0  0.10451  0.176302  0  4.071862  0
C  C81  1  0.36259546  0.12771257  0.32967309  1  0.626098  0  0.10109  0.134616  0  4.063967  0
C  C82  1  0.25577274  0.62787441  0.87209992  1  0.079798  0  -0.025347  -0.222046  0  3.951737  0
C  C83  1  0.29303632  0.63544890  0.90721187  1  0.531148  0  0.104516  0.176082  0  4.071714  0
C  C84  1  0.36259578  0.67025680  0.87229296  1  0.626701  0  0.101165  0.13496  0  4.063387  0
C  C85  1  0.39937609  0.69967031  0.80029962  1  0.107796  0  -0.005372  -0.034235  0  4.175466  0
C  C86  1  0.36258858  0.69230085  0.76508929  1  0.500081  0  0.101397  0.135326  0  4.063031  0
C  C87  1  0.29302712  0.65755040  0.79972965  1  0.647309  0  0.104721  0.176142  0  4.071467  0
C  C88  1  0.46956064  0.73475854  0.76521380  1  0.149356  0  -0.020704  -0.036426  0  4.086904  0
C  C89  1  0.53043658  0.76519442  0.73479325  1  -0.165654  0  -0.020487  -0.03604  0  4.086753  0
C  C90  1  0.60062093  0.80029236  0.69970612  1  0.108141  0  -0.005237  -0.034079  0  4.175372  0
C  C91  1  0.63740891  0.80767740  0.73491471  1  0.498882  0  0.101318  0.1352  0  4.063182  0
C  C92  1  0.70697267  0.84243278  0.70026876  1  0.647723  0  0.104661  0.176094  0  4.071171  0
C  C93  1  0.74423211  0.87210289  0.62789764  1  0.080972  0  -0.025278  -0.222081  0  3.951568  0
C  C94  1  0.70696117  0.86449807  0.59279540  1  0.531095  0  0.104465  0.176176  0  4.071655  0
C  C95  1  0.63740015  0.82968914  0.62771435  1  0.625389  0  0.101141  0.134633  0  4.06374  0
O  O96  1  0.00000099  0.00000021  0.50000038  1  -1.2344  0  -0.572764  -1.0357  0  2.551682  0
O  O97  1  0.15209991  0.02510626  0.43519451  1  -1.154814  0  -0.311037  -0.539049  0  2.358422  0
O  O98  1  0.04001204  0.15600197  0.38401321  1  -1.178283  0  -0.308149  -0.549528  0  2.374626  0
O  O99  1  0.96026679  0.93517124  0.41272632  1  -1.15345  0  -0.310736  -0.538874  0  2.358655  0
O  O100  1  0.15210162  0.12699963  0.41272099  1  -1.154371  0  -0.310751  -0.538861  0  2.35881  0
O  O101  1  0.03971042  0.91273013  0.43518011  1  -1.152534  0  -0.310876  -0.538968  0  2.358584  0
O  O102  1  0.95998107  0.07597982  0.38400451  1  -1.177773  0  -0.308212  -0.54963  0  2.374726  0
O  O103  1  0.84789560  0.93518519  0.52511246  1  -1.154684  0  -0.310951  -0.539105  0  2.358636  0
O  O104  1  0.95999648  0.88400916  0.65600473  1  -1.17846  0  -0.308161  -0.54957  0  2.37466  0
O  O105  1  0.84790446  0.91270280  0.62701171  1  -1.154811  0  -0.310811  -0.53883  0  2.358598  0
O  O106  1  0.04001929  0.88400882  0.57597878  1  -1.177826  0  -0.308164  -0.549576  0  2.374568  0
O  O107  1  0.03971026  0.12698869  0.52511223  1  -1.166057  0  -0.310952  -0.539078  0  2.358693  0
O  O108  1  0.96028439  0.02509865  0.62700269  1  -1.166464  0  -0.310772  -0.538882  0  2.358687  0
O  O109  1  0.00000088  0.49999870  0.00000201  1  -1.23442  0  -0.572764  -1.035703  0  2.551688  0
O  O110  1  0.96029032  0.58727481  0.06481744  1  -1.152394  0  -0.311003  -0.53908  0  2.358423  0
O  O111  1  0.04002451  0.42402286  0.11599485  1  -1.177257  0  -0.308207  -0.549635  0  2.374687  0
O  O112  1  0.84789940  0.37300271  0.08726564  1  -1.154199  0  -0.310832  -0.538869  0  2.358824  0
O  O113  1  0.03971824  0.56481114  0.08729333  1  -1.1532  0  -0.31075  -0.538891  0  2.358719  0
O  O114  1  0.84790313  0.47489177  0.06481040  1  -1.154824  0  -0.310954  -0.539063  0  2.358421  0
O  O115  1  0.95998859  0.34399886  0.11599173  1  -1.178522  0  -0.308132  -0.549534  0  2.374694  0
O  O116  1  0.96028516  0.37298864  0.97490893  1  -1.166503  0  -0.310868  -0.538856  0  2.358526  0
O  O117  1  0.04000557  0.61599033  0.84399571  1  -1.178589  0  -0.308149  -0.549554  0  2.374824  0
O  O118  1  0.03968916  0.47488708  0.87300955  1  -1.166179  0  -0.310936  -0.538968  0  2.358679  0
O  O119  1  0.95998169  0.61598908  0.92402178  1  -1.177856  0  -0.308174  -0.549589  0  2.374656  0
O  O120  1  0.15210222  0.56482209  0.97488280  1  -1.154768  0  -0.310884  -0.538958  0  2.358742  0
O  O121  1  0.15209266  0.58726830  0.87299399  1  -1.154158  0  -0.310822  -0.538862  0  2.358597  0
O  O122  1  0.91333497  0.79976855  0.78689017  1  -1.124912  0  -0.353386  -0.413362  0  2.275062  0
O  O123  1  0.08666951  0.70023285  0.71311087  1  -1.124904  0  -0.353391  -0.413321  0  2.274939  0
O  O124  1  0.91333417  0.70022320  0.88643792  1  -1.120615  0  -0.353389  -0.413432  0  2.274833  0
O  O125  1  0.08667202  0.79978096  0.61356151  1  -1.120965  0  -0.353462  -0.413355  0  2.274897  0
O  O126  1  0.91333451  0.11356664  0.29975904  1  -1.12169  0  -0.353519  -0.413361  0  2.275071  0
O  O127  1  0.08666685  0.38643336  0.20024266  1  -1.121875  0  -0.353492  -0.413213  0  2.275094  0
O  O128  1  0.91333848  0.21311778  0.20020886  1  -1.124594  0  -0.353333  -0.413066  0  2.274957  0
O  O129  1  0.08666534  0.28688315  0.29978963  1  -1.124689  0  -0.35334  -0.413022  0  2.275094  0
F  F130  1  0.91437009  0.65373067  0.10972559  1  -0.605949  0  -0.077599  -0.085777  0  1.395277  0
F  F131  1  0.08562703  0.60971654  0.15377146  1  -0.605982  0  -0.077586  -0.085852  0  1.395266  0
F  F132  1  0.08433022  0.67595763  0.21952730  1  -0.612064  0  -0.080432  -0.094374  0  1.36293  0
F  F133  1  0.91565921  0.71948240  0.17597091  1  -0.61214  0  -0.080425  -0.094483  0  1.362869  0
F  F134  1  0.91566280  0.82403539  0.28048068  1  -0.611922  0  -0.080428  -0.094436  0  1.362595  0
F  F135  1  0.08427884  0.78044443  0.32410678  1  -0.61314  0  -0.080461  -0.094484  0  1.363128  0
F  F136  1  0.08556235  0.84618843  0.39036106  1  -0.60635  0  -0.07753  -0.085808  0  1.394842  0
F  F137  1  0.91437004  0.89028316  0.34623012  1  -0.606183  0  -0.077587  -0.085867  0  1.395209  0
F  F138  1  0.08565268  0.47587762  0.76064691  1  -0.605452  0  -0.077459  -0.085765  0  1.395266  0
F  F139  1  0.91438251  0.26060955  0.97591774  1  -0.604557  0  -0.077548  -0.085794  0  1.395153  0
F  F140  1  0.91567187  0.19615045  0.90837829  1  -0.609487  0  -0.080457  -0.094358  0  1.362959  0
F  F141  1  0.08434750  0.40834281  0.69618474  1  -0.609451  0  -0.080379  -0.09425  0  1.363275  0
F  F142  1  0.08428241  0.30383685  0.59163200  1  -0.6099  0  -0.080468  -0.094398  0  1.363363  0
F  F143  1  0.91566833  0.09162782  0.80384342  1  -0.609377  0  -0.080532  -0.09446  0  1.362735  0
F  F144  1  0.91436276  0.02409157  0.73938111  1  -0.604819  0  -0.077617  -0.085841  0  1.395045  0
F  F145  1  0.08556693  0.23937863  0.52409197  1  -0.605251  0  -0.077517  -0.085723  0  1.395006  0
F  F146  1  0.73653283  0.47590299  0.10968329  1  -0.607819  0  -0.077606  -0.085844  0  1.39502  0
F  F147  1  0.73652651  0.26061253  0.15378311  1  -0.605855  0  -0.077435  -0.085696  0  1.39518  0
F  F148  1  0.60452911  0.19615377  0.21953182  1  -0.613749  0  -0.08055  -0.094498  0  1.362797  0
F  F149  1  0.60453474  0.40836454  0.17593054  1  -0.61289  0  -0.080528  -0.094449  0  1.363076  0
F  F150  1  0.39547264  0.30384768  0.28046457  1  -0.613819  0  -0.080478  -0.094403  0  1.363061  0
F  F151  1  0.39547034  0.09165515  0.32398808  1  -0.613082  0  -0.080344  -0.094253  0  1.363359  0
F  F152  1  0.26347332  0.02411834  0.39022304  1  -0.607838  0  -0.077506  -0.085861  0  1.395241  0
F  F153  1  0.26347513  0.23938620  0.34621524  1  -0.605634  0  -0.077536  -0.085735  0  1.395175  0
F  F154  1  0.26348152  0.60966988  0.97589801  1  -0.607746  0  -0.077533  -0.085793  0  1.395165  0
F  F155  1  0.26345873  0.65376560  0.76060336  1  -0.606186  0  -0.077646  -0.085906  0  1.39505  0
F  F156  1  0.39545787  0.71951148  0.69614587  1  -0.613938  0  -0.080655  -0.094657  0  1.362565  0
F  F157  1  0.39547793  0.67591449  0.90836221  1  -0.61284  0  -0.080461  -0.094476  0  1.363109  0
F  F158  1  0.60454157  0.78047968  0.80385240  1  -0.61388  0  -0.08063  -0.094632  0  1.362811  0
F  F159  1  0.60451885  0.82400675  0.59165093  1  -0.612517  0  -0.080405  -0.094314  0  1.363135  0
F  F160  1  0.73651515  0.89024864  0.52411498  1  -0.607723  0  -0.077543  -0.085757  0  1.395149  0
F  F161  1  0.73653981  0.84623040  0.73939241  1  -0.606058  0  -0.077603  -0.085824  0  1.395046  0
