# generated using pymatgen
data_TmH8(C3O5)2
_symmetry_space_group_name_H-M   'P 1'
_cell_length_a   5.95243025
_cell_length_b   7.31545779
_cell_length_c   13.09824095
_cell_angle_alpha   104.99970867
_cell_angle_beta   102.19460162
_cell_angle_gamma   90.07233491
_symmetry_Int_Tables_number   1
_chemical_formula_structural   TmH8(C3O5)2
_chemical_formula_sum   'Tm2 H16 C12 O20'
_cell_volume   537.54887939
_cell_formula_units_Z   2
loop_
 _symmetry_equiv_pos_site_id
 _symmetry_equiv_pos_as_xyz
  1  'x, y, z'
loop_
 _atom_site_type_symbol
 _atom_site_label
 _atom_site_symmetry_multiplicity
 _atom_site_fract_x
 _atom_site_fract_y
 _atom_site_fract_z
 _atom_site_occupancy
 _atom_site_pbe_bader_charge
 _atom_site_pbe_bader_spin_density
 _atom_site_pbe_cm5_charge
 _atom_site_pbe_ddec_charge
 _atom_site_pbe_ddec_spin_density
 _atom_site_pbe_ddec_sum_bond_order
 _atom_site_pbe_magmom
Tm  Tm0  1  0.01641506  0.82488565  0.67755701  1  2.177471  0  1.518556  2.009602  0  2.136257  0
Tm  Tm1  1  0.98475954  0.15893730  0.31302664  1  2.178994  0  1.518453  2.011642  0  2.140352  0
H  H2  1  0.36721975  0.96213671  0.05672160  1  0.04119  0  0.108264  0.055864  0  0.995968  0
H  H3  1  0.63091425  0.90107880  0.93837217  1  0.081607  0  0.109343  0.060121  0  0.987777  0
H  H4  1  0.50487592  0.32313255  0.56326082  1  0.130992  0  0.131095  0.114196  0  0.941327  0
H  H5  1  0.47230747  0.30549708  0.73504762  1  0.114572  0  0.132767  0.108828  0  0.942396  0
H  H6  1  0.50042411  0.76243237  0.42937008  1  0.120812  0  0.131122  0.114102  0  0.941676  0
H  H7  1  0.52881179  0.59307804  0.25634038  1  0.099501  0  0.132342  0.107519  0  0.938261  0
H  H8  1  0.18269955  0.24699890  0.07583185  1  0.632799  0  0.29518  0.346737  0  0.979588  0
H  H9  1  0.80156858  0.15630820  0.90379450  1  0.647697  0  0.296825  0.35032  0  0.977851  0
H  H10  1  0.19668373  0.99430154  0.48329743  1  0.644713  0  0.304768  0.343183  0  1.005985  0
H  H11  1  0.15202846  0.20987189  0.76642596  1  0.650223  0  0.334831  0.388205  0  0.882716  0
H  H12  1  0.80979128  0.50449162  0.50572480  1  0.65252  0  0.304696  0.344085  0  1.008873  0
H  H13  1  0.84228032  0.45683153  0.22040804  1  0.62384  0  0.333559  0.386423  0  0.883496  0
H  H14  1  0.78257958  0.65823520  0.81384300  1  0.616493  0  0.338508  0.428595  0  0.850778  0
H  H15  1  0.59878272  0.71747097  0.72042466  1  0.668088  0  0.307588  0.411613  0  0.920025  0
H  H16  1  0.22040398  0.86810477  0.17791097  1  0.631618  0  0.335237  0.423659  0  0.859006  0
H  H17  1  0.40381549  0.01461102  0.27148775  1  0.679114  0  0.307286  0.41032  0  0.922488  0
C  C18  1  0.20343322  0.96735614  0.89749039  1  1.549295  0  0.185678  0.541404  0  4.204954  0
C  C19  1  0.37253060  0.05869999  0.00455481  1  0.533751  0  0.000329  0.065568  0  3.905785  0
C  C20  1  0.61866636  0.04975281  0.98369219  1  0.493904  0  -0.002531  0.063802  0  3.903123  0
C  C21  1  0.78840097  0.07724344  0.09275554  1  1.549425  0  0.187978  0.545575  0  4.199075  0
C  C22  1  0.15269442  0.38863643  0.56335156  1  1.632343  0  0.242376  0.643573  0  4.086454  0
C  C23  1  0.34397635  0.24916279  0.56335302  1  0.432828  0  0.005555  0.043739  0  3.844578  0
C  C24  1  0.37506518  0.18887245  0.66963352  1  0.437415  0  0.008835  0.038864  0  3.841283  0
C  C25  1  0.51067800  0.01083665  0.66837922  1  1.603868  0  0.231202  0.618993  0  4.136126  0
C  C26  1  0.85277446  0.82745444  0.42924547  1  1.601964  0  0.241159  0.64302  0  4.094178  0
C  C27  1  0.66028234  0.68764752  0.42790080  1  0.475106  0  0.005495  0.042512  0  3.845685  0
C  C28  1  0.62617322  0.53254505  0.31973032  1  0.433484  0  0.009712  0.042255  0  3.836348  0
C  C29  1  0.48947900  0.35501458  0.31971728  1  1.623452  0  0.232457  0.6228  0  4.132643  0
O  O30  1  0.22484921  0.79559556  0.85045256  1  -1.184711  0  -0.379693  -0.609588  0  2.19705  0
O  O31  1  0.04752818  0.06298523  0.85435023  1  -1.211604  0  -0.362813  -0.646415  0  2.304083  0
O  O32  1  0.33303958  0.24670869  0.05519688  1  -1.145163  0  -0.408546  -0.477911  0  2.233189  0
O  O33  1  0.65145204  0.17905648  0.92427652  1  -1.16082  0  -0.407877  -0.481907  0  2.238372  0
O  O34  1  0.77646517  0.95544123  0.14522384  1  -1.184278  0  -0.383119  -0.61274  0  2.207107  0
O  O35  1  0.93558349  0.22022749  0.13177446  1  -1.214345  0  -0.363635  -0.64746  0  2.283534  0
O  O36  1  0.97712682  0.34237074  0.48380734  1  -1.197725  0  -0.382902  -0.635385  0  2.371617  0
O  O37  1  0.17399013  0.53660453  0.63956025  1  -1.196474  0  -0.381267  -0.611358  0  2.316266  0
O  O38  1  0.28834677  0.09669992  0.46739079  1  -1.159486  0  -0.421333  -0.545694  0  2.38357  0
O  O39  1  0.15284746  0.15583231  0.68968968  1  -1.146333  0  -0.418832  -0.539877  0  2.416158  0
O  O40  1  0.40894454  0.87076612  0.68458868  1  -1.176984  0  -0.369997  -0.633085  0  2.388637  0
O  O41  1  0.71241283  0.01379619  0.65321188  1  -1.190678  0  -0.387678  -0.619771  0  2.313474  0
O  O42  1  0.03188029  0.84811433  0.50652057  1  -1.201169  0  -0.380792  -0.63225  0  2.35682  0
O  O43  1  0.82807524  0.91134926  0.35581227  1  -1.178121  0  -0.383122  -0.612961  0  2.330135  0
O  O44  1  0.71531415  0.61982568  0.52238616  1  -1.176259  0  -0.422561  -0.549694  0  2.382865  0
O  O45  1  0.84727503  0.48123535  0.29815637  1  -1.116265  0  -0.412809  -0.535351  0  2.400487  0
O  O46  1  0.59303684  0.20085667  0.30564707  1  -1.187277  0  -0.369424  -0.63305  0  2.387013  0
O  O47  1  0.28594687  0.37041682  0.33245410  1  -1.194968  0  -0.389327  -0.624439  0  2.309949  0
O  O48  1  0.75312297  0.66340732  0.73888570  1  -1.254466  0  -0.631031  -0.84018  0  2.060401  0
O  O49  1  0.24968148  0.94258144  0.25288139  1  -1.281957  0  -0.631905  -0.838002  0  2.073183  0
