# generated using pymatgen
data_BaNiH10C6O11
_symmetry_space_group_name_H-M   'P 1'
_cell_length_a   7.12032055
_cell_length_b   9.26033032
_cell_length_c   9.26043743
_cell_angle_alpha   97.28273823
_cell_angle_beta   90.80651397
_cell_angle_gamma   90.80620103
_symmetry_Int_Tables_number   1
_chemical_formula_structural   BaNiH10C6O11
_chemical_formula_sum   'Ba2 Ni2 H20 C12 O22'
_cell_volume   605.53772076
_cell_formula_units_Z   2
loop_
 _symmetry_equiv_pos_site_id
 _symmetry_equiv_pos_as_xyz
  1  'x, y, z'
loop_
 _atom_site_type_symbol
 _atom_site_label
 _atom_site_symmetry_multiplicity
 _atom_site_fract_x
 _atom_site_fract_y
 _atom_site_fract_z
 _atom_site_occupancy
 _atom_site_pbe_cm5_charge
 _atom_site_pbe_ddec_charge
 _atom_site_pbe_ddec_spin_density
 _atom_site_pbe_ddec_sum_bond_order
 _atom_site_pbe_magmom
Ba  Ba0  1  0.91788780  0.31777044  0.49309285  1  0.954379  1.464229  0.00045  1.578717  0.001
Ba  Ba1  1  0.41788889  0.49309304  0.31777260  1  0.954411  1.464285  0.00045  1.578658  0.001
Ni  Ni2  1  0.05229434  0.38841104  0.89580345  1  0.640976  0.965967  1.789946  2.301751  1.593
Ni  Ni3  1  0.55229613  0.89579970  0.38840999  1  0.640964  0.965887  1.789945  2.301761  1.593
H  H4  1  0.30976061  0.19917523  0.84894354  1  0.292654  0.383224  0.000243  0.9591  0.0
H  H5  1  0.80976543  0.84894240  0.19917524  1  0.292686  0.383306  0.000243  0.959024  0.0
H  H6  1  0.12333117  0.12703440  0.77866977  1  0.295137  0.376742  0.000372  0.960563  0.0
H  H7  1  0.62333217  0.77866850  0.12703409  1  0.295122  0.376745  0.000372  0.960569  0.0
H  H8  1  0.79106842  0.59045519  0.95657112  1  0.299268  0.392079  0.00039  0.931835  0.0
H  H9  1  0.29106903  0.95657105  0.59045279  1  0.29927  0.392053  0.00039  0.931877  0.0
H  H10  1  0.86760360  0.59530495  0.79781546  1  0.292309  0.373488  0.000342  0.973527  0.0
H  H11  1  0.36760423  0.79781340  0.59530653  1  0.292326  0.373479  0.000342  0.973519  0.0
H  H12  1  0.49166031  0.22466689  0.46501754  1  0.300666  0.378304  0.000134  0.976138  0.0
H  H13  1  0.99166366  0.46501905  0.22466832  1  0.300657  0.378355  0.000134  0.976076  0.0
H  H14  1  0.51594781  0.30643254  0.62520784  1  0.300864  0.392617  -1e-06  0.944946  0.0
H  H15  1  0.01594793  0.62520980  0.30643465  1  0.300846  0.392601  -1e-06  0.944966  0.0
H  H16  1  0.58424964  0.11794237  0.00977006  1  0.1136  0.155019  0.000158  0.981802  0.0
H  H17  1  0.08425130  0.00976818  0.11793110  1  0.113597  0.155042  0.000158  0.981842  0.0
H  H18  1  0.82388990  0.09251806  0.95916214  1  0.119925  0.163978  -0.000161  0.9646  0.0
H  H19  1  0.32389555  0.95916221  0.09251471  1  0.1199  0.163989  -0.000161  0.964555  0.0
H  H20  1  0.44698917  0.72870311  0.83243081  1  0.107661  0.147503  0.000346  0.985279  0.0
H  H21  1  0.94698525  0.83243002  0.72870421  1  0.107681  0.147509  0.000346  0.985284  0.0
H  H22  1  0.21249928  0.71506465  0.89588904  1  0.120795  0.17015  -0.000296  0.970738  0.0
H  H23  1  0.71249707  0.89588657  0.71506566  1  0.120791  0.170141  -0.000297  0.970729  0.0
C  C24  1  0.68001983  0.24082247  0.83952523  1  0.233959  0.675539  0.001054  4.106309  0.001
C  C25  1  0.18002749  0.83952933  0.24082262  1  0.234063  0.675682  0.001054  4.106329  0.001
C  C26  1  0.71151605  0.17275831  0.97877191  1  -0.158815  -0.471987  -0.000295  3.886751  0.0
C  C27  1  0.21151684  0.97877211  0.17275125  1  -0.158769  -0.472048  -0.000294  3.886872  0.0
C  C28  1  0.78022215  0.28407505  0.10391854  1  0.241429  0.682542  -0.00257  4.114751  -0.002
C  C29  1  0.28022765  0.10391647  0.28407037  1  0.241276  0.682288  -0.00257  4.115058  -0.002
C  C30  1  0.26837212  0.56581835  0.71052381  1  0.240528  0.69609  -0.001734  4.082167  -0.001
C  C31  1  0.76837499  0.71052391  0.56581506  1  0.240507  0.695999  -0.001734  4.082257  -0.001
C  C32  1  0.33536189  0.65227317  0.85415971  1  -0.163691  -0.475229  0.000131  3.874565  0.001
C  C33  1  0.83536180  0.85415952  0.65227421  1  -0.163687  -0.475155  0.000132  3.874611  0.001
C  C34  1  0.39579980  0.56617466  0.97548763  1  0.219237  0.667655  -0.002854  4.126277  -0.002
C  C35  1  0.89579794  0.97548340  0.56617354  1  0.219243  0.667581  -0.002854  4.126167  -0.002
O  O36  1  0.82161370  0.29522938  0.77978950  1  -0.362553  -0.64031  0.02985  2.404409  0.05
O  O37  1  0.32161328  0.77979032  0.29522577  1  -0.36256  -0.640306  0.029848  2.40457  0.05
O  O38  1  0.51577243  0.24146374  0.78653572  1  -0.280982  -0.516434  0.005255  2.206993  0.009
O  O39  1  0.01577175  0.78653848  0.24146425  1  -0.281064  -0.516524  0.005256  2.2068  0.009
O  O40  1  0.92395700  0.36242485  0.08214914  1  -0.287503  -0.552843  0.032357  2.440998  0.055
O  O41  1  0.42395224  0.08214732  0.36242012  1  -0.287384  -0.552596  0.032355  2.441281  0.055
O  O42  1  0.69684134  0.29506723  0.22427570  1  -0.373314  -0.631996  0.004349  2.197337  0.007
O  O43  1  0.19684059  0.22428052  0.29506369  1  -0.373318  -0.631955  0.00435  2.197337  0.007
O  O44  1  0.17398762  0.44696701  0.71107926  1  -0.3395  -0.622921  0.03134  2.372765  0.053
O  O45  1  0.67399010  0.71107398  0.44696898  1  -0.339438  -0.622826  0.03134  2.372915  0.053
O  O46  1  0.30605779  0.61890251  0.59494192  1  -0.330999  -0.584665  0.003448  2.20569  0.006
O  O47  1  0.80605607  0.59493687  0.61890701  1  -0.331045  -0.584724  0.003449  2.205681  0.006
O  O48  1  0.28422109  0.46946774  0.01453461  1  -0.324818  -0.584629  0.03397  2.332203  0.058
O  O49  1  0.78422428  0.01452924  0.46946793  1  -0.324763  -0.584506  0.03397  2.332221  0.058
O  O50  1  0.55228064  0.59737041  0.04189734  1  -0.329666  -0.608526  0.004206  2.16828  0.007
O  O51  1  0.05228054  0.04190139  0.59737534  1  -0.329755  -0.608561  0.004207  2.167996  0.007
O  O52  1  0.17377141  0.18217981  0.86991330  1  -0.570306  -0.757817  0.036342  2.122733  0.058
O  O53  1  0.67377542  0.86991284  0.18218245  1  -0.570319  -0.757917  0.036345  2.122596  0.058
O  O54  1  0.90855874  0.59071601  0.90116323  1  -0.569348  -0.762375  0.032756  2.138642  0.052
O  O55  1  0.40855713  0.90116509  0.59071433  1  -0.569356  -0.762352  0.032755  2.138659  0.052
O  O56  1  0.53510427  0.32008231  0.52088724  1  -0.681897  -0.875431  0.000471  2.103495  0.001
O  O57  1  0.03510493  0.52088722  0.32008285  1  -0.681875  -0.875436  0.000471  2.103435  0.001
