# generated using pymatgen
data_TlH4C7BrN4
_symmetry_space_group_name_H-M   'P 1'
_cell_length_a   4.08992945
_cell_length_b   12.92773421
_cell_length_c   18.23480124
_cell_angle_alpha   107.00694921
_cell_angle_beta   96.42804204
_cell_angle_gamma   90.00653342
_symmetry_Int_Tables_number   1
_chemical_formula_structural   TlH4C7BrN4
_chemical_formula_sum   'Tl4 H16 C28 Br4 N16'
_cell_volume   915.63153471
_cell_formula_units_Z   4
loop_
 _symmetry_equiv_pos_site_id
 _symmetry_equiv_pos_as_xyz
  1  'x, y, z'
loop_
 _atom_site_type_symbol
 _atom_site_label
 _atom_site_symmetry_multiplicity
 _atom_site_fract_x
 _atom_site_fract_y
 _atom_site_fract_z
 _atom_site_occupancy
 _atom_site_hle17_bader_spin_density
 _atom_site_hle17_ddec_charge
 _atom_site_hle17_ddec_spin_density
 _atom_site_hle17_ddec_sum_bond_order
 _atom_site_hle17_magmom
 _atom_site_hse06_10hf_bader_spin_density
 _atom_site_hse06_10hf_ddec_charge
 _atom_site_hse06_10hf_ddec_spin_density
 _atom_site_hse06_10hf_ddec_sum_bond_order
 _atom_site_hse06_10hf_magmom
 _atom_site_hse06_bader_spin_density
 _atom_site_hse06_ddec_charge
 _atom_site_hse06_ddec_spin_density
 _atom_site_hse06_ddec_sum_bond_order
 _atom_site_hse06_magmom
 _atom_site_pbe_bader_spin_density
 _atom_site_pbe_cm5_charge
 _atom_site_pbe_ddec_charge
 _atom_site_pbe_ddec_spin_density
 _atom_site_pbe_ddec_sum_bond_order
 _atom_site_pbe_magmom
Tl  Tl0  1  0.06441292  0.90676124  0.07323627  1  0  0.738843  0  0.865225  0  0  0.58679  0  1.175901  0  0  0.618632  0  1.156563  0  0  0.406989  0.563264  0  1.189593  0
Tl  Tl1  1  0.98966371  0.59320602  0.92669393  1  0  0.738692  0  0.864662  0  0  0.586713  0  1.17531  0  0  0.618413  0  1.15624  0  0  0.406942  0.563095  0  1.189186  0
Tl  Tl2  1  0.93556969  0.09324070  0.92676384  1  0  0.738841  0  0.865272  0  0  0.586811  0  1.1759  0  0  0.618625  0  1.15662  0  0  0.407006  0.563283  0  1.189598  0
Tl  Tl3  1  0.01033092  0.40679347  0.07330488  1  0  0.738686  0  0.864643  0  0  0.586694  0  1.175275  0  0  0.618396  0  1.156205  0  0  0.406934  0.563076  0  1.189142  0
H  H4  1  0.08887879  0.23860104  0.30676194  1  0  0.099047  0  0.953977  0  0  0.106811  0  1.021476  0  0  0.110195  0  1.019043  0  0  0.101095  0.104412  0  1.023216  0
H  H5  1  0.77884382  0.26106528  0.69295755  1  0  0.098701  0  0.953836  0  0  0.106592  0  1.021394  0  0  0.109921  0  1.019043  0  0  0.100921  0.104204  0  1.023106  0
H  H6  1  0.91114573  0.76140172  0.69323934  1  0  0.099074  0  0.953972  0  0  0.106834  0  1.021464  0  0  0.110217  0  1.01903  0  0  0.10111  0.104433  0  1.023201  0
H  H7  1  0.22113610  0.73893499  0.30703942  1  0  0.098779  0  0.953765  0  0  0.106632  0  1.021356  0  0  0.10998  0  1.018995  0  0  0.100925  0.104245  0  1.023072  0
H  H8  1  0.31415664  0.39428270  0.41767290  1  0  0.096971  0  0.980263  0  0  0.100553  0  1.055139  0  0  0.104565  0  1.052308  0  0  0.087857  0.097662  0  1.05724  0
H  H9  1  0.89369495  0.10529374  0.58215605  1  0  0.097352  0  0.978236  0  0  0.100828  0  1.053344  0  0  0.104745  0  1.050614  0  0  0.088131  0.097992  0  1.055411  0
H  H10  1  0.68584835  0.60572167  0.58232823  1  0  0.096982  0  0.980212  0  0  0.100575  0  1.055073  0  0  0.104581  0  1.052266  0  0  0.087866  0.097684  0  1.057173  0
H  H11  1  0.10630690  0.89470414  0.41784261  1  0  0.097262  0  0.97831  0  0  0.100753  0  1.053413  0  0  0.104672  0  1.050681  0  0  0.088117  0.097921  0  1.055477  0
H  H12  1  0.76595291  0.61284719  0.31487503  1  0  0.109711  0  0.944828  0  0  0.118111  0  1.009767  0  0  0.121614  0  1.007487  0  0  0.102201  0.115614  0  1.01144  0
H  H13  1  0.44904411  0.88685593  0.68524452  1  0  0.10964  0  0.945302  0  0  0.118007  0  1.010122  0  0  0.121486  0  1.007868  0  0  0.101979  0.11552  0  1.011796  0
H  H14  1  0.23404443  0.38715398  0.68512748  1  0  0.109713  0  0.944822  0  0  0.118128  0  1.009747  0  0  0.121631  0  1.007464  0  0  0.102224  0.115609  0  1.011445  0
H  H15  1  0.55096496  0.11314033  0.31475399  1  0  0.109486  0  0.945418  0  0  0.117957  0  1.010144  0  0  0.121436  0  1.007887  0  0  0.101945  0.115472  0  1.011814  0
H  H16  1  0.53772098  0.45980832  0.20714502  1  0  0.080942  0  0.994249  0  0  0.090792  0  1.063187  0  0  0.093076  0  1.062048  0  0  0.096891  0.08917  0  1.064036  0
H  H17  1  0.32777546  0.03999994  0.79281318  1  0  0.082358  0  0.992916  0  0  0.091768  0  1.062011  0  0  0.094038  0  1.060921  0  0  0.097305  0.090149  0  1.062844  0
H  H18  1  0.46226156  0.54019207  0.79285916  1  0  0.080965  0  0.994306  0  0  0.090797  0  1.063265  0  0  0.09309  0  1.062107  0  0  0.096935  0.089172  0  1.064119  0
H  H19  1  0.67219171  0.95999626  0.20718158  1  0  0.082304  0  0.992999  0  0  0.091719  0  1.062067  0  0  0.093991  0  1.060967  0  0  0.097289  0.090093  0  1.062922  0
C  C20  1  0.67922657  0.24686994  0.18146206  1  0  0.269209  0  3.795503  0  0  0.249251  0  4.061745  0  0  0.25864  0  4.078698  0  0  0.206564  0.242877  0  4.050251  0
C  C21  1  0.49560773  0.25293881  0.81843075  1  0  0.267125  0  3.795669  0  0  0.247939  0  4.061098  0  0  0.257353  0  4.077987  0  0  0.206962  0.241552  0  4.049624  0
C  C22  1  0.32077596  0.75313368  0.81854216  1  0  0.269109  0  3.795557  0  0  0.249052  0  4.061939  0  0  0.258432  0  4.078907  0  0  0.206458  0.242679  0  4.050429  0
C  C23  1  0.50437457  0.74706066  0.18156666  1  0  0.26726  0  3.795757  0  0  0.248135  0  4.061052  0  0  0.257545  0  4.077956  0  0  0.207077  0.241743  0  4.049588  0
C  C24  1  0.80224916  0.33749895  0.24813502  1  0  -0.00241  0  3.797238  0  0  0.015541  0  4.026061  0  0  0.013847  0  4.04969  0  0  -0.00934  0.01664  0  4.010078  0
C  C25  1  0.55139435  0.16225302  0.75175216  1  0  -0.002033  0  3.798555  0  0  0.015628  0  4.02713  0  0  0.013933  0  4.050735  0  0  -0.008874  0.016742  0  4.0111  0
C  C26  1  0.19774580  0.66250303  0.75186759  1  0  -0.002519  0  3.797445  0  0  0.015484  0  4.026246  0  0  0.013789  0  4.049882  0  0  -0.009326  0.016595  0  4.010238  0
C  C27  1  0.44859042  0.83774646  0.24824532  1  0  -0.002077  0  3.798696  0  0  0.015611  0  4.027181  0  0  0.013922  0  4.050795  0  0  -0.008886  0.016734  0  4.011148  0
C  C28  1  0.01783746  0.32061882  0.30889418  1  0  -0.071144  0  3.698762  0  0  -0.092042  0  3.946195  0  0  -0.093474  0  3.96578  0  0  -0.083686  -0.090998  0  3.932912  0
C  C29  1  0.70608209  0.17905629  0.69093445  1  0  -0.070312  0  3.699868  0  0  -0.091216  0  3.947168  0  0  -0.092604  0  3.966721  0  0  -0.083885  -0.090185  0  3.933906  0
C  C30  1  0.98217450  0.67938151  0.69110631  1  0  -0.071127  0  3.698779  0  0  -0.092013  0  3.946204  0  0  -0.093445  0  3.965792  0  0  -0.083688  -0.090969  0  3.932911  0
C  C31  1  0.29390251  0.82094156  0.30906270  1  0  -0.070386  0  3.700019  0  0  -0.091283  0  3.947335  0  0  -0.092694  0  3.966874  0  0  -0.083849  -0.090258  0  3.93408  0
C  C32  1  0.14444674  0.40757956  0.37112493  1  0  -0.1122  0  3.764368  0  0  -0.13073  0  4.01373  0  0  -0.133484  0  4.034878  0  0  -0.098857  -0.128768  0  3.999421  0
C  C33  1  0.77074687  0.09204093  0.62877231  1  0  -0.113284  0  3.765715  0  0  -0.13179  0  4.014813  0  0  -0.134474  0  4.035962  0  0  -0.099346  -0.12991  0  4.000555  0
C  C34  1  0.85556042  0.59242160  0.62887726  1  0  -0.112109  0  3.764179  0  0  -0.130677  0  4.013591  0  0  -0.133422  0  4.034706  0  0  -0.098833  -0.128723  0  3.999288  0
C  C35  1  0.22925484  0.90795535  0.37122713  1  0  -0.113096  0  3.765748  0  0  -0.131585  0  4.014776  0  0  -0.134268  0  4.035926  0  0  -0.099259  -0.129705  0  4.00052  0
C  C36  1  0.05525027  0.51226267  0.37230231  1  0  0.099464  0  3.710817  0  0  0.115262  0  3.972583  0  0  0.118177  0  3.995023  0  0  -0.016404  0.113163  0  3.957411  0
C  C37  1  0.68082441  0.98736623  0.62770193  1  0  0.099186  0  3.709407  0  0  0.115472  0  3.97078  0  0  0.118409  0  3.993152  0  0  -0.016376  0.113353  0  3.955658  0
C  C38  1  0.94476202  0.48774015  0.62770198  1  0  0.099332  0  3.710695  0  0  0.115184  0  3.972421  0  0  0.118099  0  3.994866  0  0  -0.016444  0.113091  0  3.957233  0
C  C39  1  0.31919207  0.01263005  0.37229787  1  0  0.099162  0  3.70934  0  0  0.115442  0  3.970762  0  0  0.118382  0  3.993133  0  0  -0.016415  0.113328  0  3.955638  0
C  C40  1  0.83902497  0.53131111  0.31327767  1  0  -0.115511  0  3.769812  0  0  -0.137686  0  4.021828  0  0  -0.140208  0  4.042954  0  0  -0.098057  -0.13592  0  4.007463  0
C  C41  1  0.52355056  0.96838296  0.68676354  1  0  -0.115294  0  3.768357  0  0  -0.137593  0  4.020637  0  0  -0.140126  0  4.041786  0  0  -0.09762  -0.135787  0  4.006166  0
C  C42  1  0.16097988  0.46869091  0.68672738  1  0  -0.115483  0  3.769769  0  0  -0.137682  0  4.021753  0  0  -0.140208  0  4.042887  0  0  -0.098072  -0.135899  0  4.007396  0
C  C43  1  0.47645369  0.03161412  0.31323557  1  0  -0.115151  0  3.768423  0  0  -0.137555  0  4.020735  0  0  -0.140102  0  4.041913  0  0  -0.097656  -0.135752  0  4.006264  0
C  C44  1  0.71255142  0.44369921  0.25179546  1  0  -0.093708  0  3.752679  0  0  -0.106641  0  3.989698  0  0  -0.110175  0  4.014289  0  0  -0.086885  -0.104045  0  3.972877  0
C  C45  1  0.45815838  0.05606233  0.74816935  1  0  -0.094637  0  3.751606  0  0  -0.107295  0  3.98922  0  0  -0.110827  0  4.013764  0  0  -0.087422  -0.104719  0  3.972448  0
C  C46  1  0.28744612  0.55630361  0.74820902  1  0  -0.093695  0  3.752911  0  0  -0.10666  0  3.989996  0  0  -0.110195  0  4.014557  0  0  -0.086923  -0.104067  0  3.973167  0
C  C47  1  0.54182639  0.94393715  0.25182868  1  0  -0.094555  0  3.751555  0  0  -0.107242  0  3.989235  0  0  -0.110777  0  4.013786  0  0  -0.087372  -0.104673  0  3.972463  0
Br  Br48  1  0.23667403  0.63290816  0.45479978  1  0  -0.075527  0  1.369835  0  0  -0.065566  0  1.652778  0  0  -0.070666  0  1.646073  0  0  0.041958  -0.0618  0  1.657516  0
Br  Br49  1  0.78073823  0.86667417  0.54532680  1  0  -0.075191  0  1.368718  0  0  -0.065408  0  1.651387  0  0  -0.070532  0  1.644711  0  0  0.042012  -0.06162  0  1.656087  0
Br  Br50  1  0.76335497  0.36709054  0.54519970  1  0  -0.07552  0  1.369785  0  0  -0.065569  0  1.652724  0  0  -0.070676  0  1.646012  0  0  0.041938  -0.061808  0  1.657453  0
Br  Br51  1  0.21930534  0.13332139  0.45467788  1  0  -0.075241  0  1.368717  0  0  -0.065457  0  1.651411  0  0  -0.070566  0  1.644712  0  0  0.041995  -0.061663  0  1.656111  0
N  N52  1  0.49418059  0.25761211  0.11761699  1  0  -0.376491  0  3.093522  0  0  -0.316829  0  3.354626  0  0  -0.333129  0  3.375484  0  0  -0.220736  -0.305264  0  3.339936  0
N  N53  1  0.37497871  0.24230241  0.88237467  1  0  -0.376693  0  3.090412  0  0  -0.31723  0  3.351133  0  0  -0.33357  0  3.372012  0  0  -0.220858  -0.305673  0  3.336442  0
N  N54  1  0.50582429  0.74239069  0.88238602  1  0  -0.37642  0  3.093382  0  0  -0.316733  0  3.35452  0  0  -0.33303  0  3.375383  0  0  -0.220712  -0.305178  0  3.33986  0
N  N55  1  0.62500835  0.75769545  0.11762254  1  0  -0.376789  0  3.090432  0  0  -0.317359  0  3.35118  0  0  -0.3337  0  3.37205  0  0  -0.220975  -0.305789  0  3.336457  0
N  N56  1  0.44649031  0.15703272  0.06897869  1  0  -0.164333  0  3.132758  0  0  -0.126613  0  3.404707  0  0  -0.132768  0  3.426483  0  0  -0.10339  -0.121811  0  3.389217  0
N  N57  1  0.37663337  0.34290704  0.93100104  1  0  -0.163308  0  3.130477  0  0  -0.125565  0  3.402678  0  0  -0.131718  0  3.424416  0  0  -0.103515  -0.120742  0  3.38719  0
N  N58  1  0.55351217  0.84297086  0.93102333  1  0  -0.164366  0  3.132728  0  0  -0.126637  0  3.404679  0  0  -0.132797  0  3.426457  0  0  -0.103431  -0.121839  0  3.389196  0
N  N59  1  0.62336599  0.65709082  0.06899647  1  0  -0.163265  0  3.130502  0  0  -0.12553  0  3.402706  0  0  -0.131682  0  3.424452  0  0  -0.103493  -0.120701  0  3.387216  0
N  N60  1  0.59630370  0.08804513  0.10234246  1  0  -0.192187  0  3.165294  0  0  -0.140072  0  3.444393  0  0  -0.148575  0  3.465063  0  0  -0.107921  -0.133615  0  3.429706  0
N  N61  1  0.49306876  0.41180083  0.89754811  1  0  -0.192731  0  3.163143  0  0  -0.14075  0  3.442494  0  0  -0.149215  0  3.463114  0  0  -0.108257  -0.134266  0  3.427775  0
N  N62  1  0.40370113  0.91195762  0.89765835  1  0  -0.192283  0  3.165509  0  0  -0.140176  0  3.444612  0  0  -0.148675  0  3.465282  0  0  -0.107922  -0.133723  0  3.429938  0
N  N63  1  0.50692566  0.58819701  0.10244817  1  0  -0.192689  0  3.163158  0  0  -0.140696  0  3.442494  0  0  -0.14916  0  3.463113  0  0  -0.108251  -0.134215  0  3.42777  0
N  N64  1  0.74455697  0.14186876  0.17273346  1  0  -0.290961  0  2.927527  0  0  -0.267188  0  3.198414  0  0  -0.276419  0  3.213709  0  0  -0.218313  -0.260814  0  3.187844  0
N  N65  1  0.57020430  0.35789003  0.82709812  1  0  -0.289278  0  2.925214  0  0  -0.265832  0  3.196032  0  0  -0.275054  0  3.211284  0  0  -0.21808  -0.259454  0  3.185455  0
N  N66  1  0.25544781  0.85813320  0.82726828  1  0  -0.290777  0  2.927577  0  0  -0.266966  0  3.198481  0  0  -0.276192  0  3.213776  0  0  -0.218214  -0.260593  0  3.18791  0
N  N67  1  0.42978273  0.64210781  0.17289799  1  0  -0.289416  0  2.925259  0  0  -0.265998  0  3.196069  0  0  -0.275222  0  3.211323  0  0  -0.218082  -0.259619  0  3.185493  0
