# generated using pymatgen
data_Cu3H92C132(N9O8)2
_symmetry_space_group_name_H-M   'P 1'
_cell_length_a   10.42351657
_cell_length_b   13.35285975
_cell_length_c   21.86651079
_cell_angle_alpha   73.91394685
_cell_angle_beta   86.28922417
_cell_angle_gamma   70.06246184
_symmetry_Int_Tables_number   1
_chemical_formula_structural   Cu3H92C132(N9O8)2
_chemical_formula_sum   'Cu3 H92 C132 N18 O16'
_cell_volume   2747.54019360
_cell_formula_units_Z   1
loop_
 _symmetry_equiv_pos_site_id
 _symmetry_equiv_pos_as_xyz
  1  'x, y, z'
loop_
 _atom_site_type_symbol
 _atom_site_label
 _atom_site_symmetry_multiplicity
 _atom_site_fract_x
 _atom_site_fract_y
 _atom_site_fract_z
 _atom_site_occupancy
 _atom_site_pbe_bader_charge
 _atom_site_pbe_bader_spin_density
 _atom_site_pbe_cm5_charge
 _atom_site_pbe_ddec_charge
 _atom_site_pbe_ddec_spin_density
 _atom_site_pbe_ddec_sum_bond_order
 _atom_site_pbe_magmom
Cu  Cu0  1  0.77242514  0.74203340  0.29699281  1  1.072285  0.565761  0.732581  0.766343  0.74609  2.244696  0.565
Cu  Cu1  1  0.22757389  0.25796784  0.70300639  1  1.072052  0.565709  0.732565  0.766308  0.746011  2.244536  0.565
Cu  Cu2  1  0.50000089  0.99999775  0.00000106  1  1.091257  -0.584014  0.735956  0.797528  -0.788106  2.192377  -0.583
H  H3  1  0.79537648  0.98211237  0.43720986  1  0.102423  0.000751  0.109958  0.116158  0.000392  1.045636  0.0
H  H4  1  0.20462132  0.01788475  0.56279050  1  0.10239  0.000751  0.109954  0.116122  0.000392  1.045622  0.0
H  H5  1  0.83700295  0.90927409  0.34163868  1  0.124743  0.00139  0.119605  0.092173  0.00062  1.016419  0.001
H  H6  1  0.16298962  0.09072888  0.65835998  1  0.124729  0.001389  0.119608  0.0922  0.00062  1.016339  0.001
H  H7  1  0.61014658  0.70386027  0.41028684  1  0.128271  0.001504  0.120107  0.097462  0.000676  0.998555  0.001
H  H8  1  0.38984891  0.29614264  0.58971265  1  0.128299  0.001505  0.120108  0.09745  0.000677  0.998519  0.001
H  H9  1  0.56118273  0.76603321  0.51054208  1  0.108922  0.001007  0.108832  0.115012  0.000538  1.018913  0.001
H  H10  1  0.43881600  0.23396638  0.48945739  1  0.108944  0.001007  0.108814  0.115024  0.000538  1.018893  0.001
H  H11  1  0.75576316  0.03348773  0.51747086  1  0.114703  5.3e-05  0.105523  0.111577  4e-05  1.048697  0.0
H  H12  1  0.24423848  0.96650940  0.48252710  1  0.114736  5.3e-05  0.105542  0.111575  4e-05  1.048676  0.0
H  H13  1  0.69616418  0.21272279  0.52809534  1  0.082996  0.000346  0.101497  0.102196  0.000185  1.008685  0.0
H  H14  1  0.30383678  0.78727845  0.47190288  1  0.083052  0.000346  0.101521  0.10224  0.000185  1.008707  0.0
H  H15  1  0.81872131  0.32934757  0.55309454  1  0.072674  3e-06  0.104914  0.110282  -2.3e-05  0.997232  0.0
H  H16  1  0.18127769  0.67065617  0.44690288  1  0.072766  3e-06  0.10494  0.110329  -2.3e-05  0.997151  0.0
H  H17  1  0.89811472  0.12194575  0.74469384  1  0.074068  0.000562  0.101964  0.108549  0.000437  0.997844  0.0
H  H18  1  0.10188299  0.87805881  0.25530394  1  0.074056  0.000564  0.101953  0.108534  0.000438  0.997838  0.0
H  H19  1  0.76565391  0.01119768  0.72200656  1  0.077657  7e-06  0.097257  0.09143  -1.1e-05  1.056757  0.0
H  H20  1  0.23434834  0.98880272  0.27799176  1  0.077702  7e-06  0.097304  0.091508  -1.1e-05  1.056806  0.0
H  H21  1  0.55722832  0.99920542  0.69720864  1  0.098663  -5e-06  0.112273  0.130882  -2e-06  0.993362  0.0
H  H22  1  0.44277652  0.00079575  0.30279039  1  0.098662  -5e-06  0.112298  0.130961  -2e-06  0.993337  0.0
H  H23  1  0.39636808  0.94733305  0.74737854  1  0.135642  -8e-06  0.10119  0.124462  1.2e-05  1.050443  0.0
H  H24  1  0.60363552  0.05266399  0.25262211  1  0.135622  -8e-06  0.101192  0.124478  1.2e-05  1.05045  0.0
H  H25  1  0.26900100  0.83872397  0.81598033  1  0.085947  3e-06  0.103396  0.069984  2e-06  1.026846  0.0
H  H26  1  0.73100454  0.16127304  0.18402072  1  0.08639  4e-06  0.103401  0.069981  2e-06  1.02692  0.0
H  H27  1  0.33240811  0.62863268  0.70050300  1  0.054417  3.1e-05  0.105452  0.07084  2.5e-05  1.00034  0.0
H  H28  1  0.66759223  0.37136770  0.29949675  1  0.054417  3.1e-05  0.10545  0.070843  2.5e-05  1.00035  0.0
H  H29  1  0.46953351  0.72729650  0.62649985  1  0.074423  1.9e-05  0.102795  0.104081  1.6e-05  1.034677  0.0
H  H30  1  0.53046489  0.27270391  0.37349950  1  0.07444  1.9e-05  0.102776  0.104055  1.6e-05  1.034598  0.0
H  H31  1  0.83102261  0.40272283  0.21746613  1  0.137781  0.00096  0.106487  0.111148  0.000515  1.060186  0.001
H  H32  1  0.16897578  0.59728002  0.78253419  1  0.137825  0.00096  0.106466  0.111135  0.000515  1.060182  0.001
H  H33  1  0.73926055  0.53154555  0.28578527  1  0.099664  0.0016  0.11759  0.086307  0.000706  1.010005  0.001
H  H34  1  0.26073586  0.46845987  0.71421196  1  0.099718  0.001602  0.11759  0.086274  0.000707  1.009935  0.001
H  H35  1  0.95268097  0.73679118  0.19267258  1  0.138805  0.001445  0.122273  0.099989  0.000665  0.999936  0.001
H  H36  1  0.04732034  0.26320919  0.80732714  1  0.13878  0.001445  0.122284  0.100023  0.000665  0.99992  0.001
H  H37  1  0.05306880  0.61663348  0.11932016  1  0.096266  0.000796  0.105003  0.100407  0.000417  1.064948  0.0
H  H38  1  0.94693575  0.38336600  0.88068097  1  0.096317  0.000796  0.105034  0.100419  0.000417  1.064996  0.0
H  H39  1  0.89984409  0.31706051  0.14659422  1  0.099832  4.3e-05  0.108956  0.12138  3e-05  1.027035  0.0
H  H40  1  0.10015562  0.68293906  0.85340568  1  0.099832  4.3e-05  0.108948  0.121358  3e-05  1.027072  0.0
H  H41  1  0.99746002  0.11949802  0.16309875  1  0.036036  -0.000293  0.102857  0.103857  -0.00016  1.010018  0.0
H  H42  1  0.00254167  0.88049902  0.83690333  1  0.036404  -0.000293  0.102858  0.103841  -0.00016  1.009983  0.0
H  H43  1  0.89011114  0.98356533  0.15457852  1  0.077693  -2.4e-05  0.109143  0.114359  1.2e-05  1.007185  0.0
H  H44  1  0.10989539  0.01642921  0.84542244  1  0.077799  -2.4e-05  0.109153  0.114407  1.1e-05  1.007107  0.0
H  H45  1  0.83739982  0.12738408  0.95215336  1  0.086786  -0.000283  0.106515  0.113912  -0.000223  0.989145  0.0
H  H46  1  0.16259765  0.87261629  0.04784877  1  0.0867  -0.000283  0.106519  0.113866  -0.000223  0.989106  0.0
H  H47  1  0.96093957  0.25423592  0.95951015  1  0.077727  5e-06  0.101201  0.100795  8e-06  1.033279  0.0
H  H48  1  0.03906049  0.74576277  0.04049171  1  0.077662  5e-06  0.101215  0.100835  8e-06  1.033303  0.0
H  H49  1  0.16585575  0.28449082  0.98849824  1  0.098191  3.1e-05  0.11215  0.131304  2.1e-05  0.990274  0.0
H  H50  1  0.83414752  0.71550704  0.01150274  1  0.098183  3.1e-05  0.112158  0.13129  2.1e-05  0.990303  0.0
H  H51  1  0.23865037  0.57904181  0.04335793  1  0.075658  1e-05  0.100413  0.096829  1e-05  1.055797  0.0
H  H52  1  0.76134872  0.42095691  0.95664350  1  0.075682  1e-05  0.100433  0.096841  1e-05  1.055765  0.0
H  H53  1  0.38703188  0.66626877  0.97091135  1  0.05774  -3.4e-05  0.105479  0.069409  -2.5e-05  1.012941  0.0
H  H54  1  0.61296591  0.33373079  0.02908998  1  0.058037  -3.4e-05  0.105456  0.069353  -2.5e-05  1.012881  0.0
H  H55  1  0.44544615  0.44916961  0.86021156  1  0.091424  -3e-06  0.103012  0.070057  -3e-06  1.033505  0.0
H  H56  1  0.55455320  0.55083326  0.13978782  1  0.091602  -3e-06  0.103014  0.070037  -3e-06  1.033566  0.0
H  H57  1  0.30709949  0.35011075  0.92863767  1  0.129983  1.8e-05  0.100653  0.12011  -1.1e-05  1.046242  0.0
H  H58  1  0.69290345  0.64988795  0.07136272  1  0.129997  1.8e-05  0.100666  0.120122  -1.1e-05  1.046198  0.0
H  H59  1  0.46938427  0.30096343  0.10599696  1  0.1295  -0.000897  0.107731  0.11016  -0.000485  1.070411  -0.001
H  H60  1  0.53061608  0.69903695  0.89400325  1  0.129485  -0.000897  0.107753  0.110199  -0.000484  1.070361  -0.001
H  H61  1  0.54309883  0.19167545  0.02607910  1  0.128291  -0.001844  0.119214  0.092344  -0.000894  1.00966  -0.001
H  H62  1  0.45690414  0.80832075  0.97392262  1  0.128242  -0.001845  0.119219  0.092347  -0.000894  1.009604  -0.001
H  H63  1  0.32259097  0.98681275  0.10900601  1  0.114152  -0.001871  0.123414  0.100266  -0.000911  0.99447  -0.002
H  H64  1  0.67741038  0.01318513  0.89099503  1  0.114157  -0.001871  0.123424  0.100252  -0.00091  0.994473  -0.002
H  H65  1  0.23615539  0.08908393  0.19176531  1  0.115965  -0.000945  0.105769  0.105351  -0.000512  1.05066  -0.001
H  H66  1  0.76384335  0.91091565  0.80823462  1  0.115996  -0.000945  0.105786  0.105363  -0.000512  1.050648  -0.001
H  H67  1  0.39197611  0.38867183  0.16925403  1  0.142342  -4.2e-05  0.106675  0.11567  -3.1e-05  1.0453  0.0
H  H68  1  0.60802488  0.61132692  0.83074505  1  0.142368  -4.2e-05  0.106647  0.115594  -3.1e-05  1.04525  0.0
H  H69  1  0.28084735  0.58761360  0.15338272  1  0.072835  0.000253  0.102517  0.103833  0.000134  1.014625  0.0
H  H70  1  0.71915103  0.41238929  0.84661622  1  0.072845  0.000253  0.10252  0.103848  0.000134  1.014585  0.0
H  H71  1  0.37532061  0.73415306  0.15696174  1  0.089048  1.4e-05  0.10758  0.111597  -1.3e-05  1.006255  0.0
H  H72  1  0.62467777  0.26584983  0.84303721  1  0.088969  1.4e-05  0.107567  0.111581  -1.3e-05  1.006284  0.0
H  H73  1  0.46040798  0.58969097  0.35783314  1  0.101252  0.000241  0.104518  0.108563  0.000186  0.996896  0.0
H  H74  1  0.53959367  0.41030611  0.64216665  1  0.101241  0.00024  0.104531  0.108542  0.000186  0.996965  0.0
H  H75  1  0.34940812  0.45188069  0.35611529  1  0.074164  1.6e-05  0.106061  0.108326  1.1e-05  0.995173  0.0
H  H76  1  0.65059126  0.54811728  0.64388306  1  0.074101  1.6e-05  0.106072  0.108346  1.1e-05  0.995275  0.0
H  H77  1  0.14354455  0.41607843  0.33297148  1  0.106738  3.4e-05  0.112034  0.132397  4.3e-05  0.997959  0.0
H  H78  1  0.85645968  0.58391944  0.66702856  1  0.106471  3.4e-05  0.11203  0.132401  4.3e-05  0.99792  0.0
H  H79  1  0.09745999  0.29618410  0.41664304  1  0.070038  2e-06  0.109279  0.120778  0.0  0.993021  0.0
H  H80  1  0.90254038  0.70381381  0.58335757  1  0.070046  2e-06  0.109291  0.12078  0.0  0.993017  0.0
H  H81  1  0.95687906  0.20234904  0.49014738  1  0.098598  1e-06  0.104688  0.070974  -3e-06  1.023812  0.0
H  H82  1  0.04312097  0.79764972  0.50985218  1  0.098576  1e-06  0.104672  0.070956  -3e-06  1.023822  0.0
H  H83  1  0.87185680  0.07156368  0.35287989  1  0.05164  1.9e-05  0.105402  0.069093  1.4e-05  1.018158  0.0
H  H84  1  0.12814583  0.92843339  0.64712032  1  0.051653  1.9e-05  0.10542  0.069068  1.4e-05  1.018138  0.0
H  H85  1  0.01301720  0.15698384  0.27422759  1  0.101493  -3e-06  0.102918  0.103387  -4e-06  1.033609  0.0
H  H86  1  0.98698220  0.84301409  0.72577259  1  0.101508  -3e-06  0.10294  0.103442  -4e-06  1.033533  0.0
H  H87  1  0.73043055  0.90442414  0.17484209  1  0.629048  -7e-06  0.28114  0.372089  2e-05  0.971601  0.0
H  H88  1  0.26956498  0.09557626  0.82515963  1  0.628973  -7e-06  0.281124  0.372023  2.1e-05  0.971667  0.0
H  H89  1  0.60144601  0.88792072  0.21088138  1  0.629842  4e-05  0.273072  0.356386  1.4e-05  1.00523  0.0
H  H90  1  0.39854787  0.11208139  0.78911829  1  0.629495  4e-05  0.273035  0.356322  1.4e-05  1.005322  0.0
H  H91  1  0.34243689  0.16017382  0.90962875  1  0.629024  4e-05  0.270783  0.353355  8.1e-05  1.008354  0.0
H  H92  1  0.65756445  0.83982406  0.09037229  1  0.629022  4e-05  0.27079  0.353389  8.1e-05  1.008322  0.0
H  H93  1  0.46788345  0.17955282  0.87231342  1  0.628561  2.7e-05  0.279729  0.371221  -4.2e-05  0.97106  0.0
H  H94  1  0.53211884  0.82044750  0.12768811  1  0.628483  2.8e-05  0.279741  0.371279  -4.2e-05  0.970997  0.0
C  C95  1  0.75302422  0.91947773  0.43402388  1  0.021019  0.005145  -0.078179  -0.162336  0.003572  3.918825  0.004
C  C96  1  0.24697515  0.08052268  0.56597544  1  0.021049  0.005144  -0.078177  -0.162284  0.003572  3.918965  0.004
C  C97  1  0.77640129  0.88012049  0.38039646  1  0.423304  -0.00161  0.04559  0.094935  -0.000696  3.932487  -0.001
C  C98  1  0.22359354  0.11988163  0.61960181  1  0.423347  -0.001611  0.045644  0.094933  -0.000696  3.932458  -0.001
C  C99  1  0.65087578  0.76373882  0.41916145  1  0.44581  -0.000416  0.047084  0.093206  0.000461  3.946654  0.0
C  C100  1  0.34911878  0.23625918  0.58083795  1  0.445894  -0.000416  0.047076  0.093255  0.000462  3.94686  0.0
C  C101  1  0.62360649  0.79879371  0.47411505  1  0.022409  0.005633  -0.079978  -0.159267  0.003909  3.948582  0.005
C  C102  1  0.37639193  0.20120668  0.52588567  1  0.022456  0.005633  -0.079992  -0.159368  0.00391  3.948581  0.005
C  C103  1  0.67429968  0.87898432  0.48261153  1  -0.045854  -0.003638  0.016833  0.090253  -0.002501  3.948666  -0.002
C  C104  1  0.32569845  0.12101198  0.51738849  1  -0.045937  -0.003637  0.016842  0.090341  -0.002501  3.948605  -0.002
C  C105  1  0.64278297  0.91823205  0.54072120  1  0.555523  0.000503  0.115185  0.193357  0.000338  4.04142  0.0
C  C106  1  0.35721740  0.08176587  0.45927849  1  0.555549  0.000503  0.115149  0.193241  0.000338  4.041443  0.0
C  C107  1  0.69152399  0.99763102  0.55158032  1  -0.057618  -0.000832  -0.075741  -0.196064  -0.000553  3.872858  -0.001
C  C108  1  0.30847894  0.00236771  0.44841870  1  -0.057601  -0.000832  -0.07571  -0.19596  -0.000553  3.872752  -0.001
C  C109  1  0.66280763  0.02707839  0.60900964  1  -0.030632  0.000178  0.011382  0.11543  0.000114  3.990768  0.0
C  C110  1  0.33719592  0.97292116  0.39098877  1  -0.030549  0.000178  0.01137  0.115346  0.000114  3.990989  0.0
C  C111  1  0.72314869  0.10341592  0.62361312  1  0.015062  -0.000937  -0.007449  0.063716  -0.000648  3.982244  -0.001
C  C112  1  0.27685484  0.89658610  0.37638535  1  0.015186  -0.000937  -0.007472  0.063809  -0.000648  3.982284  -0.001
C  C113  1  0.73773692  0.19402686  0.57608272  1  -0.070244  0.001315  -0.08843  -0.12699  0.000875  3.971239  0.001
C  C114  1  0.26226211  0.80597439  0.42391555  1  -0.070473  0.001314  -0.088448  -0.127068  0.000874  3.971339  0.001
C  C115  1  0.80715855  0.25853728  0.58946773  1  0.009227  0.00091  -0.086817  -0.104102  0.000628  3.994251  0.001
C  C116  1  0.19283916  0.74146727  0.41053051  1  0.009308  0.00091  -0.08691  -0.104201  0.000627  3.994045  0.001
C  C117  1  0.86835248  0.23138830  0.64978024  1  -0.063349  0.012785  -0.015309  -0.020102  0.008986  3.954249  0.01
C  C118  1  0.13164263  0.76861796  0.35021689  1  -0.063337  0.012776  -0.015271  -0.020131  0.008979  3.954143  0.01
C  C119  1  0.96043325  0.29193472  0.66002556  1  1.574589  -0.00012  0.191781  0.552021  0.001413  4.240859  -0.003
C  C120  1  0.03956385  0.70807140  0.33997656  1  1.575041  -0.000119  0.191904  0.552283  0.001413  4.240529  -0.003
C  C121  1  0.85095498  0.14284250  0.69772221  1  -0.020079  -0.000377  -0.087834  -0.093442  -0.000148  3.977717  0.0
C  C122  1  0.14904466  0.85716203  0.30227597  1  -0.020436  -0.000376  -0.087774  -0.093332  -0.000147  3.977798  0.0
C  C123  1  0.77681178  0.08134278  0.68510694  1  -0.105279  0.000325  -0.088908  -0.119097  0.000142  3.970545  0.0
C  C124  1  0.22318950  0.91865764  0.31489048  1  -0.10516  0.000325  -0.088971  -0.119259  0.000142  3.970738  0.0
C  C125  1  0.58209077  0.97770357  0.65229771  1  -0.018992  -0.00088  -0.074171  -0.191407  -0.000609  3.863403  -0.001
C  C126  1  0.41791213  0.02229761  0.34770137  1  -0.019108  -0.00088  -0.074248  -0.191568  -0.000609  3.863622  -0.001
C  C127  1  0.53425998  0.90087493  0.63713566  1  0.529664  0.000126  0.118638  0.20259  8.8e-05  4.018626  0.0
C  C128  1  0.46574263  0.09912461  0.36286415  1  0.529668  0.000127  0.118692  0.20264  8.8e-05  4.018658  0.0
C  C129  1  0.44882102  0.84455059  0.68040454  1  -0.064718  -1.8e-05  0.003917  0.068625  -1.2e-05  3.969914  0.0
C  C130  1  0.55118192  0.15544810  0.31959632  1  -0.064962  -1.8e-05  0.003869  0.068603  -1.2e-05  3.969905  0.0
C  C131  1  0.38899944  0.87618818  0.73446633  1  -0.031624  2.6e-05  -0.090281  -0.181425  1.6e-05  3.942011  0.0
C  C132  1  0.61100609  0.12380884  0.26553426  1  -0.031287  2.6e-05  -0.090242  -0.181437  1.6e-05  3.941897  0.0
C  C133  1  0.31419229  0.81558450  0.77330837  1  0.48277  -1.6e-05  0.035176  0.090415  -1.1e-05  3.991516  0.0
C  C134  1  0.68581260  0.18441170  0.22669238  1  0.48219  -1.6e-05  0.035128  0.090394  -1.1e-05  3.991459  0.0
C  C135  1  0.34952841  0.69946984  0.70980596  1  0.480935  8e-06  0.035826  0.084262  5e-06  4.014051  0.0
C  C136  1  0.65047419  0.30052970  0.29019386  1  0.481017  7e-06  0.035829  0.084248  5e-06  4.01407  0.0
C  C137  1  0.42627547  0.75403844  0.66825439  1  -0.00604  3.7e-05  -0.086376  -0.166445  2.8e-05  3.967929  0.0
C  C138  1  0.57372617  0.24596110  0.33174546  1  -0.006033  3.7e-05  -0.086364  -0.166427  2.8e-05  3.967896  0.0
C  C139  1  0.86221278  0.47533214  0.21002115  1  -0.017502  0.006057  -0.079475  -0.161686  0.004193  3.913913  0.005
C  C140  1  0.13778627  0.52466907  0.78997897  1  -0.017624  0.006058  -0.079457  -0.161706  0.004194  3.91381  0.005
C  C141  1  0.81024981  0.54654930  0.24843493  1  0.433702  -9.6e-05  0.046902  0.096152  0.00084  3.925771  0.0
C  C142  1  0.18974634  0.45345195  0.75156527  1  0.434254  -9.9e-05  0.046969  0.09636  0.00084  3.925863  0.0
C  C143  1  0.92871414  0.66235339  0.19610689  1  0.45283  -0.002173  0.050246  0.112255  -0.001231  3.925432  -0.002
C  C144  1  0.07128780  0.33764781  0.80389222  1  0.452805  -0.002173  0.050242  0.112233  -0.00123  3.925514  -0.002
C  C145  1  0.98393637  0.59572341  0.15598558  1  -0.002524  0.004647  -0.080075  -0.159287  0.003238  3.952963  0.004
C  C146  1  0.01606561  0.40427528  0.84401577  1  -0.002508  0.004647  -0.080076  -0.159297  0.003238  3.952976  0.004
C  C147  1  0.95211577  0.49967689  0.16219733  1  0.019351  -0.003738  0.01622  0.087894  -0.002573  3.94721  -0.003
C  C148  1  0.04788554  0.50032347  0.83780285  1  0.019317  -0.003738  0.016246  0.08795  -0.002573  3.947067  -0.003
C  C149  1  0.01272115  0.43145648  0.11768193  1  0.543981  0.000471  0.119096  0.202371  0.000329  4.027658  0.0
C  C150  1  0.98727727  0.56854389  0.88231926  1  0.543913  0.000471  0.119117  0.202346  0.000329  4.027703  0.0
C  C151  1  0.97571354  0.34153746  0.11498376  1  -0.071636  -0.000686  -0.076791  -0.199462  -0.000458  3.870806  0.0
C  C152  1  0.02428616  0.65846211  0.88501568  1  -0.071598  -0.000686  -0.076825  -0.19948  -0.000458  3.870854  0.0
C  C153  1  0.03048265  0.28762624  0.06768597  1  0.011681  0.000146  0.010862  0.111995  9.9e-05  3.996265  0.0
C  C154  1  0.96951803  0.71237330  0.93231482  1  0.011748  0.000146  0.010935  0.112131  9.9e-05  3.996119  0.0
C  C155  1  0.98301339  0.19829314  0.06196621  1  -0.03938  0.000746  -0.001372  0.072226  0.000507  3.984531  0.0
C  C156  1  0.01698762  0.80170555  0.93803516  1  -0.037847  0.000745  -0.001395  0.072171  0.000507  3.984519  0.0
C  C157  1  0.96479284  0.11994219  0.11658759  1  -0.005976  -0.000874  -0.088458  -0.131688  -0.000607  3.978694  -0.001
C  C158  1  0.03520948  0.88005566  0.88341434  1  -0.007758  -0.000874  -0.088503  -0.1317  -0.000607  3.978787  -0.001
C  C159  1  0.90365262  0.04438626  0.11201858  1  -0.04781  -0.000876  -0.082977  -0.096825  -0.000619  3.981919  -0.001
C  C160  1  0.09635098  0.95561077  0.88798253  1  -0.047917  -0.000876  -0.082933  -0.096845  -0.000619  3.98191  -0.001
C  C161  1  0.85307181  0.04955991  0.05295892  1  -0.024941  -0.009106  -0.01863  -0.039263  -0.006614  3.986008  -0.007
C  C162  1  0.14693050  0.95043795  0.94704255  1  -0.024939  -0.009105  -0.018672  -0.039288  -0.006613  3.986051  -0.007
C  C163  1  0.76866726  0.97987280  0.04982209  1  1.560004  -0.001823  0.211375  0.572062  -0.002951  4.204667  0.0
C  C164  1  0.23133506  0.02012505  0.95017984  1  1.559993  -0.001824  0.211362  0.572094  -0.002952  4.204537  0.0
C  C165  1  0.87523572  0.12498214  0.99801890  1  -0.022807  0.000486  -0.081953  -0.084969  0.000275  3.972689  0.0
C  C166  1  0.12476400  0.87501739  0.00198238  1  -0.022752  0.000486  -0.081952  -0.084914  0.000275  3.972727  0.0
C  C167  1  0.94327305  0.19610474  0.00232408  1  -0.047743  -0.000166  -0.085783  -0.120784  -6.6e-05  3.961783  0.0
C  C168  1  0.05672701  0.80389395  0.99767824  1  -0.047784  -0.000166  -0.08577  -0.120795  -6.6e-05  3.961748  0.0
C  C169  1  0.12202377  0.32506750  0.02561947  1  -0.034181  -0.00065  -0.074553  -0.194537  -0.000429  3.858388  0.0
C  C170  1  0.87797790  0.67492957  0.97438124  1  -0.034289  -0.000649  -0.07462  -0.194658  -0.000429  3.858447  0.0
C  C171  1  0.15820910  0.41319617  0.03319031  1  0.562359  0.000133  0.122924  0.211815  9.7e-05  4.008198  0.0
C  C172  1  0.84179191  0.58680255  0.96681014  1  0.562441  0.000133  0.122977  0.211916  9.7e-05  4.008076  0.0
C  C173  1  0.25492913  0.45914112  0.99192379  1  -0.033914  -1.3e-05  0.002625  0.063087  -1e-05  3.970758  0.0
C  C174  1  0.74507058  0.54085844  0.00807657  1  -0.03344  -1.3e-05  0.002525  0.062979  -1e-05  3.970669  0.0
C  C175  1  0.28313337  0.54810965  0.00308220  1  0.049823  2.4e-05  -0.086934  -0.161162  1.4e-05  3.973313  0.0
C  C176  1  0.71686637  0.45188742  0.99691902  1  0.049364  2.4e-05  -0.086907  -0.161111  1.4e-05  3.973208  0.0
C  C177  1  0.36586490  0.59666909  0.96216756  1  0.474033  -3.6e-05  0.035871  0.08791  -2.5e-05  4.006367  0.0
C  C178  1  0.63413480  0.40333290  0.03783424  1  0.473474  -3.6e-05  0.035937  0.088019  -2.5e-05  4.006375  0.0
C  C179  1  0.39865429  0.47628010  0.90153989  1  0.468289  -1.8e-05  0.035326  0.090136  -1.2e-05  3.988626  0.0
C  C180  1  0.60134445  0.52372191  0.09846147  1  0.467975  -1.8e-05  0.035317  0.090192  -1.2e-05  3.988584  0.0
C  C181  1  0.31770847  0.42137199  0.94007068  1  -0.104292  7e-06  -0.089545  -0.174634  -2e-06  3.942021  0.0
C  C182  1  0.68229383  0.57862590  0.05992941  1  -0.104176  7e-06  -0.089537  -0.174638  -2e-06  3.942009  0.0
C  C183  1  0.43383794  0.23186459  0.10892166  1  -0.015879  -0.006018  -0.079623  -0.163293  -0.004244  3.919867  -0.005
C  C184  1  0.56616147  0.76813332  0.89107944  1  -0.016226  -0.00602  -0.079698  -0.163397  -0.004245  3.919731  -0.005
C  C185  1  0.47628076  0.17154136  0.06436086  1  0.465483  0.00076  0.046051  0.096146  -0.000348  3.924268  0.0
C  C186  1  0.52372186  0.82845813  0.93564080  1  0.46633  0.00076  0.046073  0.096193  -0.000348  3.924254  0.0
C  C187  1  0.35242487  0.05665515  0.11039576  1  0.48072  0.001004  0.051475  0.108897  -3.3e-05  3.92447  0.001
C  C188  1  0.64757581  0.94334438  0.88960503  1  0.480718  0.001004  0.051514  0.109011  -3.3e-05  3.924307  0.001
C  C189  1  0.30531325  0.11345690  0.15615003  1  -0.014594  -0.005739  -0.079278  -0.155927  -0.004082  3.93752  -0.005
C  C190  1  0.69468486  0.88654185  0.84385051  1  -0.014618  -0.005738  -0.079291  -0.155939  -0.004081  3.93758  -0.005
C  C191  1  0.34439383  0.20397343  0.15612035  1  -0.057502  0.003667  0.015891  0.086351  0.002455  3.939758  0.002
C  C192  1  0.65560812  0.79602775  0.84387968  1  -0.057475  0.003667  0.015916  0.086409  0.002455  3.939814  0.002
C  C193  1  0.28967024  0.26721876  0.20370527  1  0.523423  -0.000554  0.117261  0.198654  -0.000399  4.01576  -0.001
C  C194  1  0.71032819  0.73277918  0.79629448  1  0.523358  -0.000553  0.1172  0.198541  -0.000399  4.015858  -0.001
C  C195  1  0.32290927  0.36029875  0.20385512  1  -0.049463  0.000659  -0.07466  -0.191092  0.000425  3.861479  0.0
C  C196  1  0.67709137  0.63970329  0.79614343  1  -0.049463  0.000658  -0.074594  -0.190924  0.000425  3.861485  0.0
C  C197  1  0.27158057  0.41431466  0.25130951  1  0.002816  -0.000149  0.010755  0.117602  -0.000105  4.00212  0.0
C  C198  1  0.72841782  0.58568578  0.74868892  1  0.002855  -0.000149  0.010769  0.117569  -0.000105  4.002143  0.0
C  C199  1  0.31259117  0.50816903  0.25419927  1  -0.03587  -0.000531  -0.001247  0.069636  -0.000373  3.982012  0.0
C  C200  1  0.68740853  0.49183055  0.74580018  1  -0.035929  -0.000531  -0.001285  0.069561  -0.000373  3.982029  0.0
C  C201  1  0.31754747  0.58963303  0.19846180  1  -0.073584  0.000706  -0.086968  -0.124598  0.000465  3.973961  0.001
C  C202  1  0.68244993  0.41036988  0.80153671  1  -0.073571  0.000706  -0.086982  -0.124592  0.000464  3.973978  0.001
C  C203  1  0.37139425  0.67085960  0.20023746  1  -0.003886  0.000866  -0.084154  -0.097532  0.000595  3.989369  0.001
C  C204  1  0.62860351  0.32914243  0.79976348  1  -0.003771  0.000866  -0.08417  -0.097558  0.000596  3.989372  0.001
C  C205  1  0.42813323  0.66822016  0.25728071  1  -0.04602  0.007836  -0.019481  -0.040297  0.005555  3.990712  0.006
C  C206  1  0.57186452  0.33178191  0.74271839  1  -0.045976  0.007839  -0.0194  -0.040227  0.005557  3.990625  0.006
C  C207  1  0.50634180  0.74395219  0.25635482  1  1.547846  0.002653  0.212364  0.576633  0.003351  4.191224  0.001
C  C208  1  0.49365466  0.25604828  0.74364320  1  1.547845  0.002652  0.212303  0.576564  0.00335  4.191529  0.001
C  C209  1  0.41855905  0.58965694  0.31347322  1  -0.029171  -0.00032  -0.082478  -0.089958  -0.000184  3.98923  0.0
C  C210  1  0.58143839  0.41034348  0.68652661  1  -0.029217  -0.000321  -0.082495  -0.089941  -0.000185  3.989314  0.0
C  C211  1  0.35750515  0.51254271  0.31229669  1  -0.036291  0.000131  -0.080175  -0.111225  5.2e-05  3.961341  0.0
C  C212  1  0.64249387  0.48745855  0.68770113  1  -0.036208  0.000131  -0.080167  -0.111207  5.2e-05  3.961369  0.0
C  C213  1  0.18763226  0.37350910  0.29662688  1  -0.04511  0.000728  -0.075116  -0.204951  0.00048  3.869667  0.0
C  C214  1  0.81236871  0.62649212  0.70337225  1  -0.044891  0.000728  -0.075154  -0.204973  0.00048  3.869652  0.0
C  C215  1  0.15700739  0.28122595  0.29239235  1  0.517406  -0.000117  0.11996  0.209408  -8.8e-05  4.022041  0.0
C  C216  1  0.84299264  0.71877280  0.70760722  1  0.517411  -0.000117  0.12  0.209475  -8.8e-05  4.021958  0.0
C  C217  1  0.06816936  0.23381776  0.33836602  1  -0.036169  1.8e-05  0.005643  0.070986  1.3e-05  3.975665  0.0
C  C218  1  0.93183131  0.76618181  0.66163339  1  -0.036176  1.8e-05  0.005683  0.071026  1.3e-05  3.975596  0.0
C  C219  1  0.04851141  0.24790490  0.39994536  1  -0.036233  -2.2e-05  -0.085967  -0.172992  -2e-05  3.944665  0.0
C  C220  1  0.95148896  0.75209301  0.60005479  1  -0.036261  -2.2e-05  -0.08599  -0.172982  -2e-05  3.944667  0.0
C  C221  1  0.96954767  0.19491140  0.44144899  1  0.480598  4e-06  0.033986  0.087352  2e-06  4.003083  0.0
C  C222  1  0.03045399  0.80508568  0.55855126  1  0.480571  4e-06  0.03402  0.087373  2e-06  4.003009  0.0
C  C223  1  0.92439732  0.12089738  0.36623267  1  0.498019  1.9e-05  0.038049  0.092071  1.2e-05  4.005958  0.0
C  C224  1  0.07560338  0.87909972  0.63376714  1  0.498253  1.9e-05  0.037982  0.092104  1.2e-05  4.00589  0.0
C  C225  1  0.00279641  0.16887687  0.32175693  1  -0.011359  -1.4e-05  -0.084335  -0.159428  -8e-06  3.961945  0.0
C  C226  1  0.99720459  0.83112186  0.67824307  1  -0.011558  -1.4e-05  -0.084354  -0.159535  -8e-06  3.961815  0.0
N  N227  1  0.72644594  0.80351237  0.37274291  1  -1.206943  0.076883  -0.347048  -0.227254  0.052756  3.605904  0.067
N  N228  1  0.27355083  0.19648974  0.62725530  1  -1.20706  0.076895  -0.34708  -0.227356  0.052762  3.605985  0.067
N  N229  1  0.56612736  0.87127711  0.58269287  1  -1.219274  -0.000421  -0.309287  -0.337719  -0.000286  3.330363  0.0
N  N230  1  0.43387297  0.12872328  0.41730642  1  -1.219256  -0.000421  -0.309261  -0.337634  -0.000286  3.330289  0.0
N  N231  1  0.29326963  0.72823089  0.76215297  1  -1.200663  0.000175  -0.325995  -0.281137  0.000113  3.354006  0.0
N  N232  1  0.70673461  0.27176697  0.23784753  1  -1.20075  0.000175  -0.325953  -0.281088  0.000113  3.353925  0.0
N  N233  1  0.84257064  0.63850688  0.24186600  1  -1.213391  0.078479  -0.347168  -0.23342  0.053892  3.615301  0.068
N  N234  1  0.15742838  0.36149681  0.75813325  1  -1.213885  0.078491  -0.347273  -0.23363  0.053898  3.61577  0.068
N  N235  1  0.10305642  0.46468963  0.07809393  1  -1.215553  -0.00029  -0.307693  -0.335  -0.0002  3.351967  0.0
N  N236  1  0.89694328  0.53530996  0.92190505  1  -1.21558  -0.00029  -0.307729  -0.335027  -0.000199  3.352025  0.0
N  N237  1  0.42341565  0.56314555  0.91130698  1  -1.218721  -0.000173  -0.324153  -0.277963  -0.000115  3.356141  0.0
N  N238  1  0.57658179  0.43685486  0.08869331  1  -1.218505  -0.000173  -0.324171  -0.278043  -0.000115  3.356136  0.0
N  N239  1  0.43648375  0.08530639  0.06480507  1  -1.223848  -0.083663  -0.348495  -0.228842  -0.058836  3.599538  -0.072
N  N240  1  0.56351697  0.91469065  0.93519704  1  -1.224355  -0.083664  -0.348543  -0.228969  -0.058837  3.599652  -0.072
N  N241  1  0.20695403  0.22964190  0.24675774  1  -1.194512  0.000313  -0.308301  -0.342979  0.0002  3.323484  0.0
N  N242  1  0.79304599  0.77035931  0.75324234  1  -1.194485  0.000313  -0.308312  -0.343015  0.0002  3.323421  0.0
N  N243  1  0.90738141  0.13176531  0.42574772  1  -1.199777  5.2e-05  -0.327897  -0.283215  3.1e-05  3.322383  0.0
N  N244  1  0.09262024  0.86823178  0.57425207  1  -1.199771  5.2e-05  -0.327898  -0.283232  3.1e-05  3.322301  0.0
O  O245  1  0.59262894  0.71363123  0.30302490  1  -1.133491  0.084  -0.328187  -0.568965  0.05551  2.376926  0.075
O  O246  1  0.40737851  0.28636579  0.69697426  1  -1.133578  0.084008  -0.328122  -0.568847  0.055514  2.37697  0.075
O  O247  1  0.48725679  0.82899245  0.20947830  1  -1.196283  0.004502  -0.309194  -0.554849  0.002641  2.25095  0.004
O  O248  1  0.51274093  0.17101208  0.79052132  1  -1.196218  0.004504  -0.309186  -0.554826  0.002642  2.251136  0.004
O  O249  1  0.68659460  0.01633126  0.00115693  1  -1.121522  -0.095081  -0.319851  -0.554837  -0.064554  2.368635  -0.085
O  O250  1  0.31340542  0.98366994  0.99884315  1  -1.12158  -0.09506  -0.319842  -0.554856  -0.064539  2.368742  -0.085
O  O251  1  0.77933035  0.89411749  0.09525142  1  -1.195549  -0.004692  -0.310523  -0.558514  -0.002843  2.24408  -0.004
O  O252  1  0.22066933  0.10588455  0.90474808  1  -1.195479  -0.004694  -0.310522  -0.558536  -0.002844  2.243889  -0.004
O  O253  1  0.05106476  0.23285419  0.70637798  1  -1.106229  0.142249  -0.334738  -0.560217  0.09295  2.358687  0.126
O  O254  1  0.94892871  0.76715132  0.29361704  1  -1.106635  0.14225  -0.334862  -0.560438  0.092954  2.358361  0.126
O  O255  1  0.95210556  0.38457750  0.62450888  1  -1.169137  0.00561  -0.343343  -0.560826  0.003178  2.06716  0.005
O  O256  1  0.04787537  0.61543780  0.37549500  1  -1.169437  0.005601  -0.343316  -0.560837  0.003173  2.067246  0.005
O  O257  1  0.68477070  0.90709536  0.21563842  1  -1.271709  -0.001663  -0.604191  -0.775441  -0.000936  2.051759  0.0
O  O258  1  0.31522513  0.09290670  0.78436211  1  -1.271306  -0.001659  -0.60416  -0.775324  -0.000935  2.05192  0.0
O  O259  1  0.42470331  0.18059290  0.91368763  1  -1.27706  -0.001231  -0.608306  -0.788792  -0.000903  2.007199  -0.002
O  O260  1  0.57529933  0.81940414  0.08631351  1  -1.276973  -0.00123  -0.608312  -0.78887  -0.000903  2.007132  -0.002
