# generated using pymatgen
data_CuH7C9N5O3
_symmetry_space_group_name_H-M   'P 1'
_cell_length_a   9.21080998
_cell_length_b   9.48647301
_cell_length_c   13.65598277
_cell_angle_alpha   69.67780267
_cell_angle_beta   78.24514933
_cell_angle_gamma   89.98050174
_symmetry_Int_Tables_number   1
_chemical_formula_structural   CuH7C9N5O3
_chemical_formula_sum   'Cu4 H28 C36 N20 O12'
_cell_volume   1092.26706936
_cell_formula_units_Z   4
loop_
 _symmetry_equiv_pos_site_id
 _symmetry_equiv_pos_as_xyz
  1  'x, y, z'
loop_
 _atom_site_type_symbol
 _atom_site_label
 _atom_site_symmetry_multiplicity
 _atom_site_fract_x
 _atom_site_fract_y
 _atom_site_fract_z
 _atom_site_occupancy
 _atom_site_pbe_bader_charge
 _atom_site_pbe_bader_spin_density
 _atom_site_pbe_cm5_charge
 _atom_site_pbe_ddec_charge
 _atom_site_pbe_ddec_spin_density
 _atom_site_pbe_ddec_sum_bond_order
 _atom_site_pbe_magmom
Cu  Cu0  1  0.93196795  0.99384812  0.37216330  1  1.054239  0.571482  0.771406  0.626305  0.727807  2.440425  0.57
Cu  Cu1  1  0.56809217  0.36607308  0.62779719  1  1.054271  0.571266  0.771308  0.62607  0.727239  2.440547  0.57
Cu  Cu2  1  0.06802827  0.00621287  0.62764268  1  1.054225  0.571563  0.771765  0.626637  0.727953  2.441732  0.57
Cu  Cu3  1  0.43200754  0.63399098  0.37221882  1  1.05421  0.571276  0.77079  0.62636  0.727184  2.438233  0.57
H  H4  1  0.19704447  0.06820378  0.19974732  1  0.11978  0.00256  0.116496  0.088117  0.001131  1.030932  0.002
H  H5  1  0.30343740  0.26776894  0.80038113  1  0.112306  0.002572  0.116339  0.087963  0.001133  1.031256  0.002
H  H6  1  0.80285974  0.93178377  0.80021892  1  0.119472  0.002564  0.116502  0.087982  0.001132  1.031034  0.002
H  H7  1  0.69670245  0.73226723  0.19947109  1  0.107945  0.002571  0.116328  0.087762  0.00113  1.031468  0.002
H  H8  1  0.35978884  0.29454688  0.07842321  1  0.095415  0.001325  0.107854  0.119693  0.000673  1.025538  0.001
H  H9  1  0.14054366  0.37242754  0.92192742  1  0.095611  0.001326  0.108043  0.119737  0.000672  1.025062  0.001
H  H10  1  0.64019772  0.70542654  0.92162594  1  0.094949  0.00133  0.107782  0.119659  0.000675  1.02528  0.001
H  H11  1  0.85959493  0.62746698  0.07802474  1  0.09423  0.001326  0.108121  0.11967  0.000672  1.025198  0.001
H  H12  1  0.06926795  0.56106447  0.22143405  1  0.128563  0.001393  0.110582  0.130647  0.000762  1.015285  0.001
H  H13  1  0.43026034  0.78225326  0.77898744  1  0.11341  0.001409  0.110771  0.131035  0.000763  1.016576  0.001
H  H14  1  0.93070675  0.43890038  0.77863382  1  0.128418  0.001395  0.11065  0.130821  0.000761  1.01522  0.001
H  H15  1  0.56974449  0.21774303  0.22101742  1  0.113135  0.001406  0.110778  0.131006  0.000762  1.016525  0.001
H  H16  1  0.91765645  0.32315354  0.33805479  1  0.107942  0.002692  0.119328  0.089444  0.001241  1.008471  0.002
H  H17  1  0.58197674  0.66138326  0.66203490  1  0.101522  0.0027  0.119327  0.089516  0.001244  1.007389  0.002
H  H18  1  0.08219302  0.67683344  0.66188835  1  0.108161  0.002698  0.119461  0.089806  0.001244  1.00829  0.002
H  H19  1  0.41798911  0.33875890  0.33784099  1  0.102801  0.002691  0.119173  0.089378  0.00124  1.007404  0.002
H  H20  1  0.42186607  0.55564855  0.01936096  1  0.015242  0.000125  0.084597  0.0759  5.8e-05  1.054335  0.0
H  H21  1  0.07788737  0.57458006  0.98097558  1  -0.008744  0.000126  0.084701  0.075413  5.7e-05  1.055307  0.0
H  H22  1  0.57810079  0.44430788  0.98070180  1  0.014899  0.000126  0.0847  0.075973  5.8e-05  1.054359  0.0
H  H23  1  0.92213820  0.42533557  0.01896900  1  -0.007472  0.000126  0.084664  0.0755  5.7e-05  1.054952  0.0
H  H24  1  0.37669633  0.63276987  0.12218405  1  0.097217  -0.000127  0.098828  0.119097  -6e-05  1.011919  0.0
H  H25  1  0.12284178  0.75447046  0.87809699  1  0.0871  -0.000126  0.099189  0.11952  -6.3e-05  1.011878  0.0
H  H26  1  0.62321251  0.36723561  0.87784882  1  0.095795  -0.000127  0.098839  0.119079  -6e-05  1.012069  0.0
H  H27  1  0.87718942  0.24544289  0.12184874  1  0.085016  -0.000126  0.099031  0.119472  -6.3e-05  1.01199  0.0
H  H28  1  0.16845800  0.75510610  0.05178630  1  0.037905  -1e-05  0.088383  0.083132  -6e-06  1.023093  0.0
H  H29  1  0.33066165  0.80689476  0.94862722  1  0.062427  -8e-06  0.088349  0.083  -6e-06  1.021956  0.0
H  H30  1  0.83145461  0.24483447  0.94817505  1  0.038224  -9e-06  0.088355  0.083142  -6e-06  1.023235  0.0
H  H31  1  0.66929800  0.19305354  0.05137828  1  0.061521  -8e-06  0.088344  0.082925  -5e-06  1.022117  0.0
C  C32  1  0.68118695  0.94663051  0.29224569  1  1.64541  -0.002939  0.209412  0.529241  -0.002877  4.262853  -0.003
C  C33  1  0.81877282  0.23879784  0.70774874  1  1.65059  -0.002939  0.209436  0.530547  -0.002877  4.262907  -0.003
C  C34  1  0.31858459  0.05312992  0.70772442  1  1.648195  -0.002928  0.208966  0.52867  -0.002865  4.262633  -0.003
C  C35  1  0.18110177  0.76122719  0.29246641  1  1.648815  -0.002941  0.209222  0.529165  -0.002884  4.265183  -0.003
C  C36  1  0.69272505  0.80607861  0.38255438  1  0.978834  -0.000915  0.213975  0.144215  -0.002251  4.020472  0.002
C  C37  1  0.80734293  0.18861267  0.61737955  1  0.990136  -0.000912  0.213765  0.142685  -0.002257  4.02098  0.002
C  C38  1  0.30732180  0.19384452  0.61743795  1  0.976528  -0.000913  0.214411  0.144639  -0.002235  4.018987  0.002
C  C39  1  0.19278073  0.81155041  0.38270319  1  0.989931  -0.000923  0.213492  0.143229  -0.002264  4.022307  0.002
C  C40  1  0.17414816  0.17896947  0.20365142  1  0.464282  -0.000439  0.042684  0.09208  -0.001154  3.937069  0.0
C  C41  1  0.32611727  0.38245046  0.79650271  1  0.492733  -0.000506  0.042653  0.091055  -0.001159  3.938469  0.0
C  C42  1  0.82575170  0.82102396  0.79630782  1  0.462237  -0.000436  0.042638  0.091884  -0.001154  3.936959  0.0
C  C43  1  0.67395834  0.61758437  0.20337904  1  0.494738  -0.000491  0.042997  0.091969  -0.001143  3.938622  0.0
C  C44  1  0.26398449  0.30691454  0.13552975  1  -0.038285  0.006723  -0.084801  -0.186915  0.004515  3.939579  0.005
C  C45  1  0.23618160  0.44206951  0.86477637  1  -0.062932  0.006793  -0.084906  -0.185656  0.004531  3.939725  0.005
C  C46  1  0.73596107  0.69306616  0.86448280  1  -0.036596  0.006732  -0.084719  -0.186714  0.004524  3.939159  0.005
C  C47  1  0.76390561  0.55788842  0.13516086  1  -0.058558  0.006786  -0.085002  -0.185837  0.004529  3.939371  0.005
C  C48  1  0.23090419  0.44859393  0.14058538  1  -0.010433  -0.003933  0.01951  0.184112  -0.004547  3.907863  -0.003
C  C49  1  0.26894340  0.58882359  0.85977082  1  0.00356  -0.00394  0.018981  0.182899  -0.004558  3.910101  -0.003
C  C50  1  0.76903282  0.55137646  0.85944764  1  -0.010404  -0.003941  0.019369  0.184086  -0.004556  3.907851  -0.003
C  C51  1  0.73111130  0.41112832  0.14019160  1  0.002621  -0.003929  0.01902  0.18278  -0.004546  3.910348  -0.003
C  C52  1  0.10246804  0.45416979  0.21422593  1  0.033158  0.007286  -0.077761  -0.164452  0.005059  3.892374  0.006
C  C53  1  0.39726349  0.66816843  0.78609041  1  0.006493  0.007356  -0.077741  -0.164699  0.005061  3.893474  0.006
C  C54  1  0.89746164  0.54580629  0.78579575  1  0.034562  0.007298  -0.077802  -0.16472  0.005068  3.892771  0.006
C  C55  1  0.60275911  0.33184612  0.21386686  1  0.006422  0.007343  -0.077923  -0.164859  0.005051  3.893721  0.006
C  C56  1  0.01775489  0.32179950  0.28021629  1  0.416074  0.000276  0.046589  0.095317  -0.000383  3.940135  0.001
C  C57  1  0.48202573  0.60201553  0.71993763  1  0.455363  0.000161  0.046425  0.0953  -0.000361  3.939302  0.001
C  C58  1  0.98211606  0.67819008  0.71974792  1  0.415618  0.000277  0.046363  0.094896  -0.000384  3.940688  0.001
C  C59  1  0.51798167  0.39807654  0.27996694  1  0.453962  0.000159  0.046626  0.095733  -0.000367  3.939576  0.001
C  C60  1  0.32959248  0.58770940  0.07029408  1  -0.030262  0.000836  -0.166764  -0.217673  0.000562  3.938922  0.001
C  C61  1  0.17005235  0.65762041  0.93003024  1  0.001001  0.000819  -0.167171  -0.217517  0.000553  3.941475  0.001
C  C62  1  0.67035323  0.41225949  0.92974268  1  -0.028825  0.000839  -0.166891  -0.217813  0.000564  3.938932  0.001
C  C63  1  0.82997268  0.34230714  0.06993849  1  0.003432  0.00082  -0.166987  -0.217347  0.000555  3.941057  0.001
C  C64  1  0.24967438  0.71188175  0.00017906  1  -0.027399  -0.000328  -0.164163  -0.131222  -0.000376  3.9137  0.0
C  C65  1  0.75028580  0.28805842  0.99981314  1  -0.027847  -0.000328  -0.164152  -0.131339  -0.000375  3.914277  0.0
C  C66  1  0.50001426  0.99996490  0.00000271  1  2.148138  -1e-06  0.37946  0.73393  -2.6e-05  4.09039  0.0
C  C67  1  0.00000068  0.99999620  0.00010446  1  2.119533  -2e-06  0.379629  0.733931  -2.8e-05  4.094442  0.0
N  N68  1  0.80430565  0.79858776  0.43303956  1  -0.696213  0.080651  -0.245062  -0.215329  0.055022  3.598463  0.071
N  N69  1  0.69575739  0.23159458  0.56689040  1  -0.712562  0.080817  -0.245544  -0.216145  0.055104  3.599586  0.071
N  N70  1  0.19581189  0.20161862  0.56684766  1  -0.695564  0.08076  -0.245129  -0.215499  0.055107  3.596623  0.071
N  N71  1  0.30445738  0.76865251  0.43310607  1  -0.713204  0.080721  -0.245181  -0.216077  0.055052  3.599767  0.071
N  N72  1  0.79269796  0.66074095  0.50764622  1  -0.07977  0.007892  -0.080485  -0.033893  0.004621  3.138838  0.007
N  N73  1  0.70741187  0.16831248  0.49230064  1  -0.066968  0.007871  -0.080804  -0.034539  0.004611  3.14045  0.007
N  N74  1  0.20763897  0.33953497  0.49230451  1  -0.078953  0.007898  -0.081033  -0.035019  0.004619  3.139791  0.007
N  N75  1  0.29282012  0.83196054  0.50769131  1  -0.064637  0.007875  -0.080383  -0.03375  0.004613  3.140625  0.007
N  N76  1  0.67515699  0.58583339  0.50207990  1  -0.1492  0.011952  -0.1036  -0.075571  0.007552  3.408989  0.011
N  N77  1  0.82501989  0.08784940  0.49786399  1  -0.160133  0.012019  -0.102589  -0.073465  0.007584  3.40886  0.011
N  N78  1  0.32525002  0.41421603  0.49800714  1  -0.149108  0.011899  -0.102484  -0.074154  0.00751  3.408246  0.011
N  N79  1  0.17516477  0.91234314  0.50217463  1  -0.160946  0.011992  -0.103263  -0.074047  0.007562  3.40967  0.011
N  N80  1  0.61057280  0.67475171  0.42462938  1  -0.731667  0.069623  -0.243364  -0.204167  0.047404  3.569324  0.062
N  N81  1  0.88958022  0.09938031  0.57528203  1  -0.723183  0.069567  -0.244191  -0.204013  0.047421  3.572184  0.062
N  N82  1  0.38964129  0.32509310  0.57547283  1  -0.730467  0.069721  -0.244139  -0.204529  0.04745  3.569912  0.062
N  N83  1  0.11052444  0.90076402  0.42479239  1  -0.723821  0.069564  -0.243793  -0.204395  0.047432  3.569829  0.062
N  N84  1  0.05364116  0.18586995  0.27616234  1  -1.221015  0.103144  -0.350212  -0.221264  0.06745  3.633801  0.089
N  N85  1  0.44638620  0.46205231  0.72389696  1  -1.224888  0.103273  -0.34964  -0.220126  0.067403  3.633134  0.089
N  N86  1  0.94620661  0.81413582  0.72375524  1  -1.220948  0.103447  -0.349957  -0.221247  0.067653  3.632768  0.089
N  N87  1  0.55363315  0.53806359  0.27597249  1  -1.224163  0.103092  -0.349838  -0.221127  0.067289  3.633645  0.088
O  O88  1  0.58342034  0.95574877  0.23979021  1  -1.137088  0.024564  -0.310625  -0.518921  0.015072  2.094369  0.021
O  O89  1  0.91629813  0.19518268  0.76039228  1  -1.150023  0.024464  -0.310245  -0.51907  0.014996  2.095235  0.021
O  O90  1  0.41601454  0.04383182  0.76047025  1  -1.141184  0.024514  -0.310251  -0.518487  0.015032  2.093912  0.021
O  O91  1  0.08345408  0.80482981  0.23992787  1  -1.148623  0.024538  -0.310105  -0.518625  0.015047  2.095822  0.021
O  O92  1  0.78339578  0.05045440  0.27667258  1  -1.089984  0.116085  -0.309429  -0.496966  0.072873  2.316697  0.105
O  O93  1  0.71667986  0.32732009  0.72317448  1  -1.087794  0.115772  -0.309607  -0.497447  0.072614  2.317913  0.105
O  O94  1  0.21651740  0.94933138  0.72297113  1  -1.088729  0.115827  -0.309582  -0.496968  0.072682  2.318661  0.105
O  O95  1  0.28307035  0.67259342  0.27703831  1  -1.086704  0.116027  -0.309242  -0.496655  0.072809  2.317672  0.105
O  O96  1  0.40357986  0.06726660  0.02859629  1  -1.080143  2.6e-05  -0.164969  -0.343421  2.3e-05  2.208701  0.0
O  O97  1  0.09678430  0.09551158  0.97129495  1  -1.065699  2.5e-05  -0.164947  -0.343457  2.3e-05  2.210808  0.0
O  O98  1  0.59644805  0.93266224  0.97140611  1  -1.080846  2.6e-05  -0.164825  -0.343456  2.3e-05  2.209616  0.0
O  O99  1  0.90321375  0.90448336  0.02890180  1  -1.066334  2.5e-05  -0.1651  -0.34353  2.2e-05  2.210999  0.0
