# generated using pymatgen
data_NiH6C6(NO3)2
_symmetry_space_group_name_H-M   'P 1'
_cell_length_a   7.14457062
_cell_length_b   7.14803692
_cell_length_c   10.40759266
_cell_angle_alpha   83.83956240
_cell_angle_beta   119.85604579
_cell_angle_gamma   115.57714379
_symmetry_Int_Tables_number   1
_chemical_formula_structural   NiH6C6(NO3)2
_chemical_formula_sum   'Ni2 H12 C12 N4 O12'
_cell_volume   411.84384980
_cell_formula_units_Z   2
loop_
 _symmetry_equiv_pos_site_id
 _symmetry_equiv_pos_as_xyz
  1  'x, y, z'
loop_
 _atom_site_type_symbol
 _atom_site_label
 _atom_site_symmetry_multiplicity
 _atom_site_fract_x
 _atom_site_fract_y
 _atom_site_fract_z
 _atom_site_occupancy
 _atom_site_hle17_ddec_charge
 _atom_site_hle17_ddec_spin_density
 _atom_site_hle17_ddec_sum_bond_order
 _atom_site_hle17_magmom
 _atom_site_hse06_10hf_ddec_charge
 _atom_site_hse06_10hf_ddec_spin_density
 _atom_site_hse06_10hf_ddec_sum_bond_order
 _atom_site_hse06_10hf_magmom
 _atom_site_hse06_ddec_charge
 _atom_site_hse06_ddec_spin_density
 _atom_site_hse06_ddec_sum_bond_order
 _atom_site_hse06_magmom
 _atom_site_pbe_cm5_charge
 _atom_site_pbe_ddec_charge
 _atom_site_pbe_ddec_spin_density
 _atom_site_pbe_ddec_sum_bond_order
 _atom_site_pbe_magmom
Ni  Ni0  1  0.00000068  0.99999927  0.50000089  1  0.864887  1.752961  2.092891  1.508  0.873457  1.808175  2.482345  1.613  0.949805  1.861426  2.416042  1.7  0.67978  0.820927  1.75626  2.527785  1.533
Ni  Ni1  1  0.00000095  0.50000009  0.00000037  1  0.868678  1.752422  2.088546  1.507  0.876583  1.807553  2.478948  1.612  0.953899  1.860913  2.410856  1.699  0.680267  0.822829  1.755908  2.526562  1.532
H  H2  1  0.28416759  0.44174080  0.28224276  1  0.438076  0.000352  0.80508  0.001  0.41751  0.000813  0.868147  0.001  0.427185  0.000545  0.8577  0.001  0.31949  0.410021  0.001175  0.876341  0.002
H  H3  1  0.65927933  0.00184126  0.21776592  1  0.437664  0.000429  0.804895  0.001  0.416752  0.000885  0.868718  0.001  0.426481  0.000597  0.858163  0.001  0.319431  0.40977  0.001176  0.876145  0.002
H  H4  1  0.71583723  0.55826310  0.71775733  1  0.438111  0.000352  0.805023  0.001  0.417545  0.000813  0.868089  0.001  0.42722  0.000545  0.857643  0.001  0.319513  0.410056  0.001175  0.876287  0.002
H  H5  1  0.34071689  0.99815486  0.78223311  1  0.437657  0.000429  0.804923  0.001  0.41674  0.000885  0.868754  0.001  0.42647  0.000597  0.858198  0.001  0.319433  0.409761  0.001176  0.876179  0.002
H  H6  1  0.32700955  0.36336394  0.16407633  1  0.428025  -8.9e-05  0.872377  0.0  0.396603  0.000353  0.941943  0.0  0.407515  0.000124  0.926482  0.0  0.294802  0.388968  0.000602  0.952712  0.001
H  H7  1  0.69931046  0.16291710  0.33598639  1  0.427797  -9.2e-05  0.87245  0.0  0.39645  0.000349  0.941985  0.0  0.407434  0.000122  0.926432  0.0  0.294897  0.388846  0.000602  0.952662  0.001
H  H8  1  0.67299104  0.63663530  0.83592182  1  0.428059  -9e-05  0.872368  0.0  0.396626  0.000353  0.941928  0.0  0.407538  0.000124  0.926465  0.0  0.294806  0.388984  0.000602  0.952698  0.001
H  H9  1  0.30068897  0.83708213  0.66401339  1  0.42777  -9e-05  0.872496  0.0  0.396425  0.000349  0.942028  0.0  0.40741  0.000122  0.926474  0.0  0.294885  0.388819  0.000602  0.952707  0.001
H  H10  1  0.72038030  0.05106167  0.85444444  1  0.116808  0.001459  0.95408  0.002  0.119506  0.001224  1.019716  0.002  0.123895  0.000885  1.014974  0.001  0.130734  0.116042  0.00156  1.023757  0.002
H  H11  1  0.69720404  0.86585303  0.64601032  1  0.116955  0.001436  0.953303  0.002  0.119531  0.001203  1.018932  0.002  0.123921  0.000872  1.014202  0.001  0.13074  0.116043  0.001563  1.023095  0.002
H  H12  1  0.27961619  0.94894073  0.14555547  1  0.116791  0.001458  0.954163  0.002  0.11944  0.001224  1.019832  0.002  0.123825  0.000886  1.015093  0.001  0.130723  0.115977  0.001561  1.023865  0.002
H  H13  1  0.30279280  0.13414782  0.35398778  1  0.11688  0.001436  0.953358  0.002  0.119448  0.001203  1.018999  0.002  0.123837  0.000872  1.014269  0.001  0.130714  0.115961  0.001563  1.023164  0.002
C  C14  1  0.12091138  0.33804537  0.68824443  1  0.067191  -0.002947  3.636088  -0.001  0.064284  -0.000286  3.88258  0.001  0.067493  -0.000878  3.895543  0.0  0.126836  0.06023  0.000764  3.876922  0.002
C  C15  1  0.14949180  0.43287611  0.81159960  1  0.069251  -0.003159  3.636265  -0.001  0.067252  -0.00046  3.881385  0.0  0.070483  -0.001013  3.894447  0.0  0.127864  0.063036  0.000753  3.87579  0.002
C  C16  1  0.87908829  0.66195699  0.31175630  1  0.067187  -0.002955  3.636308  -0.001  0.064348  -0.000287  3.882684  0.001  0.067554  -0.000878  3.895652  0.0  0.126879  0.060304  0.000764  3.87702  0.002
C  C17  1  0.85050745  0.56712628  0.18839909  1  0.069221  -0.00315  3.636109  -0.001  0.067246  -0.000459  3.881204  0.0  0.070465  -0.001014  3.894262  0.0  0.127839  0.063018  0.000754  3.875624  0.002
C  C18  1  0.82286965  0.02822744  0.69370515  1  0.131599  -0.00869  3.575828  -0.004  0.102961  -0.003457  3.828106  -0.001  0.111753  -0.003465  3.834818  -0.001  0.077365  0.095567  -0.003575  3.826362  0.0
C  C19  1  0.83466494  0.12916028  0.80649882  1  0.133117  -0.008937  3.576951  -0.004  0.103881  -0.003536  3.829143  -0.001  0.112693  -0.00353  3.83602  -0.001  0.077284  0.096652  -0.003623  3.827276  0.0
C  C20  1  0.17713287  0.97177959  0.30629815  1  0.131772  -0.0087  3.575637  -0.004  0.103153  -0.003458  3.827875  -0.001  0.111942  -0.003467  3.834589  -0.001  0.077427  0.09576  -0.003577  3.826138  0.0
C  C21  1  0.16533188  0.87083742  0.19349935  1  0.133057  -0.008926  3.577071  -0.004  0.103874  -0.003534  3.829284  -0.001  0.112684  -0.003529  3.836147  -0.001  0.07727  0.096641  -0.00362  3.827412  0.0
C  C22  1  0.22770324  0.44136842  0.58955400  1  0.609849  -0.004523  3.935321  -0.003  0.560031  0.00063  4.249106  0.001  0.595476  0.000214  4.241376  0.001  0.206085  0.535392  0.001227  4.253904  0.002
C  C23  1  0.35169642  0.63833653  0.91030822  1  0.609908  -0.004496  3.937171  -0.003  0.559832  0.000592  4.250748  0.001  0.595268  0.000199  4.24302  0.001  0.205997  0.535265  0.001235  4.255423  0.002
C  C24  1  0.77229291  0.55862139  0.41044517  1  0.609999  -0.004521  3.93539  -0.003  0.560165  0.000631  4.249143  0.001  0.595611  0.000214  4.241413  0.001  0.206164  0.535517  0.001227  4.253942  0.002
C  C25  1  0.64829732  0.36166587  0.08969292  1  0.61008  -0.004498  3.936917  -0.003  0.559979  0.000592  4.250528  0.001  0.595413  0.0002  4.242801  0.001  0.206113  0.535422  0.001234  4.255191  0.002
N  N26  1  0.96483902  0.13367329  0.63760189  1  -0.245691  0.041672  3.339144  0.068  -0.210421  0.028798  3.621086  0.047  -0.229332  0.023057  3.635265  0.04  -0.320543  -0.198577  0.033128  3.613305  0.051
N  N27  1  0.99605772  0.32735592  0.86244598  1  -0.248471  0.041938  3.342808  0.068  -0.212733  0.029065  3.623803  0.048  -0.231945  0.023248  3.638116  0.04  -0.320951  -0.200672  0.033184  3.616293  0.052
N  N28  1  0.03515762  0.86632278  0.36239919  1  -0.245855  0.041682  3.33935  0.068  -0.210628  0.028801  3.621314  0.047  -0.22954  0.02306  3.635495  0.04  -0.320633  -0.198788  0.033131  3.613543  0.052
N  N29  1  0.00394495  0.67264957  0.13755448  1  -0.248423  0.041936  3.34276  0.068  -0.21274  0.029065  3.623777  0.048  -0.23192  0.023248  3.638056  0.04  -0.320925  -0.200671  0.033185  3.616267  0.052
O  O30  1  0.21579930  0.31476325  0.50446874  1  -0.577252  0.055372  1.994437  0.094  -0.558973  0.035545  2.26215  0.062  -0.594997  0.025569  2.252067  0.048  -0.308548  -0.532169  0.045035  2.268229  0.074
O  O31  1  0.31039357  0.71145018  0.99555588  1  -0.578132  0.055167  1.994339  0.094  -0.559949  0.035445  2.262789  0.062  -0.596055  0.025529  2.25255  0.047  -0.308866  -0.532729  0.045102  2.268352  0.074
O  O32  1  0.78420172  0.68523117  0.49553545  1  -0.577362  0.05538  1.994301  0.094  -0.559099  0.035548  2.262036  0.062  -0.595127  0.025571  2.251952  0.048  -0.308644  -0.532286  0.045043  2.268109  0.074
O  O33  1  0.68961281  0.28855056  0.00444469  1  -0.578278  0.055189  1.993961  0.094  -0.56012  0.035454  2.26245  0.062  -0.596234  0.025535  2.252214  0.047  -0.308956  -0.532898  0.045117  2.268011  0.074
O  O34  1  0.30615122  0.63629504  0.58969466  1  -0.598708  0.005791  2.00203  0.01  -0.551897  0.004105  2.229715  0.007  -0.577956  0.002124  2.222253  0.004  -0.306301  -0.53278  0.006646  2.234253  0.01
O  O35  1  0.54652850  0.71662372  0.91008844  1  -0.598812  0.00568  2.003804  0.01  -0.551486  0.00403  2.23131  0.007  -0.577516  0.002082  2.223838  0.004  -0.306025  -0.532657  0.006653  2.235992  0.01
O  O36  1  0.69385077  0.36370735  0.41030280  1  -0.598693  0.00579  2.002282  0.01  -0.551884  0.004104  2.229977  0.007  -0.577941  0.002123  2.222518  0.004  -0.306273  -0.532769  0.006645  2.234514  0.01
O  O37  1  0.45348108  0.28338491  0.08990888  1  -0.598756  0.005679  2.004056  0.01  -0.551437  0.00403  2.231597  0.007  -0.577463  0.002082  2.224124  0.004  -0.306021  -0.532621  0.006653  2.236281  0.01
O  O38  1  0.20664916  0.37982798  0.17907224  1  -0.803268  0.035489  1.955018  0.061  -0.777413  0.028447  2.167575  0.049  -0.807208  0.021297  2.139735  0.039  -0.560121  -0.754325  0.035369  2.187213  0.057
O  O39  1  0.70065420  0.02756883  0.32094758  1  -0.802701  0.035434  1.955727  0.061  -0.776704  0.028381  2.168488  0.049  -0.806402  0.021246  2.140644  0.039  -0.560201  -0.753766  0.035324  2.187053  0.057
O  O40  1  0.79335390  0.62017432  0.82093034  1  -0.803324  0.035493  1.954951  0.061  -0.77747  0.028448  2.167493  0.049  -0.807266  0.021298  2.139653  0.039  -0.560148  -0.754373  0.035372  2.187169  0.057
O  O41  1  0.29934579  0.97242883  0.67905142  1  -0.802663  0.035435  1.95581  0.061  -0.776667  0.028382  2.168545  0.049  -0.806368  0.021247  2.140702  0.039  -0.560182  -0.753724  0.035326  2.187108  0.057
