# generated using pymatgen
data_UH16(C3O2)4
_symmetry_space_group_name_H-M   'P 1'
_cell_length_a   8.52126513
_cell_length_b   8.77612913
_cell_length_c   10.96344746
_cell_angle_alpha   79.31883319
_cell_angle_beta   85.76713523
_cell_angle_gamma   75.29208353
_symmetry_Int_Tables_number   1
_chemical_formula_structural   UH16(C3O2)4
_chemical_formula_sum   'U2 H32 C24 O16'
_cell_volume   778.97307234
_cell_formula_units_Z   2
loop_
 _symmetry_equiv_pos_site_id
 _symmetry_equiv_pos_as_xyz
  1  'x, y, z'
loop_
 _atom_site_type_symbol
 _atom_site_label
 _atom_site_symmetry_multiplicity
 _atom_site_fract_x
 _atom_site_fract_y
 _atom_site_fract_z
 _atom_site_occupancy
 _atom_site_hle17_bader_spin_density
 _atom_site_hle17_ddec_charge
 _atom_site_hle17_ddec_spin_density
 _atom_site_hle17_ddec_sum_bond_order
 _atom_site_hle17_magmom
 _atom_site_hse06_10hf_bader_spin_density
 _atom_site_hse06_10hf_ddec_charge
 _atom_site_hse06_10hf_ddec_spin_density
 _atom_site_hse06_10hf_ddec_sum_bond_order
 _atom_site_hse06_10hf_magmom
 _atom_site_hse06_bader_spin_density
 _atom_site_hse06_ddec_charge
 _atom_site_hse06_ddec_spin_density
 _atom_site_hse06_ddec_sum_bond_order
 _atom_site_hse06_magmom
 _atom_site_pbe_bader_spin_density
 _atom_site_pbe_cm5_charge
 _atom_site_pbe_ddec_charge
 _atom_site_pbe_ddec_spin_density
 _atom_site_pbe_ddec_sum_bond_order
 _atom_site_pbe_magmom
U  U0  1  0.39733050  0.73985356  0.01933561  1  0  2.495206  0  4.133424  0  0  2.558177  0  4.790877  0  0  2.670045  0  4.74963  0  0  2.225811  2.478349  0  4.821534  0
U  U1  1  0.60266602  0.26014468  0.98066009  1  0  2.495241  0  4.133281  0  0  2.558243  0  4.79064  0  0  2.670098  0  4.749409  0  0  2.225886  2.478483  0  4.82118  0
H  H2  1  0.89851762  0.57680044  0.05195294  1  0  0.402311  0  0.886811  0  0  0.367654  0  0.969093  0  0  0.380841  0  0.954612  0  0  0.314812  0.358505  0  0.978545  0
H  H3  1  0.10148407  0.42321082  0.94804332  1  0  0.40228  0  0.88689  0  0  0.367641  0  0.969149  0  0  0.380826  0  0.95464  0  0  0.314822  0.358493  0  0.978609  0
H  H4  1  0.39545171  0.14498597  0.43596165  1  0  0.075891  0  0.94485  0  0  0.094166  0  1.006414  0  0  0.094413  0  1.007281  0  0  0.094265  0.09402  0  1.005791  0
H  H5  1  0.60454017  0.85501223  0.56404164  1  0  0.075827  0  0.944845  0  0  0.094117  0  1.006412  0  0  0.094364  0  1.00728  0  0  0.094216  0.093967  0  1.005789  0
H  H6  1  0.50777944  0.16875739  0.29576011  1  0  0.094493  0  0.941871  0  0  0.107182  0  1.005982  0  0  0.109376  0  1.004595  0  0  0.105223  0.105639  0  1.007007  0
H  H7  1  0.49222541  0.83123586  0.70424582  1  0  0.094485  0  0.941965  0  0  0.107216  0  1.006032  0  0  0.10941  0  1.004645  0  0  0.10524  0.105674  0  1.007056  0
H  H8  1  0.05328417  0.06589132  0.24982966  1  0  0.111495  0  0.914549  0  0  0.128501  0  0.967525  0  0  0.130737  0  0.966382  0  0  0.10963  0.126906  0  0.968426  0
H  H9  1  0.94671244  0.93411647  0.75016376  1  0  0.111535  0  0.91454  0  0  0.128511  0  0.967555  0  0  0.130781  0  0.966372  0  0  0.10963  0.126906  0  0.968467  0
H  H10  1  0.08525427  0.06945207  0.40660141  1  0  0.075257  0  0.933332  0  0  0.094248  0  0.993219  0  0  0.094931  0  0.993443  0  0  0.091771  0.09375  0  0.993092  0
H  H11  1  0.91473938  0.93055336  0.59339344  1  0  0.075291  0  0.933267  0  0  0.094253  0  0.993203  0  0  0.094939  0  0.993431  0  0  0.091763  0.093757  0  0.993073  0
H  H12  1  0.06086317  0.51574646  0.35322611  1  0  0.098264  0  0.927824  0  0  0.113798  0  0.985795  0  0  0.116075  0  0.984623  0  0  0.100972  0.112243  0  0.98655  0
H  H13  1  0.93914086  0.48425516  0.64677776  1  0  0.09823  0  0.927844  0  0  0.113791  0  0.985789  0  0  0.116067  0  0.984617  0  0  0.100989  0.112234  0  0.986545  0
H  H14  1  0.11822856  0.33757892  0.46367020  1  0  0.086601  0  0.916133  0  0  0.106732  0  0.970744  0  0  0.107819  0  0.970931  0  0  0.098225  0.106032  0  0.970567  0
H  H15  1  0.88177481  0.66242038  0.53632949  1  0  0.086584  0  0.91613  0  0  0.106734  0  0.970716  0  0  0.107822  0  0.970899  0  0  0.098219  0.106035  0  0.970537  0
H  H16  1  0.32560693  0.56190051  0.41188813  1  0  0.107946  0  0.966574  0  0  0.127587  0  1.030081  0  0  0.128889  0  1.030757  0  0  0.093242  0.12657  0  1.029769  0
H  H17  1  0.67439818  0.43810121  0.58810654  1  0  0.108023  0  0.966559  0  0  0.12768  0  1.030036  0  0  0.128981  0  1.03071  0  0  0.093266  0.12666  0  1.029718  0
H  H18  1  0.51374574  0.42710368  0.38350446  1  0  0.115441  0  0.94752  0  0  0.13977  0  1.00223  0  0  0.140554  0  1.003589  0  0  0.097986  0.139198  0  1.001304  0
H  H19  1  0.48625787  0.57289448  0.61649081  1  0  0.115407  0  0.947646  0  0  0.139737  0  1.002341  0  0  0.140507  0  1.00372  0  0  0.097962  0.139166  0  1.001417  0
H  H20  1  0.38005426  0.36894448  0.50575892  1  0  0.106468  0  0.952242  0  0  0.128447  0  1.012492  0  0  0.129735  0  1.012616  0  0  0.09406  0.127548  0  1.012377  0
H  H21  1  0.61994822  0.63105846  0.49423666  1  0  0.10655  0  0.952083  0  0  0.128516  0  1.012345  0  0  0.129806  0  1.012465  0  0  0.094091  0.127606  0  1.012245  0
H  H22  1  0.29824445  0.82129751  0.33589422  1  0  0.112705  0  0.960417  0  0  0.129755  0  1.026825  0  0  0.131796  0  1.026189  0  0  0.098207  0.128243  0  1.027393  0
H  H23  1  0.70174185  0.17870434  0.66410798  1  0  0.112707  0  0.960468  0  0  0.129768  0  1.026871  0  0  0.131813  0  1.02623  0  0  0.098165  0.128258  0  1.027437  0
H  H24  1  0.33758585  0.90718444  0.46256514  1  0  0.103313  0  0.956223  0  0  0.12469  0  1.018575  0  0  0.125457  0  1.019481  0  0  0.09047  0.124136  0  1.017947  0
H  H25  1  0.66239753  0.09281982  0.53743781  1  0  0.103318  0  0.956247  0  0  0.124724  0  1.01857  0  0  0.125492  0  1.019476  0  0  0.090489  0.124168  0  1.017937  0
H  H26  1  0.49120525  0.86021800  0.34574861  1  0  0.115137  0  0.937263  0  0  0.137069  0  0.992484  0  0  0.13881  0  0.991852  0  0  0.097058  0.13583  0  0.992984  0
H  H27  1  0.50878253  0.13977781  0.65425983  1  0  0.115216  0  0.93711  0  0  0.137157  0  0.992326  0  0  0.1389  0  0.991694  0  0  0.097083  0.135919  0  0.992829  0
H  H28  1  0.78909857  0.44428686  0.34888159  1  0  0.115612  0  0.951713  0  0  0.134691  0  1.014396  0  0  0.136684  0  1.013457  0  0  0.094436  0.133294  0  1.015034  0
H  H29  1  0.21089951  0.55571007  0.65112241  1  0  0.115622  0  0.951592  0  0  0.134681  0  1.014304  0  0  0.136674  0  1.013365  0  0  0.094412  0.13329  0  1.014941  0
H  H30  1  0.86456853  0.26478361  0.45628996  1  0  0.093447  0  0.961768  0  0  0.113803  0  1.028522  0  0  0.115252  0  1.028429  0  0  0.08433  0.112651  0  1.028726  0
H  H31  1  0.13543687  0.73521210  0.54370920  1  0  0.09344  0  0.961741  0  0  0.113795  0  1.0285  0  0  0.115244  0  1.028407  0  0  0.084329  0.112646  0  1.028706  0
H  H32  1  0.78442843  0.25669306  0.31209893  1  0  0.115302  0  0.950315  0  0  0.136452  0  1.011121  0  0  0.13811  0  1.010484  0  0  0.094253  0.135272  0  1.011674  0
H  H33  1  0.21557494  0.74330623  0.68790076  1  0  0.115267  0  0.950376  0  0  0.136432  0  1.011144  0  0  0.13809  0  1.010504  0  0  0.094245  0.135259  0  1.011698  0
C  C34  1  0.30110765  0.36590800  0.32231074  1  0  0.051883  0  3.5689  0  0  0.076143  0  3.800409  0  0  0.071434  0  3.817429  0  0  -0.009588  0.07933  0  3.788893  0
C  C35  1  0.69889362  0.63409015  0.67768742  1  0  0.051837  0  3.568692  0  0  0.075975  0  3.800462  0  0  0.071283  0  3.817485  0  0  -0.009597  0.079156  0  3.788932  0
C  C36  1  0.38355258  0.18659662  0.33523159  1  0  -0.184562  0  3.60194  0  0  -0.230557  0  3.838098  0  0  -0.231044  0  3.852175  0  0  -0.156803  -0.230173  0  3.828523  0
C  C37  1  0.61644021  0.81340275  0.66477330  1  0  -0.184515  0  3.601813  0  0  -0.23052  0  3.838026  0  0  -0.231005  0  3.852093  0  0  -0.156822  -0.230124  0  3.828446  0
C  C38  1  0.29590622  0.07561001  0.28871758  1  0  0.048354  0  3.548491  0  0  0.0698  0  3.781696  0  0  0.064131  0  3.799016  0  0  -0.007741  0.073753  0  3.769934  0
C  C39  1  0.70409097  0.92439055  0.71128231  1  0  0.048359  0  3.54854  0  0  0.069869  0  3.781829  0  0  0.064234  0  3.799175  0  0  -0.00775  0.073782  0  3.770035  0
C  C40  1  0.11019753  0.12239819  0.31012404  1  0  -0.184007  0  3.595274  0  0  -0.232944  0  3.836009  0  0  -0.233868  0  3.85039  0  0  -0.15459  -0.232143  0  3.826014  0
C  C41  1  0.88980055  0.87760838  0.68987038  1  0  -0.184039  0  3.595169  0  0  -0.232954  0  3.835985  0  0  -0.233921  0  3.850388  0  0  -0.154547  -0.232136  0  3.82598  0
C  C42  1  0.02516778  0.30142251  0.29717350  1  0  0.043361  0  3.600156  0  0  0.068674  0  3.836097  0  0  0.063617  0  3.854918  0  0  -0.014436  0.072101  0  3.823102  0
C  C43  1  0.97483154  0.69858398  0.70282633  1  0  0.043349  0  3.600167  0  0  0.068606  0  3.836182  0  0  0.063543  0  3.855017  0  0  -0.014411  0.072034  0  3.823196  0
C  C44  1  0.12150702  0.38784268  0.36385184  1  0  -0.188942  0  3.599687  0  0  -0.235963  0  3.839144  0  0  -0.237567  0  3.853395  0  0  -0.152127  -0.234716  0  3.829247  0
C  C45  1  0.87849342  0.61215904  0.63614768  1  0  -0.188851  0  3.59958  0  0  -0.235864  0  3.839094  0  0  -0.237461  0  3.853337  0  0  -0.15211  -0.234611  0  3.829191  0
C  C46  1  0.32001611  0.47136286  0.19674814  1  0  0.673652  0  3.740257  0  0  0.641816  0  4.038097  0  0  0.679794  0  4.028445  0  0  0.235641  0.615518  0  4.043688  0
C  C47  1  0.67998888  0.52862455  0.80324858  1  0  0.673707  0  3.740057  0  0  0.641913  0  4.03787  0  0  0.679837  0  4.028292  0  0  0.235615  0.615633  0  4.043442  0
C  C48  1  0.38579447  0.43600804  0.41117243  1  0  -0.323763  0  3.631374  0  0  -0.406045  0  3.869068  0  0  -0.408883  0  3.880836  0  0  -0.232515  -0.403832  0  3.860975  0
C  C49  1  0.61420978  0.56399246  0.58882521  1  0  -0.323874  0  3.631443  0  0  -0.406125  0  3.869164  0  0  -0.408955  0  3.880939  0  0  -0.232518  -0.403907  0  3.861083  0
C  C50  1  0.34667192  0.05129435  0.15557894  1  0  0.723545  0  3.71202  0  0  0.692157  0  4.009598  0  0  0.733118  0  3.996045  0  0  0.265197  0.663355  0  4.018426  0
C  C51  1  0.65333466  0.94870133  0.84442106  1  0  0.723595  0  3.712171  0  0  0.692047  0  4.010012  0  0  0.732883  0  3.996693  0  0  0.26524  0.663383  0  4.018624  0
C  C52  1  0.36027511  0.90464545  0.36300122  1  0  -0.336825  0  3.650532  0  0  -0.420844  0  3.897059  0  0  -0.423328  0  3.90771  0  0  -0.23411  -0.418902  0  3.889637  0
C  C53  1  0.63971532  0.09535395  0.63700290  1  0  -0.336919  0  3.650646  0  0  -0.42098  0  3.897131  0  0  -0.423465  0  3.907772  0  0  -0.234095  -0.419039  0  3.889714  0
C  C54  1  0.01317331  0.38457521  0.16231490  1  0  0.666533  0  3.699761  0  0  0.613487  0  3.999548  0  0  0.646189  0  3.991899  0  0  0.252552  0.591244  0  4.004313  0
C  C55  1  0.98682398  0.61543487  0.83768545  1  0  0.666709  0  3.699578  0  0  0.613754  0  3.999253  0  0  0.646459  0  3.991596  0  0  0.252681  0.591494  0  4.004046  0
C  C56  1  0.85465303  0.31823568  0.35746179  1  0  -0.32898  0  3.673924  0  0  -0.417771  0  3.924068  0  0  -0.419952  0  3.934282  0  0  -0.241509  -0.415986  0  3.917012  0
C  C57  1  0.14534596  0.68176722  0.64253948  1  0  -0.328964  0  3.673914  0  0  -0.417725  0  3.924048  0  0  -0.419906  0  3.934264  0  0  -0.241464  -0.415947  0  3.917002  0
O  O58  1  0.23561940  0.77764230  0.91190104  1  0  -0.694591  0  1.511553  0  0  -0.706792  0  1.784074  0  0  -0.727712  0  1.768157  0  0  -0.757806  -0.694159  0  1.796013  0
O  O59  1  0.76441034  0.22234486  0.08809145  1  0  -0.69463  0  1.511071  0  0  -0.706869  0  1.783559  0  0  -0.727793  0  1.767648  0  0  -0.757761  -0.69424  0  1.795467  0
O  O60  1  0.55394670  0.70170140  0.13048612  1  0  -0.671645  0  1.529362  0  0  -0.678616  0  1.798355  0  0  -0.699455  0  1.785577  0  0  -0.756505  -0.666292  0  1.808158  0
O  O61  1  0.44604861  0.29829775  0.86953324  1  0  -0.671649  0  1.529739  0  0  -0.678587  0  1.798716  0  0  -0.699395  0  1.785892  0  0  -0.756612  -0.666287  0  1.808523  0
O  O62  1  0.23566347  0.61543361  0.18041254  1  0  -0.614343  0  1.959409  0  0  -0.601121  0  2.20702  0  0  -0.633094  0  2.201405  0  0  -0.34081  -0.577965  0  2.209836  0
O  O63  1  0.76432748  0.38455296  0.81956965  1  0  -0.614386  0  1.959362  0  0  -0.601152  0  2.206941  0  0  -0.633103  0  2.201355  0  0  -0.340842  -0.578016  0  2.209746  0
O  O64  1  0.42946225  0.42932374  0.11355006  1  0  -0.74683  0  2.143584  0  0  -0.740298  0  2.439083  0  0  -0.778691  0  2.436298  0  0  -0.378922  -0.712009  0  2.439463  0
O  O65  1  0.57056177  0.57066326  0.88646104  1  0  -0.746798  0  2.143527  0  0  -0.740301  0  2.439059  0  0  -0.778697  0  2.436334  0  0  -0.378884  -0.712014  0  2.439434  0
O  O66  1  0.47131731  0.09640425  0.10728627  1  0  -0.664246  0  2.155196  0  0  -0.661876  0  2.446871  0  0  -0.700226  0  2.439439  0  0  -0.381987  -0.633592  0  2.450649  0
O  O67  1  0.52869397  0.90358175  0.89272121  1  0  -0.664265  0  2.155209  0  0  -0.661902  0  2.447072  0  0  -0.700209  0  2.439699  0  0  -0.382072  -0.633652  0  2.45079  0
O  O68  1  0.27832640  0.96691931  0.10433123  1  0  -0.628907  0  2.017096  0  0  -0.621373  0  2.27934  0  0  -0.657665  0  2.270633  0  0  -0.35881  -0.594712  0  2.284251  0
O  O69  1  0.72167664  0.03307641  0.89566898  1  0  -0.628925  0  2.017164  0  0  -0.621338  0  2.279495  0  0  -0.657588  0  2.270862  0  0  -0.358803  -0.594736  0  2.284329  0
O  O70  1  0.89940878  0.51767967  0.14313961  1  0  -0.51419  0  2.126156  0  0  -0.460669  0  2.346053  0  0  -0.483113  0  2.330972  0  0  -0.302132  -0.44506  0  2.355534  0
O  O71  1  0.10058557  0.48232802  0.85686400  1  0  -0.514315  0  2.126214  0  0  -0.460863  0  2.346124  0  0  -0.48331  0  2.331011  0  0  -0.302275  -0.445239  0  2.355618  0
O  O72  1  0.11169875  0.33172813  0.08088306  1  0  -0.550403  0  2.00772  0  0  -0.489945  0  2.214612  0  0  -0.513222  0  2.206349  0  0  -0.257756  -0.473994  0  2.21989  0
O  O73  1  0.88830061  0.66828313  0.91911609  1  0  -0.550434  0  2.007648  0  0  -0.489964  0  2.214478  0  0  -0.513232  0  2.206206  0  0  -0.257775  -0.474007  0  2.219764  0
