# generated using pymatgen
data_CdH13C19NCl2O5
_symmetry_space_group_name_H-M   'P 1'
_cell_length_a   7.50755677
_cell_length_b   9.73687593
_cell_length_c   14.34938268
_cell_angle_alpha   109.82417956
_cell_angle_beta   90.00024812
_cell_angle_gamma   90.00003839
_symmetry_Int_Tables_number   1
_chemical_formula_structural   CdH13C19NCl2O5
_chemical_formula_sum   'Cd2 H26 C38 N2 Cl4 O10'
_cell_volume   986.77932801
_cell_formula_units_Z   2
loop_
 _symmetry_equiv_pos_site_id
 _symmetry_equiv_pos_as_xyz
  1  'x, y, z'
loop_
 _atom_site_type_symbol
 _atom_site_label
 _atom_site_symmetry_multiplicity
 _atom_site_fract_x
 _atom_site_fract_y
 _atom_site_fract_z
 _atom_site_occupancy
 _atom_site_hle17_bader_spin_density
 _atom_site_hle17_ddec_charge
 _atom_site_hle17_ddec_spin_density
 _atom_site_hle17_ddec_sum_bond_order
 _atom_site_hle17_magmom
 _atom_site_hse06_10hf_bader_spin_density
 _atom_site_hse06_10hf_ddec_charge
 _atom_site_hse06_10hf_ddec_spin_density
 _atom_site_hse06_10hf_ddec_sum_bond_order
 _atom_site_hse06_10hf_magmom
 _atom_site_hse06_bader_spin_density
 _atom_site_hse06_ddec_charge
 _atom_site_hse06_ddec_spin_density
 _atom_site_hse06_ddec_sum_bond_order
 _atom_site_hse06_magmom
 _atom_site_pbe_bader_spin_density
 _atom_site_pbe_cm5_charge
 _atom_site_pbe_ddec_charge
 _atom_site_pbe_ddec_spin_density
 _atom_site_pbe_ddec_sum_bond_order
 _atom_site_pbe_magmom
Cd  Cd0  1  0.49999911  0.50000114  0.00000025  1  0  1.270412  0  1.728467  0  0  1.099644  0  2.214662  0  0  1.155666  0  2.147811  0  0  0.775555  1.06054  0  2.260673  0
Cd  Cd1  1  0.00000022  0.50000068  0.99999959  1  0  1.270468  0  1.728352  0  0  1.099685  0  2.214564  0  0  1.155712  0  2.147706  0  0  0.775615  1.060582  0  2.260561  0
H  H2  1  0.03504804  0.60177548  0.72656767  1  0  0.096045  0  0.957722  0  0  0.104764  0  1.020937  0  0  0.108331  0  1.017944  0  0  0.099715  0.1022  0  1.023135  0
H  H3  1  0.53504757  0.39821548  0.27342994  1  0  0.096052  0  0.957778  0  0  0.104764  0  1.021002  0  0  0.108331  0  1.018008  0  0  0.099726  0.102198  0  1.023202  0
H  H4  1  0.96491359  0.12521933  0.72634133  1  0  0.096878  0  0.95663  0  0  0.105254  0  1.020232  0  0  0.108792  0  1.017293  0  0  0.10019  0.102679  0  1.022451  0
H  H5  1  0.46492644  0.87478005  0.27365429  1  0  0.096885  0  0.956691  0  0  0.105305  0  1.020238  0  0  0.108841  0  1.017305  0  0  0.100218  0.102733  0  1.022465  0
H  H6  1  0.96495042  0.39822024  0.27343151  1  0  0.096011  0  0.957769  0  0  0.10473  0  1.020991  0  0  0.108297  0  1.017995  0  0  0.099706  0.102167  0  1.023191  0
H  H7  1  0.46494955  0.60177805  0.72656874  1  0  0.096041  0  0.957745  0  0  0.104762  0  1.020963  0  0  0.10833  0  1.017968  0  0  0.099722  0.102199  0  1.02316  0
H  H8  1  0.03508753  0.87478076  0.27365816  1  0  0.096911  0  0.956581  0  0  0.105282  0  1.020189  0  0  0.10882  0  1.017252  0  0  0.100219  0.102707  0  1.022412  0
H  H9  1  0.53507335  0.12521894  0.72634355  1  0  0.096862  0  0.956702  0  0  0.105281  0  1.020253  0  0  0.108817  0  1.017318  0  0  0.100213  0.102705  0  1.022474  0
H  H10  1  0.03688817  0.64148026  0.56253313  1  0  0.103768  0  0.967881  0  0  0.110859  0  1.034607  0  0  0.113867  0  1.033723  0  0  0.094622  0.108675  0  1.035386  0
H  H11  1  0.53688773  0.35850961  0.43746354  1  0  0.103809  0  0.967798  0  0  0.11083  0  1.034581  0  0  0.113848  0  1.033688  0  0  0.094603  0.108648  0  1.03536  0
H  H12  1  0.96309108  0.92129627  0.56244401  1  0  0.104045  0  0.96737  0  0  0.110952  0  1.034227  0  0  0.113868  0  1.033486  0  0  0.094657  0.108759  0  1.034989  0
H  H13  1  0.46309795  0.07870202  0.43755274  1  0  0.103989  0  0.96725  0  0  0.110861  0  1.034181  0  0  0.113776  0  1.033435  0  0  0.0946  0.108671  0  1.034933  0
H  H14  1  0.96311028  0.35851654  0.43746630  1  0  0.103763  0  0.967833  0  0  0.110846  0  1.034575  0  0  0.113863  0  1.033682  0  0  0.094615  0.108664  0  1.035354  0
H  H15  1  0.46310939  0.64148939  0.56253709  1  0  0.10377  0  0.967807  0  0  0.110806  0  1.034579  0  0  0.113824  0  1.033685  0  0  0.094606  0.108625  0  1.035356  0
H  H16  1  0.03690604  0.07870491  0.43755712  1  0  0.103995  0  0.967373  0  0  0.110903  0  1.034236  0  0  0.113824  0  1.03348  0  0  0.094636  0.108708  0  1.035001  0
H  H17  1  0.53689917  0.92129479  0.56244669  1  0  0.103983  0  0.967201  0  0  0.110856  0  1.034131  0  0  0.113763  0  1.033408  0  0  0.094596  0.108662  0  1.034888  0
H  H18  1  0.74999865  0.14985177  0.84779269  1  0  0.12226  0  0.920679  0  0  0.13127  0  0.980493  0  0  0.134858  0  0.97594  0  0  0.138391  0.128479  0  0.984014  0
H  H19  1  0.25000646  0.85015159  0.15220825  1  0  0.122254  0  0.920664  0  0  0.131307  0  0.98042  0  0  0.134894  0  0.975869  0  0  0.138411  0.128519  0  0.983946  0
H  H20  1  0.25000535  0.69792883  0.84803246  1  0  0.123006  0  0.922084  0  0  0.133089  0  0.980522  0  0  0.136585  0  0.97604  0  0  0.139186  0.130352  0  0.983981  0
H  H21  1  0.74999577  0.30207890  0.15196948  1  0  0.122911  0  0.922084  0  0  0.133007  0  0.980541  0  0  0.136501  0  0.976063  0  0  0.139139  0.130273  0  0.98399  0
H  H22  1  0.74999895  0.88457732  0.83975474  1  0  0.110923  0  0.957506  0  0  0.121159  0  1.012206  0  0  0.123256  0  1.013736  0  0  0.111244  0.119517  0  1.011426  0
H  H23  1  0.25001016  0.11542495  0.16024595  1  0  0.110942  0  0.957506  0  0  0.121225  0  1.012154  0  0  0.123323  0  1.013681  0  0  0.111247  0.119586  0  1.011372  0
H  H24  1  0.25000676  0.95505627  0.83981366  1  0  0.111781  0  0.955767  0  0  0.121903  0  1.010627  0  0  0.124014  0  1.012145  0  0  0.111153  0.120254  0  1.009847  0
H  H25  1  0.74999836  0.04494818  0.16018892  1  0  0.111804  0  0.955735  0  0  0.121922  0  1.010593  0  0  0.124033  0  1.012108  0  0  0.111148  0.120271  0  1.009822  0
H  H26  1  0.74999803  0.83236352  0.00004695  1  0  0.116493  0  0.953769  0  0  0.121694  0  1.020244  0  0  0.125183  0  1.017224  0  0  0.111686  0.119426  0  1.021895  0
H  H27  1  0.25000842  0.16764203  0.99995588  1  0  0.116454  0  0.953757  0  0  0.121662  0  1.020244  0  0  0.125149  0  1.017225  0  0  0.111666  0.119399  0  1.021888  0
C  C28  1  0.75001212  0.58329649  0.83715556  1  0  0.660554  0  3.92725  0  0  0.613949  0  4.216903  0  0  0.648919  0  4.209521  0  0  0.20456  0.590215  0  4.221319  0
C  C29  1  0.24998633  0.41669923  0.16284292  1  0  0.660601  0  3.927214  0  0  0.614047  0  4.216771  0  0  0.649021  0  4.209403  0  0  0.204595  0.590313  0  4.22119  0
C  C30  1  0.24999178  0.25401913  0.83704258  1  0  0.66314  0  3.926131  0  0  0.616514  0  4.215479  0  0  0.651519  0  4.208077  0  0  0.205732  0.592782  0  4.219859  0
C  C31  1  0.75000934  0.74598314  0.16295671  1  0  0.663166  0  3.926074  0  0  0.616544  0  4.215411  0  0  0.65155  0  4.20801  0  0  0.205766  0.592819  0  4.21978  0
C  C32  1  0.75000105  0.60358951  0.73753171  1  0  -0.075717  0  3.751839  0  0  -0.053694  0  3.982914  0  0  -0.061047  0  4.00445  0  0  -0.027789  -0.04897  0  3.968412  0
C  C33  1  0.24999740  0.39640511  0.26246722  1  0  -0.07569  0  3.751895  0  0  -0.053634  0  3.982884  0  0  -0.061029  0  4.004476  0  0  -0.027806  -0.048912  0  3.968385  0
C  C34  1  0.24998997  0.13442837  0.73730175  1  0  -0.075913  0  3.751555  0  0  -0.052899  0  3.981334  0  0  -0.060376  0  4.002987  0  0  -0.025897  -0.048102  0  3.966749  0
C  C35  1  0.75000848  0.86557281  0.26269729  1  0  -0.075866  0  3.751508  0  0  -0.052845  0  3.981285  0  0  -0.060322  0  4.002941  0  0  -0.02585  -0.048052  0  3.966703  0
C  C36  1  0.91091073  0.61335005  0.69071964  1  0  -0.056378  0  3.750408  0  0  -0.07992  0  4.000409  0  0  -0.078938  0  4.019532  0  0  -0.086901  -0.080308  0  3.98724  0
C  C37  1  0.41091013  0.38664268  0.30927921  1  0  -0.05638  0  3.750623  0  0  -0.079947  0  4.000595  0  0  -0.078952  0  4.019731  0  0  -0.086883  -0.08033  0  3.987427  0
C  C38  1  0.08907188  0.07787399  0.69047635  1  0  -0.058093  0  3.750243  0  0  -0.081802  0  4.000811  0  0  -0.080756  0  4.019919  0  0  -0.088999  -0.082236  0  3.987686  0
C  C39  1  0.58908019  0.92212689  0.30952157  1  0  -0.058177  0  3.750275  0  0  -0.081939  0  4.000855  0  0  -0.080894  0  4.019961  0  0  -0.088964  -0.08238  0  3.987743  0
C  C40  1  0.08908772  0.38664458  0.30927998  1  0  -0.056325  0  3.750526  0  0  -0.079882  0  4.000505  0  0  -0.078887  0  4.019641  0  0  -0.086861  -0.080273  0  3.987345  0
C  C41  1  0.58908832  0.61335085  0.69072017  1  0  -0.0564  0  3.750496  0  0  -0.079963  0  4.000496  0  0  -0.07898  0  4.019619  0  0  -0.086893  -0.080345  0  3.987327  0
C  C42  1  0.91092924  0.92212828  0.30952294  1  0  -0.058176  0  3.750204  0  0  -0.08189  0  4.000792  0  0  -0.080848  0  4.019905  0  0  -0.089072  -0.082319  0  3.987663  0
C  C43  1  0.41091827  0.07787428  0.69047817  1  0  -0.058153  0  3.750206  0  0  -0.081908  0  4.000784  0  0  -0.080862  0  4.019889  0  0  -0.088939  -0.08234  0  3.987657  0
C  C44  1  0.91233958  0.63504288  0.59966838  1  0  -0.147537  0  3.784067  0  0  -0.168373  0  4.037838  0  0  -0.172909  0  4.059956  0  0  -0.104165  -0.165178  0  4.022805  0
C  C45  1  0.41233707  0.36495095  0.40032863  1  0  -0.14763  0  3.784151  0  0  -0.168377  0  4.037906  0  0  -0.172923  0  4.060023  0  0  -0.104181  -0.165189  0  4.022877  0
C  C46  1  0.08764933  0.96509134  0.59948931  1  0  -0.147311  0  3.78378  0  0  -0.167749  0  4.0375  0  0  -0.172254  0  4.059608  0  0  -0.103494  -0.164539  0  4.022525  0
C  C47  1  0.58766160  0.03490517  0.40050691  1  0  -0.147138  0  3.783785  0  0  -0.167539  0  4.037517  0  0  -0.172037  0  4.059628  0  0  -0.103466  -0.164328  0  4.02254  0
C  C48  1  0.08765887  0.36495284  0.40033010  1  0  -0.14754  0  3.784191  0  0  -0.168373  0  4.037965  0  0  -0.172913  0  4.060073  0  0  -0.104151  -0.165182  0  4.022935  0
C  C49  1  0.58766139  0.63504805  0.59967130  1  0  -0.147413  0  3.784121  0  0  -0.168167  0  4.03787  0  0  -0.172711  0  4.059983  0  0  -0.104084  -0.16498  0  4.022843  0
C  C50  1  0.91234913  0.03490874  0.40051088  1  0  -0.147266  0  3.783656  0  0  -0.167702  0  4.037371  0  0  -0.172203  0  4.059483  0  0  -0.103463  -0.164488  0  4.022393  0
C  C51  1  0.41233685  0.96509164  0.59949113  1  0  -0.147122  0  3.783687  0  0  -0.167531  0  4.037434  0  0  -0.172033  0  4.059541  0  0  -0.103504  -0.16432  0  4.022461  0
C  C52  1  0.74999630  0.64645299  0.55506191  1  0  0.132592  0  3.794752  0  0  0.145159  0  4.057124  0  0  0.148999  0  4.078552  0  0  0.010119  0.142377  0  4.042724  0
C  C53  1  0.24999949  0.35354491  0.44493847  1  0  0.132753  0  3.794706  0  0  0.145325  0  4.057055  0  0  0.149162  0  4.07849  0  0  0.010209  0.142551  0  4.042643  0
C  C54  1  0.24999754  0.90901287  0.55492274  1  0  0.132635  0  3.795534  0  0  0.144981  0  4.058113  0  0  0.148888  0  4.079426  0  0  0.009419  0.142158  0  4.04375  0
C  C55  1  0.74999825  0.09098721  0.44507674  1  0  0.132673  0  3.79537  0  0  0.145017  0  4.057955  0  0  0.148923  0  4.079265  0  0  0.009419  0.142193  0  4.04359  0
C  C56  1  0.74999758  0.11548266  0.91224430  1  0  0.035052  0  3.569215  0  0  -0.008713  0  3.827782  0  0  -0.000508  0  3.839537  0  0  0.055934  -0.013846  0  3.820004  0
C  C57  1  0.25000487  0.88451633  0.08775703  1  0  0.035002  0  3.569013  0  0  -0.008789  0  3.827609  0  0  -0.000584  0  3.839361  0  0  0.055975  -0.013926  0  3.819841  0
C  C58  1  0.25000833  0.79671816  0.91241603  1  0  0.032488  0  3.570528  0  0  -0.012459  0  3.829879  0  0  -0.004177  0  3.841683  0  0  0.054536  -0.017657  0  3.822101  0
C  C59  1  0.74999679  0.20328083  0.08758390  1  0  0.032659  0  3.570728  0  0  -0.01235  0  3.830113  0  0  -0.004069  0  3.841923  0  0  0.054544  -0.017544  0  3.822336  0
C  C60  1  0.74999663  0.97274908  0.91097368  1  0  -0.096963  0  3.747561  0  0  -0.104792  0  3.997913  0  0  -0.112248  0  4.019814  0  0  -0.073937  -0.100139  0  3.983545  0
C  C61  1  0.25000849  0.02725865  0.08902965  1  0  -0.096989  0  3.747252  0  0  -0.104864  0  3.997635  0  0  -0.11232  0  4.01953  0  0  -0.073962  -0.100211  0  3.983261  0
C  C62  1  0.25000705  0.93819992  0.91105587  1  0  -0.09724  0  3.744533  0  0  -0.10496  0  3.995216  0  0  -0.11243  0  4.017075  0  0  -0.073868  -0.100297  0  3.980875  0
C  C63  1  0.74999806  0.06180999  0.08894796  1  0  -0.097262  0  3.744536  0  0  -0.104953  0  3.995204  0  0  -0.112418  0  4.017067  0  0  -0.07384  -0.100289  0  3.980869  0
C  C64  1  0.74999832  0.94413522  0.99998657  1  0  -0.010144  0  3.683586  0  0  -0.039301  0  3.942087  0  0  -0.033843  0  3.958979  0  0  -0.067969  -0.04293  0  3.930401  0
C  C65  1  0.25000546  0.05586595  0.00001386  1  0  -0.010111  0  3.683598  0  0  -0.039268  0  3.942103  0  0  -0.033806  0  3.958984  0  0  -0.067981  -0.042898  0  3.930414  0
N  N66  1  0.74999667  0.22747633  0.99986567  1  0  0.296207  0  3.669933  0  0  0.347021  0  3.927707  0  0  0.345841  0  3.949138  0  0  -0.109069  0.347154  0  3.913465  0
N  N67  1  0.25000578  0.77253031  0.00013741  1  0  0.296388  0  3.669762  0  0  0.347165  0  3.927527  0  0  0.345987  0  3.948956  0  0  -0.109076  0.3473  0  3.913289  0
Cl  Cl68  1  0.74999717  0.67494828  0.44206814  1  0  -0.085974  0  1.365618  0  0  -0.064454  0  1.592699  0  0  -0.069401  0  1.590464  0  0  0.01803  -0.060672  0  1.594552  0
Cl  Cl69  1  0.25000262  0.32505399  0.55793324  1  0  -0.086008  0  1.365636  0  0  -0.064492  0  1.592726  0  0  -0.069442  0  1.590491  0  0  0.018006  -0.060713  0  1.594576  0
Cl  Cl70  1  0.25000099  0.76715666  0.44212718  1  0  -0.085792  0  1.364615  0  0  -0.064167  0  1.5918  0  0  -0.069129  0  1.58952  0  0  0.018224  -0.060445  0  1.593702  0
Cl  Cl71  1  0.74999746  0.23284233  0.55787136  1  0  -0.08579  0  1.364626  0  0  -0.064166  0  1.591819  0  0  -0.069129  0  1.589539  0  0  0.018229  -0.060442  0  1.59372  0
O  O72  1  0.59829448  0.57750642  0.87507455  1  0  -0.663619  0  2.03384  0  0  -0.603935  0  2.294572  0  0  -0.632891  0  2.281841  0  0  -0.33464  -0.583706  0  2.302511  0
O  O73  1  0.09828835  0.42248575  0.12492766  1  0  -0.663471  0  2.034265  0  0  -0.603843  0  2.295002  0  0  -0.632785  0  2.282261  0  0  -0.334563  -0.58362  0  2.302945  0
O  O74  1  0.40169378  0.29756647  0.87501894  1  0  -0.664997  0  2.033802  0  0  -0.605379  0  2.294366  0  0  -0.634315  0  2.281592  0  0  -0.335275  -0.585162  0  2.302328  0
O  O75  1  0.90171231  0.70243826  0.12498056  1  0  -0.664999  0  2.034089  0  0  -0.605375  0  2.294636  0  0  -0.634317  0  2.281863  0  0  -0.335265  -0.585161  0  2.302591  0
O  O76  1  0.40170397  0.42249257  0.12492469  1  0  -0.663657  0  2.03378  0  0  -0.604008  0  2.294502  0  0  -0.632956  0  2.281769  0  0  -0.33465  -0.583779  0  2.302445  0
O  O77  1  0.90171010  0.57750996  0.87507082  1  0  -0.663461  0  2.034312  0  0  -0.603799  0  2.295056  0  0  -0.632746  0  2.282319  0  0  -0.334557  -0.583575  0  2.302996  0
O  O78  1  0.59830468  0.70243907  0.12497901  1  0  -0.665012  0  2.033775  0  0  -0.605409  0  2.294352  0  0  -0.634345  0  2.281578  0  0  -0.335334  -0.585193  0  2.302312  0
O  O79  1  0.09828881  0.29756183  0.87501963  1  0  -0.664963  0  2.034127  0  0  -0.605348  0  2.294688  0  0  -0.63429  0  2.281915  0  0  -0.335268  -0.585131  0  2.302645  0
O  O80  1  0.74999673  0.36362298  0.99979790  1  0  -0.605854  0  1.969977  0  0  -0.540669  0  2.252881  0  0  -0.566551  0  2.24139  0  0  -0.256884  -0.522954  0  2.261137  0
O  O81  1  0.25000173  0.63638038  0.00020234  1  0  -0.605894  0  1.969842  0  0  -0.540715  0  2.252814  0  0  -0.566603  0  2.241326  0  0  -0.256882  -0.522998  0  2.261076  0
