# generated using pymatgen
data_CuH5C6S(N2O)2
_symmetry_space_group_name_H-M   'P 1'
_cell_length_a   5.85396369
_cell_length_b   10.68200857
_cell_length_c   14.02331290
_cell_angle_alpha   90.00082248
_cell_angle_beta   89.99980091
_cell_angle_gamma   104.12732402
_symmetry_Int_Tables_number   1
_chemical_formula_structural   CuH5C6S(N2O)2
_chemical_formula_sum   'Cu4 H20 C24 S4 N16 O8'
_cell_volume   850.38565079
_cell_formula_units_Z   4
loop_
 _symmetry_equiv_pos_site_id
 _symmetry_equiv_pos_as_xyz
  1  'x, y, z'
loop_
 _atom_site_type_symbol
 _atom_site_label
 _atom_site_symmetry_multiplicity
 _atom_site_fract_x
 _atom_site_fract_y
 _atom_site_fract_z
 _atom_site_occupancy
 _atom_site_hle17_bader_spin_density
 _atom_site_hle17_ddec_charge
 _atom_site_hle17_ddec_spin_density
 _atom_site_hle17_ddec_sum_bond_order
 _atom_site_hle17_magmom
 _atom_site_hse06_10hf_bader_spin_density
 _atom_site_hse06_10hf_ddec_charge
 _atom_site_hse06_10hf_ddec_spin_density
 _atom_site_hse06_10hf_ddec_sum_bond_order
 _atom_site_hse06_10hf_magmom
 _atom_site_hse06_bader_spin_density
 _atom_site_hse06_ddec_charge
 _atom_site_hse06_ddec_spin_density
 _atom_site_hse06_ddec_sum_bond_order
 _atom_site_hse06_magmom
 _atom_site_pbe_bader_spin_density
 _atom_site_pbe_cm5_charge
 _atom_site_pbe_ddec_charge
 _atom_site_pbe_ddec_spin_density
 _atom_site_pbe_ddec_sum_bond_order
 _atom_site_pbe_magmom
Cu  Cu0  1  0.86137391  0.43430129  0.43035790  1  0  0.389706  0  2.216044  0  0  0.303296  0  2.719495  0  0  0.299009  0  2.67607  0  0  0.478167  0.30889  0  2.746966  0
Cu  Cu1  1  0.63863701  0.06570915  0.93035632  1  0  0.389777  0  2.21583  0  0  0.303349  0  2.719231  0  0  0.299085  0  2.675803  0  0  0.478146  0.308941  0  2.746718  0
Cu  Cu2  1  0.13863440  0.56570231  0.56964369  1  0  0.389727  0  2.215898  0  0  0.30333  0  2.719346  0  0  0.299101  0  2.675934  0  0  0.478186  0.308932  0  2.746891  0
Cu  Cu3  1  0.36136097  0.93430903  0.06964741  1  0  0.389745  0  2.216188  0  0  0.303301  0  2.719613  0  0  0.299034  0  2.676188  0  0  0.478199  0.308894  0  2.747113  0
H  H4  1  0.58755411  0.30421354  0.30825074  1  0  0.337054  0  0.896144  0  0  0.313417  0  0.972527  0  0  0.32223  0  0.963717  0  0  0.300767  0.307142  0  0.978796  0
H  H5  1  0.91245452  0.19579363  0.80824087  1  0  0.337172  0  0.89608  0  0  0.31352  0  0.972461  0  0  0.322331  0  0.963652  0  0  0.300846  0.307251  0  0.978711  0
H  H6  1  0.41245339  0.69579201  0.69175869  1  0  0.337217  0  0.896002  0  0  0.313575  0  0.972369  0  0  0.322386  0  0.96356  0  0  0.300834  0.307304  0  0.978629  0
H  H7  1  0.08754669  0.80421679  0.19175430  1  0  0.337104  0  0.896146  0  0  0.313457  0  0.972544  0  0  0.322272  0  0.963732  0  0  0.300804  0.307188  0  0.978806  0
H  H8  1  0.54883905  0.26008318  0.18863900  1  0  0.330586  0  0.916127  0  0  0.311949  0  0.983376  0  0  0.317602  0  0.980877  0  0  0.294781  0.308016  0  0.985022  0
H  H9  1  0.95117278  0.23991782  0.68862741  1  0  0.330542  0  0.916062  0  0  0.311924  0  0.983305  0  0  0.317578  0  0.980804  0  0  0.294753  0.307992  0  0.984953  0
H  H10  1  0.45115977  0.73991467  0.81137186  1  0  0.330559  0  0.916116  0  0  0.311944  0  0.983351  0  0  0.317599  0  0.980849  0  0  0.294762  0.308013  0  0.984997  0
H  H11  1  0.04883159  0.76008097  0.31136562  1  0  0.330577  0  0.916051  0  0  0.311943  0  0.983297  0  0  0.317598  0  0.980797  0  0  0.294769  0.30801  0  0.984952  0
H  H12  1  0.87171206  0.33053095  0.07183434  1  0  0.123798  0  0.9516  0  0  0.135446  0  1.007017  0  0  0.138039  0  1.008058  0  0  0.106052  0.133619  0  1.006497  0
H  H13  1  0.62828702  0.16945532  0.57182821  1  0  0.123748  0  0.951702  0  0  0.135414  0  1.007061  0  0  0.13801  0  1.008101  0  0  0.106053  0.13359  0  1.006546  0
H  H14  1  0.12827620  0.66945148  0.92817010  1  0  0.123776  0  0.951745  0  0  0.135457  0  1.007085  0  0  0.138025  0  1.008157  0  0  0.106074  0.133633  0  1.006568  0
H  H15  1  0.37171289  0.83053382  0.42816839  1  0  0.123801  0  0.951609  0  0  0.135442  0  1.007025  0  0  0.138041  0  1.00806  0  0  0.10607  0.133621  0  1.006506  0
H  H16  1  0.28547019  0.45760099  0.04595289  1  0  0.125801  0  0.962469  0  0  0.130348  0  1.031002  0  0  0.134124  0  1.026259  0  0  0.114818  0.127808  0  1.033866  0
H  H17  1  0.21452983  0.04238526  0.54595308  1  0  0.125794  0  0.962527  0  0  0.13031  0  1.031089  0  0  0.134081  0  1.026347  0  0  0.114803  0.127774  0  1.033956  0
H  H18  1  0.71451762  0.54238047  0.95404585  1  0  0.125812  0  0.962439  0  0  0.130374  0  1.030961  0  0  0.13415  0  1.026215  0  0  0.114805  0.127834  0  1.033816  0
H  H19  1  0.78547394  0.95760483  0.45404495  1  0  0.125799  0  0.962456  0  0  0.130342  0  1.030993  0  0  0.134114  0  1.026256  0  0  0.114822  0.127811  0  1.033841  0
H  H20  1  0.31790657  0.55829459  0.34456688  1  0  0.095437  0  0.941529  0  0  0.099539  0  1.013556  0  0  0.10279  0  1.008971  0  0  0.120342  0.097086  0  1.016928  0
H  H21  1  0.18210410  0.94170641  0.84456719  1  0  0.095522  0  0.941453  0  0  0.099632  0  1.013453  0  0  0.102867  0  1.008913  0  0  0.120389  0.097173  0  1.016822  0
H  H22  1  0.68209959  0.44170806  0.65542830  1  0  0.095419  0  0.941625  0  0  0.099506  0  1.013659  0  0  0.102768  0  1.009083  0  0  0.120327  0.097054  0  1.017029  0
H  H23  1  0.81789281  0.05830209  0.15543369  1  0  0.095407  0  0.941591  0  0  0.09958  0  1.013529  0  0  0.102779  0  1.009027  0  0  0.120376  0.097127  0  1.016895  0
C  C24  1  0.65727612  0.64847864  0.51169308  1  0  0.32506  0  3.892522  0  0  0.309792  0  4.187238  0  0  0.326649  0  4.201455  0  0  0.157016  0.298449  0  4.177825  0
C  C25  1  0.84272207  0.85153207  0.01169878  1  0  0.324981  0  3.892608  0  0  0.309718  0  4.187307  0  0  0.326568  0  4.201519  0  0  0.156949  0.298374  0  4.177899  0
C  C26  1  0.34273597  0.35152204  0.48830423  1  0  0.324988  0  3.892592  0  0  0.309718  0  4.187323  0  0  0.326565  0  4.201541  0  0  0.156994  0.298366  0  4.177898  0
C  C27  1  0.15727841  0.14848417  0.98831208  1  0  0.325016  0  3.892618  0  0  0.309737  0  4.18732  0  0  0.32659  0  4.201531  0  0  0.157017  0.298388  0  4.177872  0
C  C28  1  0.87576767  0.37547182  0.22323818  1  0  0.500969  0  3.778174  0  0  0.468976  0  4.042154  0  0  0.491135  0  4.053906  0  0  0.237394  0.4543  0  4.033745  0
C  C29  1  0.62423175  0.12452507  0.72323013  1  0  0.500874  0  3.778438  0  0  0.468883  0  4.042367  0  0  0.491037  0  4.054125  0  0  0.237362  0.45422  0  4.033946  0
C  C30  1  0.12422855  0.62452411  0.77676555  1  0  0.501019  0  3.778602  0  0  0.468984  0  4.042581  0  0  0.491143  0  4.05433  0  0  0.237395  0.454313  0  4.034174  0
C  C31  1  0.37576078  0.87547766  0.27676432  1  0  0.501013  0  3.778232  0  0  0.468994  0  4.042229  0  0  0.491153  0  4.053985  0  0  0.237424  0.454325  0  4.033826  0
C  C32  1  0.97588524  0.38185388  0.13046405  1  0  -0.193049  0  3.659713  0  0  -0.206877  0  3.907994  0  0  -0.220674  0  3.92941  0  0  -0.088832  -0.198078  0  3.893653  0
C  C33  1  0.52412933  0.11813729  0.63046323  1  0  -0.193042  0  3.660087  0  0  -0.206797  0  3.908249  0  0  -0.220601  0  3.929668  0  0  -0.088813  -0.198  0  3.893919  0
C  C34  1  0.02411942  0.61813813  0.86953968  1  0  -0.192988  0  3.659971  0  0  -0.206745  0  3.908141  0  0  -0.220524  0  3.929569  0  0  -0.088759  -0.197947  0  3.893807  0
C  C35  1  0.47588186  0.88186146  0.36953480  1  0  -0.193046  0  3.659953  0  0  -0.206843  0  3.908226  0  0  -0.220649  0  3.929645  0  0  -0.088823  -0.198042  0  3.893901  0
C  C36  1  0.20299111  0.45185758  0.11588719  1  0  -0.022842  0  3.70285  0  0  -0.053899  0  3.96053  0  0  -0.044434  0  3.975274  0  0  -0.064705  -0.059515  0  3.949873  0
C  C37  1  0.29701122  0.04813483  0.61588017  1  0  -0.022772  0  3.702527  0  0  -0.053851  0  3.960255  0  0  -0.044379  0  3.975  0  0  -0.064685  -0.059477  0  3.949617  0
C  C38  1  0.79700198  0.54813160  0.88411369  1  0  -0.022873  0  3.702918  0  0  -0.05396  0  3.960651  0  0  -0.04449  0  3.975386  0  0  -0.064727  -0.05957  0  3.949997  0
C  C39  1  0.70298545  0.95186207  0.38411571  1  0  -0.022853  0  3.70275  0  0  -0.053931  0  3.960462  0  0  -0.044467  0  3.97522  0  0  -0.064778  -0.059552  0  3.949827  0
C  C40  1  0.32759934  0.51729294  0.19423270  1  0  -0.006993  0  3.746623  0  0  -0.022857  0  4.003861  0  0  -0.034419  0  4.026297  0  0  0.061358  -0.015756  0  3.98897  0
C  C41  1  0.17241226  0.98269649  0.69423704  1  0  -0.007044  0  3.74652  0  0  -0.023004  0  4.003865  0  0  -0.034567  0  4.026299  0  0  0.061386  -0.015897  0  3.988955  0
C  C42  1  0.67240110  0.48270103  0.80576533  1  0  -0.007042  0  3.746549  0  0  -0.022996  0  4.003978  0  0  -0.034557  0  4.026415  0  0  0.061387  -0.01589  0  3.98909  0
C  C43  1  0.82758870  0.01730232  0.30576312  1  0  -0.007016  0  3.746416  0  0  -0.022922  0  4.003752  0  0  -0.034485  0  4.02618  0  0  0.06145  -0.015818  0  3.988867  0
C  C44  1  0.22116193  0.50897446  0.28346272  1  0  0.129531  0  3.688949  0  0  0.085211  0  3.951911  0  0  0.099153  0  3.964881  0  0  0.05478  0.076168  0  3.943488  0
C  C45  1  0.27884831  0.99102828  0.78346057  1  0  0.129421  0  3.689008  0  0  0.085132  0  3.951996  0  0  0.099063  0  3.964969  0  0  0.054662  0.076107  0  3.943554  0
C  C46  1  0.77884549  0.49102721  0.71653245  1  0  0.129523  0  3.688754  0  0  0.085265  0  3.951732  0  0  0.099184  0  3.96469  0  0  0.05474  0.076223  0  3.943323  0
C  C47  1  0.72114438  0.00898218  0.21653960  1  0  0.129373  0  3.689075  0  0  0.085021  0  3.952064  0  0  0.09898  0  3.965057  0  0  0.054575  0.07599  0  3.943638  0
S  S48  1  0.92299360  0.66317244  0.46833015  1  0  -0.306864  0  2.643402  0  0  -0.283782  0  3.079011  0  0  -0.286681  0  3.053193  0  0  -0.16549  -0.28287  0  3.096078  0
S  S49  1  0.57699883  0.83683344  0.96833520  1  0  -0.306945  0  2.643428  0  0  -0.28386  0  3.079047  0  0  -0.286744  0  3.053212  0  0  -0.165554  -0.282938  0  3.096096  0
S  S50  1  0.07700951  0.33682732  0.53166644  1  0  -0.306855  0  2.643455  0  0  -0.283782  0  3.07908  0  0  -0.286672  0  3.053257  0  0  -0.165497  -0.28286  0  3.096122  0
S  S51  1  0.42298920  0.16317802  0.03167352  1  0  -0.306784  0  2.643425  0  0  -0.283738  0  3.079148  0  0  -0.286627  0  3.053319  0  0  -0.165449  -0.282821  0  3.096173  0
N  N52  1  0.46481324  0.63569713  0.54239846  1  0  -0.503883  0  3.120458  0  0  -0.451941  0  3.441089  0  0  -0.46241  0  3.439231  0  0  -0.427227  -0.445901  0  3.44258  0
N  N53  1  0.03518173  0.86431659  0.04240266  1  0  -0.503741  0  3.120574  0  0  -0.451782  0  3.441188  0  0  -0.462232  0  3.439309  0  0  -0.427082  -0.445738  0  3.442664  0
N  N54  1  0.53520225  0.36430353  0.45760170  1  0  -0.503739  0  3.12051  0  0  -0.451789  0  3.441122  0  0  -0.462237  0  3.439244  0  0  -0.427148  -0.445738  0  3.442555  0
N  N55  1  0.96481328  0.13570257  0.95760678  1  0  -0.503863  0  3.120433  0  0  -0.451886  0  3.441008  0  0  -0.462337  0  3.43913  0  0  -0.427218  -0.445839  0  3.442442  0
N  N56  1  0.00096494  0.43991531  0.29861301  1  0  -0.386246  0  3.28593  0  0  -0.319471  0  3.585294  0  0  -0.337426  0  3.591319  0  0  -0.368212  -0.308151  0  3.58116  0
N  N57  1  0.49904493  0.06008537  0.79860865  1  0  -0.386169  0  3.285583  0  0  -0.319436  0  3.584982  0  0  -0.337397  0  3.591038  0  0  -0.368189  -0.308146  0  3.580866  0
N  N58  1  0.99903862  0.56008542  0.70139072  1  0  -0.386232  0  3.285707  0  0  -0.319473  0  3.585107  0  0  -0.337459  0  3.591206  0  0  -0.368215  -0.30817  0  3.581015  0
N  N59  1  0.50095377  0.93992700  0.20138795  1  0  -0.386172  0  3.285592  0  0  -0.319387  0  3.584957  0  0  -0.337336  0  3.590971  0  0  -0.36818  -0.308085  0  3.580853  0
N  N60  1  0.65622777  0.30689875  0.24120877  1  0  -0.643051  0  3.142437  0  0  -0.612542  0  3.387444  0  0  -0.6359  0  3.387088  0  0  -0.56095  -0.595809  0  3.387004  0
N  N61  1  0.84377633  0.19309748  0.74120469  1  0  -0.643109  0  3.142314  0  0  -0.612626  0  3.387354  0  0  -0.635987  0  3.386998  0  0  -0.561043  -0.5959  0  3.386902  0
N  N62  1  0.34376630  0.69309622  0.75879852  1  0  -0.643185  0  3.142542  0  0  -0.612707  0  3.387539  0  0  -0.636066  0  3.387182  0  0  -0.561009  -0.595977  0  3.387097  0
N  N63  1  0.15622687  0.80690615  0.25879405  1  0  -0.643067  0  3.142505  0  0  -0.612554  0  3.387516  0  0  -0.635915  0  3.387158  0  0  -0.560965  -0.59582  0  3.387077  0
N  N64  1  0.56544483  0.59193821  0.18411119  1  0  0.469627  0  3.974967  0  0  0.528428  0  4.230215  0  0  0.551757  0  4.238153  0  0  0.038454  0.512836  0  4.225049  0
N  N65  1  0.93455358  0.90805739  0.68411216  1  0  0.469456  0  3.974757  0  0  0.528307  0  4.229956  0  0  0.551638  0  4.237895  0  0  0.038384  0.512712  0  4.224785  0
N  N66  1  0.43455264  0.40805674  0.81587970  1  0  0.469641  0  3.974863  0  0  0.528336  0  4.230331  0  0  0.551671  0  4.238266  0  0  0.038353  0.51274  0  4.225157  0
N  N67  1  0.06544828  0.09194335  0.31588800  1  0  0.469675  0  3.974554  0  0  0.528417  0  4.229874  0  0  0.551748  0  4.237812  0  0  0.03842  0.512824  0  4.22471  0
O  O68  1  0.65781461  0.66117525  0.25263240  1  0  -0.388176  0  1.787166  0  0  -0.371184  0  1.991115  0  0  -0.383726  0  1.98964  0  0  -0.148015  -0.362938  0  1.992552  0
O  O69  1  0.84219698  0.83881675  0.75264060  1  0  -0.388121  0  1.786764  0  0  -0.37113  0  1.990637  0  0  -0.383668  0  1.989157  0  0  -0.147994  -0.362892  0  1.992072  0
O  O70  1  0.34218806  0.33882355  0.74735992  1  0  -0.38816  0  1.787215  0  0  -0.371104  0  1.991167  0  0  -0.383644  0  1.989689  0  0  -0.147994  -0.362859  0  1.992595  0
O  O71  1  0.15780776  0.16117914  0.24735885  1  0  -0.388186  0  1.786714  0  0  -0.371184  0  1.990645  0  0  -0.383722  0  1.98916  0  0  -0.148027  -0.362945  0  1.992089  0
O  O72  1  0.67090512  0.58415457  0.10781882  1  0  -0.376544  0  1.79764  0  0  -0.363924  0  2.001797  0  0  -0.37693  0  1.999232  0  0  -0.140545  -0.355379  0  2.00348  0
O  O73  1  0.82909707  0.91584053  0.60783145  1  0  -0.376378  0  1.797924  0  0  -0.363721  0  2.002055  0  0  -0.376693  0  1.999423  0  0  -0.140424  -0.355184  0  2.003735  0
O  O74  1  0.32908806  0.41583848  0.89217278  1  0  -0.376526  0  1.797564  0  0  -0.363848  0  2.001796  0  0  -0.376836  0  1.999185  0  0  -0.14047  -0.3553  0  2.003469  0
O  O75  1  0.17090650  0.08416020  0.39216800  1  0  -0.376493  0  1.797903  0  0  -0.363778  0  2.002065  0  0  -0.376756  0  1.999443  0  0  -0.140428  -0.355234  0  2.003745  0
