# generated using pymatgen
data_CdH7C7NO7
_symmetry_space_group_name_H-M   'P 1'
_cell_length_a   6.28494679
_cell_length_b   10.75074205
_cell_length_c   15.93018389
_cell_angle_alpha   92.44556241
_cell_angle_beta   102.74993757
_cell_angle_gamma   101.54748370
_symmetry_Int_Tables_number   1
_chemical_formula_structural   CdH7C7NO7
_chemical_formula_sum   'Cd4 H28 C28 N4 O28'
_cell_volume   1024.32143110
_cell_formula_units_Z   4
loop_
 _symmetry_equiv_pos_site_id
 _symmetry_equiv_pos_as_xyz
  1  'x, y, z'
loop_
 _atom_site_type_symbol
 _atom_site_label
 _atom_site_symmetry_multiplicity
 _atom_site_fract_x
 _atom_site_fract_y
 _atom_site_fract_z
 _atom_site_occupancy
 _atom_site_hle17_bader_spin_density
 _atom_site_hle17_ddec_charge
 _atom_site_hle17_ddec_spin_density
 _atom_site_hle17_ddec_sum_bond_order
 _atom_site_hle17_magmom
 _atom_site_hse06_10hf_bader_spin_density
 _atom_site_hse06_10hf_ddec_charge
 _atom_site_hse06_10hf_ddec_spin_density
 _atom_site_hse06_10hf_ddec_sum_bond_order
 _atom_site_hse06_10hf_magmom
 _atom_site_hse06_bader_spin_density
 _atom_site_hse06_ddec_charge
 _atom_site_hse06_ddec_spin_density
 _atom_site_hse06_ddec_sum_bond_order
 _atom_site_hse06_magmom
 _atom_site_pbe_bader_spin_density
 _atom_site_pbe_cm5_charge
 _atom_site_pbe_ddec_charge
 _atom_site_pbe_ddec_spin_density
 _atom_site_pbe_ddec_sum_bond_order
 _atom_site_pbe_magmom
Cd  Cd0  1  0.18848854  0.40460878  0.56684374  1  0  1.184364  0  1.622213  0  0  0.999959  0  2.058258  0  0  1.057644  0  2.004389  0  0  0.773548  0.958611  0  2.095323  0
Cd  Cd1  1  0.81150665  0.59539187  0.43315729  1  0  1.184329  0  1.622207  0  0  0.999934  0  2.058248  0  0  1.057618  0  2.004384  0  0  0.773536  0.958591  0  2.095313  0
Cd  Cd2  1  0.45518434  0.47006071  0.87289019  1  0  1.254041  0  1.571713  0  0  1.07122  0  2.008888  0  0  1.127712  0  1.951516  0  0  0.777178  1.030518  0  2.0486  0
Cd  Cd3  1  0.54481526  0.52993896  0.12710928  1  0  1.254042  0  1.571707  0  0  1.071219  0  2.008867  0  0  1.127705  0  1.951506  0  0  0.777182  1.030522  0  2.048577  0
H  H4  1  0.81435290  0.16126522  0.25473963  1  0  0.141326  0  0.921055  0  0  0.151094  0  0.976388  0  0  0.155374  0  0.974406  0  0  0.119896  0.148065  0  0.977886  0
H  H5  1  0.18565150  0.83873823  0.74525975  1  0  0.141333  0  0.921083  0  0  0.151147  0  0.976358  0  0  0.155406  0  0.974401  0  0  0.119912  0.148118  0  0.977859  0
H  H6  1  0.66191027  0.95186221  0.46827161  1  0  0.141565  0  0.938342  0  0  0.147339  0  1.004608  0  0  0.151893  0  1.001725  0  0  0.115125  0.144122  0  1.006776  0
H  H7  1  0.33809015  0.04813554  0.53172723  1  0  0.141581  0  0.938307  0  0  0.147343  0  1.004586  0  0  0.151895  0  1.001706  0  0  0.115122  0.144125  0  1.006751  0
H  H8  1  0.65117018  0.83640568  0.66570981  1  0  0.138754  0  0.946947  0  0  0.146149  0  1.009846  0  0  0.150473  0  1.007719  0  0  0.111871  0.143101  0  1.011469  0
H  H9  1  0.34882863  0.16359208  0.33428953  1  0  0.138765  0  0.946956  0  0  0.146157  0  1.009852  0  0  0.150481  0  1.007724  0  0  0.111865  0.143108  0  1.011474  0
H  H10  1  0.93584372  0.95084453  0.93729331  1  0  0.145164  0  0.946531  0  0  0.150835  0  1.011366  0  0  0.155871  0  1.007612  0  0  0.115976  0.14718  0  1.014305  0
H  H11  1  0.06415303  0.04915614  0.06270597  1  0  0.145155  0  0.946524  0  0  0.150831  0  1.011357  0  0  0.155866  0  1.007602  0  0  0.115972  0.147175  0  1.014295  0
H  H12  1  0.54423729  0.87273456  0.32188251  1  0  0.40689  0  0.787162  0  0  0.391643  0  0.839152  0  0  0.399588  0  0.831118  0  0  0.347146  0.385996  0  0.844904  0
H  H13  1  0.45575935  0.12726615  0.67811362  1  0  0.406833  0  0.787159  0  0  0.391588  0  0.839151  0  0  0.39953  0  0.831117  0  0  0.347086  0.385941  0  0.844901  0
H  H14  1  0.84811018  0.04143445  0.71808274  1  0  0.378607  0  0.923802  0  0  0.347634  0  1.003921  0  0  0.360305  0  0.990734  0  0  0.294996  0.338742  0  1.013014  0
H  H15  1  0.15189225  0.95856423  0.28191630  1  0  0.378665  0  0.923731  0  0  0.347664  0  1.003905  0  0  0.360334  0  0.990719  0  0  0.294984  0.33877  0  1.012997  0
H  H16  1  0.65078307  0.39563180  0.57926002  1  0  0.432897  0  0.857194  0  0  0.402397  0  0.921495  0  0  0.413505  0  0.905367  0  0  0.290415  0.394536  0  0.932881  0
H  H17  1  0.34921210  0.60436887  0.42074038  1  0  0.432891  0  0.857174  0  0  0.402402  0  0.921476  0  0  0.413511  0  0.905345  0  0  0.290421  0.394541  0  0.932862  0
H  H18  1  0.51331525  0.33001460  0.49029560  1  0  0.432062  0  0.861017  0  0  0.403068  0  0.9217  0  0  0.413316  0  0.90684  0  0  0.293526  0.395806  0  0.932215  0
H  H19  1  0.48667950  0.66998512  0.50970411  1  0  0.432058  0  0.86102  0  0  0.403063  0  0.921705  0  0  0.41331  0  0.906846  0  0  0.293527  0.395802  0  0.93222  0
H  H20  1  0.16002213  0.60362799  0.93929153  1  0  0.435809  0  0.831348  0  0  0.404845  0  0.904927  0  0  0.415076  0  0.890079  0  0  0.307238  0.397477  0  0.914576  0
H  H21  1  0.83997872  0.39637070  0.06070863  1  0  0.43578  0  0.831386  0  0  0.404814  0  0.904969  0  0  0.415044  0  0.890124  0  0  0.307253  0.397447  0  0.914616  0
H  H22  1  0.06406954  0.58735649  0.83384387  1  0  0.451871  0  0.83426  0  0  0.417436  0  0.902193  0  0  0.428049  0  0.886697  0  0  0.304306  0.409895  0  0.913195  0
H  H23  1  0.93593129  0.41264221  0.16615566  1  0  0.451875  0  0.834255  0  0  0.41746  0  0.902152  0  0  0.428069  0  0.886659  0  0  0.304348  0.409933  0  0.913139  0
H  H24  1  0.17249644  0.25954949  0.75392980  1  0  0.437193  0  0.855711  0  0  0.405654  0  0.919101  0  0  0.417065  0  0.902371  0  0  0.290968  0.397512  0  0.931015  0
H  H25  1  0.82750114  0.74044925  0.24606947  1  0  0.437214  0  0.855684  0  0  0.405651  0  0.919115  0  0  0.417062  0  0.902385  0  0  0.290956  0.397508  0  0.931031  0
H  H26  1  0.17857059  0.23353473  0.85387339  1  0  0.425619  0  0.879489  0  0  0.390892  0  0.949157  0  0  0.403193  0  0.931233  0  0  0.284494  0.38214  0  0.961892  0
H  H27  1  0.82142576  0.76646498  0.14612582  1  0  0.425625  0  0.879481  0  0  0.390901  0  0.949144  0  0  0.403202  0  0.931219  0  0  0.284499  0.382145  0  0.961883  0
H  H28  1  0.78828704  0.29208361  0.91080545  1  0  0.442774  0  0.803724  0  0  0.422753  0  0.858597  0  0  0.431836  0  0.84862  0  0  0.322715  0.416208  0  0.865837  0
H  H29  1  0.21171423  0.70791602  0.08919541  1  0  0.442778  0  0.803717  0  0  0.422756  0  0.858593  0  0  0.43184  0  0.848614  0  0  0.322711  0.41621  0  0.865834  0
H  H30  1  0.91200258  0.43406832  0.91145810  1  0  0.426541  0  0.874497  0  0  0.395096  0  0.938534  0  0  0.405929  0  0.922819  0  0  0.290245  0.387402  0  0.949687  0
H  H31  1  0.08799702  0.56593135  0.08854137  1  0  0.426511  0  0.87454  0  0  0.395062  0  0.938585  0  0  0.405895  0  0.92287  0  0  0.290227  0.387369  0  0.949736  0
C  C32  1  0.03155552  0.38527352  0.35494705  1  0  0.631214  0  3.902947  0  0  0.575685  0  4.206495  0  0  0.608488  0  4.198353  0  0  0.208385  0.553261  0  4.2116  0
C  C33  1  0.96844546  0.61472510  0.64505689  1  0  0.631172  0  3.902856  0  0  0.57571  0  4.206333  0  0  0.608514  0  4.198188  0  0  0.20847  0.553284  0  4.211437  0
C  C34  1  0.94198833  0.25595288  0.38325209  1  0  0.122566  0  3.766385  0  0  0.122028  0  4.015042  0  0  0.125851  0  4.034176  0  0  0.107018  0.119313  0  4.002161  0
C  C35  1  0.05801131  0.74404296  0.61674724  1  0  0.122669  0  3.76615  0  0  0.122053  0  4.014912  0  0  0.125878  0  4.034037  0  0  0.107023  0.119341  0  4.002032  0
C  C36  1  0.82889018  0.15337717  0.32346203  1  0  -0.20322  0  3.634929  0  0  -0.235779  0  3.892859  0  0  -0.243011  0  3.909564  0  0  -0.080569  -0.230989  0  3.881835  0
C  C37  1  0.17111229  0.84662531  0.67653967  1  0  -0.203312  0  3.634696  0  0  -0.235902  0  3.892647  0  0  -0.243117  0  3.909359  0  0  -0.080583  -0.231114  0  3.881626  0
C  C38  1  0.72705059  0.04081281  0.35333011  1  0  0.397329  0  3.780008  0  0  0.380872  0  4.055496  0  0  0.397666  0  4.065771  0  0  0.109685  0.369347  0  4.048619  0
C  C39  1  0.27295500  0.95918588  0.64666667  1  0  0.39732  0  3.780103  0  0  0.380863  0  4.055577  0  0  0.397652  0  4.065852  0  0  0.109599  0.369341  0  4.0487  0
C  C40  1  0.74327529  0.03568606  0.44229287  1  0  -0.237409  0  3.669441  0  0  -0.271026  0  3.930592  0  0  -0.278608  0  3.946604  0  0  -0.089229  -0.266295  0  3.920274  0
C  C41  1  0.25672913  0.96431357  0.55770574  1  0  -0.23739  0  3.669586  0  0  -0.271002  0  3.930684  0  0  -0.278586  0  3.946695  0  0  -0.089187  -0.266271  0  3.920364  0
C  C42  1  0.86698219  0.14143098  0.49764312  1  0  0.131297  0  3.776959  0  0  0.131361  0  4.023541  0  0  0.135657  0  4.042567  0  0  0.110286  0.128493  0  4.010606  0
C  C43  1  0.13301984  0.85856675  0.50235584  1  0  0.131286  0  3.777029  0  0  0.131396  0  4.023534  0  0  0.1357  0  4.042546  0  0  0.110288  0.12853  0  4.0106  0
C  C44  1  0.89706258  0.14289600  0.59468702  1  0  0.618959  0  3.920376  0  0  0.565047  0  4.222678  0  0  0.598075  0  4.215119  0  0  0.212133  0.542636  0  4.227083  0
C  C45  1  0.10294026  0.85710363  0.40531271  1  0  0.61896  0  3.92051  0  0  0.565062  0  4.222761  0  0  0.598087  0  4.215206  0  0  0.212126  0.542649  0  4.227167  0
C  C46  1  0.47042009  0.59177240  0.68829572  1  0  0.618086  0  3.909363  0  0  0.56479  0  4.198106  0  0  0.598476  0  4.192479  0  0  0.202411  0.541929  0  4.201088  0
C  C47  1  0.52957593  0.40822633  0.31170531  1  0  0.618168  0  3.909498  0  0  0.564919  0  4.198146  0  0  0.598606  0  4.192516  0  0  0.202544  0.542058  0  4.201132  0
C  C48  1  0.59945878  0.69685535  0.75582687  1  0  0.134525  0  3.809548  0  0  0.13428  0  4.059765  0  0  0.137925  0  4.078641  0  0  0.104916  0.131775  0  4.046936  0
C  C49  1  0.40054001  0.30314624  0.24417324  1  0  0.134616  0  3.809608  0  0  0.134363  0  4.059805  0  0  0.138007  0  4.078682  0  0  0.104942  0.131857  0  4.046977  0
C  C50  1  0.68112918  0.81721563  0.73324504  1  0  -0.245027  0  3.667237  0  0  -0.277514  0  3.926255  0  0  -0.286511  0  3.944875  0  0  -0.094303  -0.27163  0  3.913908  0
C  C51  1  0.31887045  0.18278403  0.26675506  1  0  -0.245087  0  3.667266  0  0  -0.277583  0  3.926267  0  0  -0.286579  0  3.944885  0  0  -0.094308  -0.271697  0  3.913917  0
C  C52  1  0.80525015  0.91294852  0.79895039  1  0  0.407357  0  3.810227  0  0  0.393777  0  4.077601  0  0  0.411589  0  4.088264  0  0  0.109868  0.381692  0  4.070098  0
C  C53  1  0.19474781  0.08705118  0.20104833  1  0  0.407334  0  3.810197  0  0  0.393813  0  4.077501  0  0  0.411625  0  4.088161  0  0  0.109886  0.381728  0  4.069994  0
C  C54  1  0.83986069  0.88010299  0.88478281  1  0  -0.21787  0  3.624955  0  0  -0.246703  0  3.871097  0  0  -0.254482  0  3.886566  0  0  -0.085401  -0.241595  0  3.860913  0
C  C55  1  0.16013404  0.11989674  0.11521627  1  0  -0.217834  0  3.624861  0  0  -0.246694  0  3.870972  0  0  -0.254473  0  3.886441  0  0  -0.085386  -0.241586  0  3.860786  0
C  C56  1  0.74608835  0.75798511  0.90118577  1  0  0.120077  0  3.792227  0  0  0.12003  0  4.041641  0  0  0.124111  0  4.060262  0  0  0.10218  0.117232  0  4.028942  0
C  C57  1  0.25391533  0.24201641  0.09881535  1  0  0.120094  0  3.792245  0  0  0.120082  0  4.041602  0  0  0.124164  0  4.060222  0  0  0.102181  0.117283  0  4.028902  0
C  C58  1  0.76586709  0.72215568  0.99288142  1  0  0.617895  0  3.926903  0  0  0.567001  0  4.221111  0  0  0.600148  0  4.214563  0  0  0.207288  0.544537  0  4.224665  0
C  C59  1  0.23413219  0.27784300  0.00711987  1  0  0.617739  0  3.927006  0  0  0.566837  0  4.221208  0  0  0.599985  0  4.21466  0  0  0.207224  0.544376  0  4.22476  0
N  N60  1  0.96484242  0.24805642  0.46858639  1  0  -0.386669  0  3.333299  0  0  -0.321043  0  3.585782  0  0  -0.342002  0  3.606981  0  0  -0.345458  -0.306538  0  3.571046  0
N  N61  1  0.03516006  0.75194606  0.53141531  1  0  -0.386617  0  3.33341  0  0  -0.321017  0  3.585919  0  0  -0.341978  0  3.607118  0  0  -0.345434  -0.306514  0  3.571184  0
N  N62  1  0.62717833  0.66705049  0.83809175  1  0  -0.411697  0  3.3047  0  0  -0.350529  0  3.564334  0  0  -0.370154  0  3.582788  0  0  -0.340632  -0.336842  0  3.551432  0
N  N63  1  0.37282171  0.33295011  0.16190905  1  0  -0.411704  0  3.304785  0  0  -0.35054  0  3.564397  0  0  -0.370163  0  3.582851  0  0  -0.340622  -0.336853  0  3.551495  0
O  O64  1  0.02104544  0.39521055  0.27657857  1  0  -0.583555  0  1.979208  0  0  -0.53663  0  2.209099  0  0  -0.558869  0  2.200293  0  0  -0.30193  -0.521225  0  2.214947  0
O  O65  1  0.97895708  0.60479572  0.72342579  1  0  -0.583597  0  1.979165  0  0  -0.536663  0  2.209011  0  0  -0.558904  0  2.200204  0  0  -0.301973  -0.521254  0  2.214851  0
O  O66  1  0.10698887  0.47859729  0.41568103  1  0  -0.708886  0  2.059294  0  0  -0.63196  0  2.31788  0  0  -0.661516  0  2.302764  0  0  -0.331131  -0.610947  0  2.32764  0
O  O67  1  0.89300924  0.52140234  0.58432209  1  0  -0.708855  0  2.059338  0  0  -0.631935  0  2.317874  0  0  -0.661497  0  2.30277  0  0  -0.331154  -0.610926  0  2.327636  0
O  O68  1  0.61418005  0.94399065  0.29405566  1  0  -0.46523  0  2.097663  0  0  -0.416061  0  2.294824  0  0  -0.433461  0  2.2855  0  0  -0.320064  -0.403725  0  2.300937  0
O  O69  1  0.38582194  0.05601092  0.70594345  1  0  -0.465178  0  2.097537  0  0  -0.41601  0  2.294702  0  0  -0.433401  0  2.285373  0  0  -0.319986  -0.403673  0  2.300813  0
O  O70  1  0.78123040  0.05005530  0.62208379  1  0  -0.602199  0  2.026111  0  0  -0.552118  0  2.257893  0  0  -0.577005  0  2.25111  0  0  -0.308093  -0.534704  0  2.262096  0
O  O71  1  0.21876762  0.94994056  0.37791541  1  0  -0.602135  0  2.026242  0  0  -0.552094  0  2.258078  0  0  -0.576976  0  2.251295  0  0  -0.308041  -0.534677  0  2.262278  0
O  O72  1  0.03594570  0.23594751  0.64160474  1  0  -0.627598  0  2.035877  0  0  -0.560354  0  2.275378  0  0  -0.587909  0  2.262775  0  0  -0.310937  -0.540902  0  2.283421  0
O  O73  1  0.96404825  0.76405032  0.35839421  1  0  -0.627668  0  2.035807  0  0  -0.560407  0  2.275295  0  0  -0.58796  0  2.262682  0  0  -0.310979  -0.540955  0  2.28334  0
O  O74  1  0.43220423  0.61370501  0.60882418  1  0  -0.6501  0  2.028771  0  0  -0.578279  0  2.263228  0  0  -0.608456  0  2.256017  0  0  -0.315012  -0.557196  0  2.267611  0
O  O75  1  0.56779085  0.38629951  0.39117511  1  0  -0.650123  0  2.029001  0  0  -0.578364  0  2.263515  0  0  -0.608544  0  2.256307  0  0  -0.31511  -0.55728  0  2.2679  0
O  O76  1  0.39476150  0.48349545  0.71202157  1  0  -0.626008  0  2.026162  0  0  -0.550578  0  2.2691  0  0  -0.581216  0  2.258931  0  0  -0.311073  -0.529123  0  2.275394  0
O  O77  1  0.60524014  0.51650514  0.28797873  1  0  -0.626114  0  2.026027  0  0  -0.550688  0  2.268932  0  0  -0.581328  0  2.258763  0  0  -0.311149  -0.529231  0  2.275227  0
O  O78  1  0.89091266  0.03011290  0.78338544  1  0  -0.490811  0  2.131053  0  0  -0.43824  0  2.340604  0  0  -0.459001  0  2.330025  0  0  -0.332925  -0.423506  0  2.347334  0
O  O79  1  0.10908938  0.96988483  0.21661352  1  0  -0.490879  0  2.130994  0  0  -0.438304  0  2.340538  0  0  -0.459069  0  2.329966  0  0  -0.332939  -0.423571  0  2.347265  0
O  O80  1  0.90136266  0.79704782  0.05272166  1  0  -0.599265  0  1.962936  0  0  -0.552449  0  2.180057  0  0  -0.575473  0  2.169463  0  0  -0.309129  -0.536436  0  2.18702  0
O  O81  1  0.09864383  0.20295653  0.94727980  1  0  -0.59918  0  1.96308  0  0  -0.552358  0  2.180203  0  0  -0.575381  0  2.16961  0  0  -0.309074  -0.536345  0  2.187165  0
O  O82  1  0.63757276  0.61708388  0.00157272  1  0  -0.670943  0  2.111501  0  0  -0.590045  0  2.368301  0  0  -0.623216  0  2.359255  0  0  -0.330641  -0.566576  0  2.373559  0
O  O83  1  0.36242927  0.38291767  0.99842765  1  0  -0.670862  0  2.111372  0  0  -0.589992  0  2.368216  0  0  -0.62317  0  2.359175  0  0  -0.330627  -0.566522  0  2.373474  0
O  O84  1  0.51309700  0.33041344  0.55234665  1  0  -0.825413  0  1.796359  0  0  -0.767365  0  1.975921  0  0  -0.78884  0  1.94228  0  0  -0.588133  -0.752072  0  1.999276  0
O  O85  1  0.48689776  0.66958628  0.44765306  1  0  -0.825387  0  1.796346  0  0  -0.767351  0  1.975923  0  0  -0.788827  0  1.942287  0  0  -0.588137  -0.752059  0  1.999282  0
O  O86  1  0.11710574  0.54509840  0.88617585  1  0  -0.833092  0  1.906068  0  0  -0.766758  0  2.10314  0  0  -0.789274  0  2.06883  0  0  -0.554363  -0.750771  0  2.12623  0
O  O87  1  0.88289673  0.45490026  0.11382444  1  0  -0.833074  0  1.906104  0  0  -0.766742  0  2.103169  0  0  -0.789252  0  2.068868  0  0  -0.554419  -0.750774  0  2.126218  0
O  O88  1  0.26716103  0.27455186  0.81344661  1  0  -0.857326  0  1.886594  0  0  -0.790575  0  2.082291  0  0  -0.814383  0  2.044612  0  0  -0.598193  -0.773597  0  2.108459  0
O  O89  1  0.73283697  0.72544782  0.18655336  1  0  -0.857352  0  1.886572  0  0  -0.790593  0  2.082282  0  0  -0.8144  0  2.044603  0  0  -0.598204  -0.773613  0  2.108447  0
O  O90  1  0.78314104  0.37925628  0.92903622  1  0  -0.832467  0  1.839304  0  0  -0.768877  0  2.024026  0  0  -0.791417  0  1.994472  0  0  -0.566596  -0.752859  0  2.044653  0
O  O91  1  0.21685856  0.62074339  0.07096325  1  0  -0.832448  0  1.839332  0  0  -0.768852  0  2.02405  0  0  -0.791393  0  1.994498  0  0  -0.566574  -0.752833  0  2.044677  0
