# generated using pymatgen
data_MnH7C8NO8
_symmetry_space_group_name_H-M   'P 1'
_cell_length_a   7.61076365
_cell_length_b   7.74985635
_cell_length_c   9.89852903
_cell_angle_alpha   68.76922294
_cell_angle_beta   79.02086101
_cell_angle_gamma   62.77368132
_symmetry_Int_Tables_number   1
_chemical_formula_structural   MnH7C8NO8
_chemical_formula_sum   'Mn2 H14 C16 N2 O16'
_cell_volume   483.70120891
_cell_formula_units_Z   2
loop_
 _symmetry_equiv_pos_site_id
 _symmetry_equiv_pos_as_xyz
  1  'x, y, z'
loop_
 _atom_site_type_symbol
 _atom_site_label
 _atom_site_symmetry_multiplicity
 _atom_site_fract_x
 _atom_site_fract_y
 _atom_site_fract_z
 _atom_site_occupancy
 _atom_site_hle17_ddec_charge
 _atom_site_hle17_ddec_spin_density
 _atom_site_hle17_ddec_sum_bond_order
 _atom_site_hle17_magmom
 _atom_site_hse06_10hf_ddec_charge
 _atom_site_hse06_10hf_ddec_spin_density
 _atom_site_hse06_10hf_ddec_sum_bond_order
 _atom_site_hse06_10hf_magmom
 _atom_site_hse06_ddec_charge
 _atom_site_hse06_ddec_spin_density
 _atom_site_hse06_ddec_sum_bond_order
 _atom_site_hse06_magmom
 _atom_site_pbe_cm5_charge
 _atom_site_pbe_ddec_charge
 _atom_site_pbe_ddec_spin_density
 _atom_site_pbe_ddec_sum_bond_order
 _atom_site_pbe_magmom
Mn  Mn0  1  0.79229648  0.72074758  0.02235118  1  1.298334  -4.782613  1.691705  -4.682  1.163151  -4.696008  2.178783  -4.534  1.211364  -4.746383  2.108115  -4.603  0.621792  1.129923  -4.634059  2.230099  -4.452
Mn  Mn1  1  0.20770316  0.27925581  0.97764644  1  1.298341  -4.782605  1.691709  -4.682  1.163156  -4.696004  2.178794  -4.534  1.21137  -4.746378  2.108125  -4.603  0.6218  1.129927  -4.634057  2.230109  -4.452
H  H2  1  0.14076156  0.52905049  0.64668876  1  0.138434  0.000515  0.948402  0.0  0.138086  0.000395  1.022471  0.0  0.143581  0.000464  1.01635  0.0  0.122605  0.133629  0.000261  1.027359  0.0
H  H3  1  0.85924399  0.47094832  0.35330924  1  0.138485  0.000517  0.948338  0.0  0.138134  0.000394  1.022421  0.0  0.143633  0.000465  1.016296  0.0  0.122628  0.133675  0.000261  1.027308  0.0
H  H4  1  0.25454760  0.03433435  0.62857349  1  0.111884  0.000263  0.933741  0.0  0.120613  6.3e-05  0.996314  0.0  0.124506  0.00011  0.992793  0.0  0.11308  0.117575  -2.1e-05  0.999153  0.0
H  H5  1  0.74544931  0.96566595  0.37142644  1  0.111858  0.000272  0.933741  0.0  0.120602  6.4e-05  0.996297  0.0  0.124497  0.00011  0.992772  0.0  0.113067  0.117561  -2.1e-05  0.999137  0.0
H  H6  1  0.35614468  0.08143180  0.37047556  1  0.10761  0.000152  0.96352  0.0  0.109985  0.000127  1.036129  0.0  0.114568  0.000189  1.033225  0.0  0.105902  0.106497  7e-05  1.03859  0.0
H  H7  1  0.64385172  0.91857308  0.62952518  1  0.107603  0.000149  0.963503  0.0  0.109975  0.000127  1.03612  0.0  0.114559  0.000189  1.033212  0.0  0.105904  0.106488  7e-05  1.038584  0.0
H  H8  1  0.63752786  0.61528310  0.83906219  1  0.425713  -0.000287  0.873607  -0.002  0.394152  -0.000843  0.937782  -0.003  0.404829  -0.000581  0.922  -0.002  0.303581  0.38706  -0.001101  0.948368  -0.003
H  H9  1  0.36247177  0.38471719  0.16093934  1  0.425714  -0.000286  0.873608  -0.002  0.394146  -0.000843  0.937795  -0.003  0.404826  -0.000581  0.922008  -0.002  0.303573  0.387052  -0.001101  0.948382  -0.003
H  H10  1  0.45435123  0.75967135  0.91095613  1  0.443846  -0.000309  0.842576  -0.002  0.412958  -0.001031  0.90549  -0.002  0.422881  -0.00064  0.891013  -0.002  0.308071  0.406044  -0.001337  0.915613  -0.003
H  H11  1  0.54564833  0.24032588  0.08904628  1  0.443847  -0.000306  0.84258  -0.002  0.412954  -0.001031  0.905501  -0.002  0.422879  -0.00064  0.891024  -0.002  0.308063  0.406038  -0.001337  0.915628  -0.003
H  H12  1  0.08141767  0.78343818  0.05788080  1  0.417481  9.5e-05  0.87651  0.0  0.383982  -0.000544  0.956091  -0.001  0.395256  -0.000315  0.939684  -0.001  0.296844  0.37581  -0.000794  0.968023  -0.001
H  H13  1  0.91858189  0.21655905  0.94212161  1  0.417489  9.4e-05  0.876492  0.0  0.383996  -0.000544  0.956066  -0.001  0.395269  -0.000315  0.93966  -0.001  0.296842  0.375826  -0.000794  0.967986  -0.001
H  H14  1  0.90593381  0.91185557  0.14300087  1  0.423626  1.6e-05  0.871502  -0.001  0.394634  -0.000729  0.936047  -0.002  0.404353  -0.000444  0.92201  -0.001  0.300217  0.388116  -0.001  0.94531  -0.002
H  H15  1  0.09406842  0.08814167  0.85700112  1  0.423636  1.4e-05  0.871504  -0.001  0.394636  -0.000729  0.936038  -0.002  0.404355  -0.000444  0.922  -0.001  0.300226  0.388119  -0.001  0.9453  -0.002
C  C16  1  0.40700066  0.85089360  0.21060121  1  0.703793  -0.01471  3.905339  -0.015  0.64239  -0.02268  4.217374  -0.021  0.679342  -0.017535  4.205999  -0.017  0.231942  0.617816  -0.027521  4.221967  -0.024
C  C17  1  0.59299884  0.14910365  0.78939817  1  0.703806  -0.014701  3.905372  -0.015  0.642408  -0.02268  4.217391  -0.021  0.679358  -0.017536  4.20602  -0.017  0.231926  0.617836  -0.027521  4.221988  -0.024
C  C18  1  0.32456569  0.82257731  0.36422943  1  -0.04226  -0.004956  3.659568  -0.005  -0.035816  -0.007167  3.906715  -0.006  -0.033576  -0.004335  3.922901  -0.004  0.008153  -0.03918  -0.011842  3.897548  -0.009
C  C19  1  0.67543594  0.17742454  0.63576933  1  -0.042293  -0.004995  3.659523  -0.005  -0.03584  -0.007163  3.906664  -0.006  -0.033602  -0.004339  3.922848  -0.004  0.008167  -0.039204  -0.011841  3.897498  -0.009
C  C20  1  0.26040394  0.66969023  0.44561404  1  0.046658  0.001079  3.680327  0.001  0.027961  -0.000958  3.944153  0.0  0.022383  -0.000144  3.966132  0.0  0.079685  0.027126  -0.00134  3.926383  0.0
C  C21  1  0.73959841  0.33031315  0.55438518  1  0.046642  0.001134  3.680172  0.001  0.027983  -0.000958  3.944  0.0  0.022406  -0.00014  3.965977  0.0  0.079694  0.027153  -0.00134  3.926235  0.0
C  C22  1  0.18992810  0.64871021  0.58881435  1  -0.056914  -0.002078  3.655035  -0.002  -0.100759  -0.00223  3.924388  -0.002  -0.094929  -0.001607  3.938565  -0.002  -0.060151  -0.10506  -0.005065  3.916512  -0.004
C  C23  1  0.81007611  0.35128860  0.41118386  1  -0.056942  -0.00211  3.654939  -0.002  -0.100806  -0.00223  3.924296  -0.002  -0.094979  -0.001611  3.938476  -0.002  -0.060164  -0.105109  -0.005065  3.916427  -0.004
C  C24  1  0.19392142  0.77592082  0.65717371  1  -0.079479  0.002457  3.742901  0.002  -0.057695  -0.000156  3.991022  0.0  -0.068537  0.001085  4.012745  0.001  -0.017937  -0.050995  -0.000535  3.977481  0.001
C  C25  1  0.80608142  0.22407491  0.34282760  1  -0.079519  0.002514  3.742939  0.002  -0.05771  -0.000156  3.991035  0.0  -0.068553  0.001093  4.01276  0.001  -0.017967  -0.051009  -0.000535  3.977487  0.001
C  C26  1  0.25430628  0.93187348  0.57703544  1  -0.012566  -0.004261  3.656312  -0.004  -0.05144  -0.005921  3.922616  -0.005  -0.045646  -0.003728  3.938775  -0.003  -0.06528  -0.055961  -0.009944  3.912517  -0.008
C  C27  1  0.74569071  0.06812989  0.42296361  1  -0.012455  -0.00433  3.656278  -0.004  -0.051339  -0.005921  3.922564  -0.005  -0.045543  -0.003732  3.938721  -0.003  -0.0652  -0.055859  -0.009944  3.912462  -0.008
C  C28  1  0.31436762  0.95699593  0.43215848  1  -0.079819  0.00191  3.694888  0.001  -0.100799  -0.000165  3.955055  0.0  -0.107612  0.000501  3.975211  0.0  -0.082203  -0.096363  -7.1e-05  3.942838  0.0
C  C29  1  0.68563270  0.04300591  0.56784150  1  -0.079832  0.001981  3.694895  0.001  -0.100822  -0.000168  3.955087  0.0  -0.107634  0.000509  3.975239  0.0  -0.082243  -0.096389  -7.1e-05  3.942877  0.0
C  C30  1  0.14600629  0.73851464  0.81530207  1  0.686845  -0.014903  3.8272  -0.014  0.622317  -0.025823  4.129627  -0.022  0.660627  -0.018013  4.118145  -0.016  0.233252  0.595579  -0.033928  4.136724  -0.029
C  C31  1  0.85399588  0.26148263  0.18469689  1  0.686771  -0.014893  3.827373  -0.014  0.622245  -0.025822  4.12979  -0.022  0.660558  -0.018013  4.118307  -0.016  0.233182  0.595506  -0.033925  4.136883  -0.029
N  N32  1  0.27420711  0.52140458  0.38252068  1  0.485713  -0.000779  3.924403  -0.001  0.516152  -0.001988  4.210473  -0.002  0.537928  -0.000615  4.219728  -0.001  0.056707  0.51779  -0.007644  4.178666  -0.007
N  N33  1  0.72578986  0.47859879  0.61747737  1  0.485981  -0.000776  3.924206  -0.001  0.516342  -0.001991  4.210374  -0.002  0.538117  -0.000611  4.219625  -0.001  0.056813  0.517961  -0.007646  4.178605  -0.007
O  O34  1  0.59371841  0.76291954  0.19791897  1  -0.641797  -0.038542  2.056786  -0.025  -0.578228  -0.045558  2.331191  -0.028  -0.611898  -0.041426  2.318251  -0.024  -0.297904  -0.551857  -0.048565  2.338017  -0.03
O  O35  1  0.40628186  0.23708232  0.80207899  1  -0.641801  -0.038545  2.056845  -0.025  -0.578235  -0.045557  2.331247  -0.028  -0.611904  -0.041424  2.318307  -0.024  -0.297894  -0.551863  -0.048564  2.338073  -0.03
O  O36  1  0.28714174  0.96915392  0.10897641  1  -0.659304  -0.030331  2.055819  -0.017  -0.600719  -0.040074  2.332078  -0.023  -0.63083  -0.034786  2.316705  -0.018  -0.307544  -0.578147  -0.045959  2.341571  -0.029
O  O37  1  0.71285660  0.03084944  0.89102344  1  -0.659321  -0.030331  2.055804  -0.017  -0.600736  -0.040074  2.332056  -0.023  -0.630851  -0.034789  2.316685  -0.018  -0.307535  -0.578164  -0.045959  2.341552  -0.029
O  O38  1  0.19514124  0.82138395  0.88260244  1  -0.643847  -0.004884  2.043797  -0.006  -0.575502  -0.011286  2.263093  -0.013  -0.599369  -0.007987  2.250193  -0.01  -0.290944  -0.559759  -0.015095  2.272623  -0.017
O  O39  1  0.80486161  0.17861177  0.11739888  1  -0.643824  -0.004885  2.043948  -0.006  -0.575487  -0.011285  2.26325  -0.013  -0.599348  -0.007987  2.250334  -0.01  -0.290907  -0.559744  -0.015093  2.272778  -0.017
O  O40  1  0.05886528  0.61919404  0.87916041  1  -0.701133  -0.045184  2.091564  -0.017  -0.62419  -0.05663  2.377311  -0.021  -0.655719  -0.052534  2.358869  -0.019  -0.30352  -0.600625  -0.06083  2.389311  -0.025
O  O41  1  0.94113232  0.38080780  0.12083797  1  -0.701149  -0.045191  2.0916  -0.017  -0.624208  -0.056634  2.377347  -0.021  -0.655743  -0.052534  2.358916  -0.019  -0.303511  -0.600639  -0.060833  2.389342  -0.025
O  O42  1  0.35712721  0.52992223  0.25935833  1  -0.374216  0.000553  1.887741  0.0  -0.338666  -0.000659  2.093345  -0.001  -0.353139  0.000531  2.090377  0.0  -0.111679  -0.338288  -0.003376  2.089402  -0.003
O  O43  1  0.64287634  0.47007502  0.74064244  1  -0.374324  0.000518  1.887713  0.0  -0.338755  -0.000655  2.09337  -0.001  -0.353208  0.000528  2.090383  0.0  -0.111734  -0.338376  -0.003377  2.089447  -0.003
O  O44  1  0.20889617  0.39332847  0.45112767  1  -0.32605  -0.000933  1.803262  -0.001  -0.304002  -0.002462  2.012885  -0.003  -0.314732  -0.001231  2.010287  -0.001  -0.102989  -0.305114  -0.006472  2.008124  -0.007
O  O45  1  0.79109295  0.60668408  0.54886698  1  -0.326165  -0.00091  1.803082  -0.001  -0.30412  -0.002464  2.012774  -0.003  -0.314876  -0.001225  2.010204  -0.001  -0.103039  -0.305213  -0.006473  2.008011  -0.007
O  O46  1  0.59980381  0.70355287  0.90101848  1  -0.849367  -0.030891  1.890434  -0.017  -0.789948  -0.039737  2.102633  -0.021  -0.812418  -0.03629  2.066431  -0.019  -0.568886  -0.773206  -0.042911  2.127329  -0.024
O  O47  1  0.40019510  0.29644590  0.09898259  1  -0.849381  -0.030896  1.890433  -0.017  -0.78996  -0.039738  2.10264  -0.021  -0.812432  -0.036291  2.066432  -0.019  -0.568871  -0.773219  -0.042912  2.127337  -0.024
O  O48  1  0.97544773  0.77332964  0.13279885  1  -0.82317  -0.031407  1.880711  -0.021  -0.768591  -0.037937  2.097379  -0.025  -0.793185  -0.034293  2.064274  -0.022  -0.572811  -0.748386  -0.04092  2.119603  -0.028
O  O49  1  0.02455119  0.22666912  0.86720323  1  -0.823184  -0.031404  1.880704  -0.021  -0.768585  -0.037936  2.09739  -0.025  -0.793181  -0.034293  2.064284  -0.022  -0.572804  -0.748378  -0.040919  2.119604  -0.028
