# generated using pymatgen
data_CdH11C15S2N5
_symmetry_space_group_name_H-M   'P 1'
_cell_length_a   8.46219084
_cell_length_b   9.78314129
_cell_length_c   10.97013069
_cell_angle_alpha   85.26223374
_cell_angle_beta   76.18730270
_cell_angle_gamma   70.43979506
_symmetry_Int_Tables_number   1
_chemical_formula_structural   CdH11C15S2N5
_chemical_formula_sum   'Cd2 H22 C30 S4 N10'
_cell_volume   831.01988905
_cell_formula_units_Z   2
loop_
 _symmetry_equiv_pos_site_id
 _symmetry_equiv_pos_as_xyz
  1  'x, y, z'
loop_
 _atom_site_type_symbol
 _atom_site_label
 _atom_site_symmetry_multiplicity
 _atom_site_fract_x
 _atom_site_fract_y
 _atom_site_fract_z
 _atom_site_occupancy
 _atom_site_hle17_bader_spin_density
 _atom_site_hle17_ddec_charge
 _atom_site_hle17_ddec_spin_density
 _atom_site_hle17_ddec_sum_bond_order
 _atom_site_hle17_magmom
 _atom_site_hse06_10hf_bader_spin_density
 _atom_site_hse06_10hf_ddec_charge
 _atom_site_hse06_10hf_ddec_spin_density
 _atom_site_hse06_10hf_ddec_sum_bond_order
 _atom_site_hse06_10hf_magmom
 _atom_site_hse06_bader_spin_density
 _atom_site_hse06_ddec_charge
 _atom_site_hse06_ddec_spin_density
 _atom_site_hse06_ddec_sum_bond_order
 _atom_site_hse06_magmom
 _atom_site_pbe_bader_spin_density
 _atom_site_pbe_cm5_charge
 _atom_site_pbe_ddec_charge
 _atom_site_pbe_ddec_spin_density
 _atom_site_pbe_ddec_sum_bond_order
 _atom_site_pbe_magmom
Cd  Cd0  1  0.55468616  0.90530822  0.74214864  1  0  0.982211  0  1.951179  0  0  0.81005  0  2.415272  0  0  0.853672  0  2.378384  0  0  0.720498  0.779934  0  2.438844  0
Cd  Cd1  1  0.44531693  0.09468748  0.25784376  1  0  0.982264  0  1.951026  0  0  0.810077  0  2.415163  0  0  0.853705  0  2.378276  0  0  0.720458  0.779954  0  2.43873  0
H  H2  1  0.09847768  0.77827874  0.47824190  1  0  0.095321  0  0.970203  0  0  0.103251  0  1.036859  0  0  0.106923  0  1.034911  0  0  0.092108  0.100691  0  1.038265  0
H  H3  1  0.90150255  0.22172857  0.52176603  1  0  0.095349  0  0.97021  0  0  0.1033  0  1.03683  0  0  0.106951  0  1.034904  0  0  0.09215  0.100742  0  1.038238  0
H  H4  1  0.35668773  0.60077986  0.53360546  1  0  0.0895  0  0.949863  0  0  0.100365  0  1.011308  0  0  0.102882  0  1.00994  0  0  0.096024  0.098481  0  1.012523  0
H  H5  1  0.64330315  0.39923402  0.46639762  1  0  0.089671  0  0.949895  0  0  0.100522  0  1.011338  0  0  0.103039  0  1.009962  0  0  0.096074  0.098615  0  1.012573  0
H  H6  1  0.32954736  0.39197628  0.67615232  1  0  0.081622  0  1.012505  0  0  0.086489  0  1.085111  0  0  0.088998  0  1.085566  0  0  0.084072  0.084812  0  1.084759  0
H  H7  1  0.67046821  0.60802325  0.32385602  1  0  0.08175  0  1.012369  0  0  0.086536  0  1.085042  0  0  0.089056  0  1.085487  0  0  0.084116  0.084852  0  1.084699  0
H  H8  1  0.04361982  0.37124548  0.76739248  1  0  0.088658  0  0.943175  0  0  0.10344  0  0.997844  0  0  0.106261  0  0.996009  0  0  0.104087  0.101505  0  0.999095  0
H  H9  1  0.95639354  0.62877506  0.23260018  1  0  0.088542  0  0.943108  0  0  0.103308  0  0.997836  0  0  0.106129  0  0.996  0  0  0.104004  0.10137  0  0.999088  0
H  H10  1  0.51223782  0.24563018  0.92356286  1  0  0.111621  0  0.953344  0  0  0.121835  0  1.013808  0  0  0.123661  0  1.0141  0  0  0.10058  0.120654  0  1.01341  0
H  H11  1  0.48775664  0.75436003  0.07643384  1  0  0.111637  0  0.953373  0  0  0.121842  0  1.013838  0  0  0.123665  0  1.014131  0  0  0.100602  0.120663  0  1.013439  0
H  H12  1  0.20163469  0.36515325  0.01417567  1  0  0.077345  0  0.993793  0  0  0.083978  0  1.066707  0  0  0.086113  0  1.066752  0  0  0.086795  0.082701  0  1.066365  0
H  H13  1  0.79834098  0.63482252  0.98583847  1  0  0.077416  0  0.993833  0  0  0.084016  0  1.066772  0  0  0.086147  0  1.06682  0  0  0.08682  0.082744  0  1.066426  0
H  H14  1  0.05932805  0.62775945  0.97964433  1  0  0.078984  0  0.980212  0  0  0.089518  0  1.045712  0  0  0.091834  0  1.045086  0  0  0.090159  0.087766  0  1.046439  0
H  H15  1  0.94070827  0.37221866  0.02035156  1  0  0.079084  0  0.979991  0  0  0.089593  0  1.045515  0  0  0.091911  0  1.044892  0  0  0.090219  0.087844  0  1.046247  0
H  H16  1  0.22510917  0.78124786  0.85831324  1  0  0.112916  0  0.954379  0  0  0.120999  0  1.018151  0  0  0.123736  0  1.016975  0  0  0.100534  0.119224  0  1.018672  0
H  H17  1  0.77489890  0.21874101  0.14169038  1  0  0.112884  0  0.95451  0  0  0.121032  0  1.018205  0  0  0.123769  0  1.017029  0  0  0.100526  0.119255  0  1.018732  0
H  H18  1  0.80514634  0.32150838  0.77188024  1  0  0.312815  0  0.853094  0  0  0.306171  0  0.896598  0  0  0.312336  0  0.892471  0  0  0.338738  0.301359  0  0.900555  0
H  H19  1  0.19483858  0.67850902  0.22811394  1  0  0.312775  0  0.853151  0  0  0.306093  0  0.896677  0  0  0.312254  0  0.892561  0  0  0.338736  0.301278  0  0.900634  0
H  H20  1  0.69585383  0.73066873  0.53219604  1  0  0.304219  0  0.904217  0  0  0.293158  0  0.962628  0  0  0.297741  0  0.960882  0  0  0.297939  0.289816  0  0.964005  0
H  H21  1  0.30413650  0.26931579  0.46781213  1  0  0.3042  0  0.904307  0  0  0.293157  0  0.962693  0  0  0.297743  0  0.960943  0  0  0.29798  0.289815  0  0.964072  0
H  H22  1  0.80810282  0.84316004  0.48153245  1  0  0.311677  0  0.888676  0  0  0.305283  0  0.936595  0  0  0.310299  0  0.933683  0  0  0.301131  0.3019  0  0.9383  0
H  H23  1  0.19191106  0.15685131  0.51847997  1  0  0.311425  0  0.88893  0  0  0.305047  0  0.936841  0  0  0.31006  0  0.933938  0  0  0.301028  0.301666  0  0.938547  0
C  C24  1  0.92269041  0.67443894  0.58775574  1  0  0.276608  0  3.774995  0  0  0.269393  0  4.018219  0  0  0.278463  0  4.039361  0  0  0.093173  0.263298  0  4.003597  0
C  C25  1  0.07728683  0.32558669  0.41225610  1  0  0.276691  0  3.774836  0  0  0.269139  0  4.018554  0  0  0.278202  0  4.039707  0  0  0.093062  0.263054  0  4.003917  0
C  C26  1  0.08567760  0.68811061  0.54105205  1  0  -0.175788  0  3.732495  0  0  -0.193528  0  3.985942  0  0  -0.200065  0  4.006551  0  0  -0.104906  -0.189409  0  3.972165  0
C  C27  1  0.91429500  0.31191919  0.45896698  1  0  -0.175854  0  3.732775  0  0  -0.193498  0  3.986297  0  0  -0.200011  0  4.00692  0  0  -0.104885  -0.189386  0  3.972512  0
C  C28  1  0.23140313  0.58733898  0.57177440  1  0  -0.028578  0  3.752944  0  0  -0.047384  0  4.009385  0  0  -0.045049  0  4.028256  0  0  -0.090165  -0.048616  0  3.996872  0
C  C29  1  0.76856960  0.41266642  0.42822540  1  0  -0.028717  0  3.75315  0  0  -0.047508  0  4.009505  0  0  -0.045172  0  4.028367  0  0  -0.09021  -0.048714  0  3.997003  0
C  C30  1  0.21647967  0.47086030  0.65090211  1  0  -0.096858  0  3.802669  0  0  -0.110656  0  4.05744  0  0  -0.114861  0  4.078825  0  0  -0.106252  -0.108046  0  4.043436  0
C  C31  1  0.78352894  0.52912581  0.34908330  1  0  -0.097084  0  3.803013  0  0  -0.110797  0  4.057793  0  0  -0.115011  0  4.079169  0  0  -0.106399  -0.108182  0  4.043781  0
C  C32  1  0.05468231  0.45850244  0.70078053  1  0  -0.06677  0  3.74287  0  0  -0.091265  0  3.994577  0  0  -0.089146  0  4.012979  0  0  -0.087179  -0.092598  0  3.982125  0
C  C33  1  0.94531332  0.54149979  0.29921224  1  0  -0.066459  0  3.74282  0  0  -0.090978  0  3.994479  0  0  -0.088855  0  4.012893  0  0  -0.087024  -0.092311  0  3.98202  0
C  C34  1  0.90513328  0.55951255  0.67206652  1  0  -0.127668  0  3.78257  0  0  -0.108947  0  4.019827  0  0  -0.117167  0  4.043628  0  0  -0.018156  -0.103425  0  4.003666  0
C  C35  1  0.09487409  0.44049566  0.32794312  1  0  -0.127848  0  3.78287  0  0  -0.108957  0  4.020123  0  0  -0.117193  0  4.04396  0  0  -0.018037  -0.103433  0  4.00395  0
C  C36  1  0.73707144  0.54766469  0.73215144  1  0  0.372493  0  3.753027  0  0  0.334901  0  4.028375  0  0  0.354483  0  4.039852  0  0  0.227283  0.3218  0  4.020599  0
C  C37  1  0.26292235  0.45233512  0.26785109  1  0  0.372737  0  3.753525  0  0  0.335087  0  4.028864  0  0  0.354672  0  4.040325  0  0  0.22727  0.321982  0  4.021103  0
C  C38  1  0.54189401  0.44818588  0.83943331  1  0  0.158848  0  3.795815  0  0  0.152549  0  4.039179  0  0  0.156555  0  4.061074  0  0  0.093747  0.149656  0  4.024812  0
C  C39  1  0.45812045  0.55179318  0.16057136  1  0  0.158714  0  3.794916  0  0  0.152411  0  4.038218  0  0  0.156401  0  4.060138  0  0  0.093661  0.149518  0  4.023854  0
C  C40  1  0.45066005  0.36060558  0.90728103  1  0  -0.15118  0  3.740582  0  0  -0.165682  0  3.989356  0  0  -0.168536  0  4.010137  0  0  -0.097773  -0.163971  0  3.974948  0
C  C41  1  0.54935408  0.63939365  0.09269843  1  0  -0.151081  0  3.740453  0  0  -0.165598  0  3.989244  0  0  -0.168439  0  4.010023  0  0  -0.097805  -0.163889  0  3.974838  0
C  C42  1  0.27626887  0.42923858  0.95776213  1  0  -0.065768  0  3.768318  0  0  -0.08326  0  4.026197  0  0  -0.085742  0  4.049761  0  0  -0.101013  -0.081267  0  4.009745  0
C  C43  1  0.72371276  0.57075926  0.04223521  1  0  -0.065803  0  3.768526  0  0  -0.083281  0  4.026432  0  0  -0.085756  0  4.049987  0  0  -0.101061  -0.081291  0  4.009982  0
C  C44  1  0.19647404  0.57878363  0.94024146  1  0  -0.081378  0  3.793966  0  0  -0.099555  0  4.053245  0  0  -0.102286  0  4.076672  0  0  -0.104001  -0.097564  0  4.037454  0
C  C45  1  0.80353307  0.42119741  0.05977212  1  0  -0.081614  0  3.793276  0  0  -0.099766  0  4.052568  0  0  -0.102498  0  4.075994  0  0  -0.103985  -0.097782  0  4.036786  0
C  C46  1  0.28752520  0.66596927  0.87253004  1  0  -0.134827  0  3.731273  0  0  -0.154592  0  3.982735  0  0  -0.157177  0  4.003683  0  0  -0.093805  -0.15238  0  3.967744  0
C  C47  1  0.71246633  0.33402045  0.12748567  1  0  -0.134807  0  3.731451  0  0  -0.154639  0  3.98283  0  0  -0.157218  0  4.003785  0  0  -0.093787  -0.152429  0  3.967844  0
C  C48  1  0.46319390  0.59894014  0.82239579  1  0  0.152865  0  3.818745  0  0  0.153293  0  4.05941  0  0  0.156138  0  4.08379  0  0  0.086242  0.151006  0  4.043115  0
C  C49  1  0.53681442  0.40106067  0.17760687  1  0  0.153127  0  3.819776  0  0  0.153613  0  4.060322  0  0  0.156442  0  4.084723  0  0  0.086212  0.151327  0  4.044037  0
C  C50  1  0.27985711  0.04267362  0.01641208  1  0  0.311305  0  4.017729  0  0  0.292465  0  4.315231  0  0  0.315095  0  4.328882  0  0  0.149334  0.27731  0  4.305461  0
C  C51  1  0.72013493  0.95734285  0.98357498  1  0  0.311285  0  4.017722  0  0  0.292457  0  4.315216  0  0  0.315088  0  4.328867  0  0  0.149354  0.277299  0  4.305442  0
C  C52  1  0.37530616  0.89255458  0.50822589  1  0  0.284362  0  4.002791  0  0  0.266647  0  4.303471  0  0  0.287644  0  4.317674  0  0  0.139008  0.252464  0  4.293569  0
C  C53  1  0.62470581  0.10744979  0.49176466  1  0  0.284355  0  4.003313  0  0  0.266632  0  4.303981  0  0  0.287627  0  4.318184  0  0  0.138929  0.252448  0  4.294081  0
S  S54  1  0.17019450  0.11395094  0.15264140  1  0  -0.340765  0  2.146949  0  0  -0.306871  0  2.453126  0  0  -0.324431  0  2.448023  0  0  -0.142331  -0.296135  0  2.457472  0
S  S55  1  0.82982263  0.88603131  0.84736513  1  0  -0.340803  0  2.147012  0  0  -0.306913  0  2.453172  0  0  -0.324475  0  2.44807  0  0  -0.142353  -0.296174  0  2.457515  0
S  S56  1  0.39489094  0.84750762  0.36402012  1  0  -0.346511  0  2.230607  0  0  -0.317121  0  2.566091  0  0  -0.334304  0  2.560177  0  0  -0.13308  -0.305169  0  2.569722  0
S  S57  1  0.60513615  0.15248004  0.63594433  1  0  -0.346366  0  2.231373  0  0  -0.317016  0  2.566947  0  0  -0.334194  0  2.561031  0  0  -0.132917  -0.305063  0  2.570573  0
N  N58  1  0.58724636  0.65707006  0.75544136  1  0  -0.475643  0  3.128003  0  0  -0.410599  0  3.397123  0  0  -0.432273  0  3.412339  0  0  -0.352154  -0.396029  0  3.386944  0
N  N59  1  0.41275496  0.34297022  0.24454444  1  0  -0.47587  0  3.129013  0  0  -0.410817  0  3.398054  0  0  -0.432505  0  3.413334  0  0  -0.35216  -0.396209  0  3.387787  0
N  N60  1  0.71304566  0.42024560  0.78021239  1  0  -0.381646  0  3.385465  0  0  -0.331102  0  3.623418  0  0  -0.348162  0  3.635071  0  0  -0.377817  -0.319376  0  3.616448  0
N  N61  1  0.28691856  0.57975625  0.21980067  1  0  -0.381736  0  3.384932  0  0  -0.33111  0  3.622913  0  0  -0.348157  0  3.634547  0  0  -0.377752  -0.319389  0  3.615959  0
N  N62  1  0.77792888  0.77665258  0.55349601  1  0  -0.666066  0  3.185245  0  0  -0.617794  0  3.409988  0  0  -0.638054  0  3.413395  0  0  -0.599598  -0.603235  0  3.40685  0
N  N63  1  0.22207537  0.22333988  0.44649545  1  0  -0.665913  0  3.185129  0  0  -0.61758  0  3.410014  0  0  -0.637833  0  3.413423  0  0  -0.599602  -0.603031  0  3.406875  0
N  N64  1  0.35581455  0.99039065  0.91713069  1  0  -0.540181  0  2.91797  0  0  -0.479987  0  3.196761  0  0  -0.502084  0  3.202227  0  0  -0.400686  -0.464329  0  3.190827  0
N  N65  1  0.64418634  0.00961570  0.08286875  1  0  -0.540171  0  2.917856  0  0  -0.479984  0  3.19666  0  0  -0.502083  0  3.202125  0  0  -0.400713  -0.464325  0  3.190721  0
N  N66  1  0.35959607  0.92753579  0.61264376  1  0  -0.523687  0  2.789047  0  0  -0.475355  0  3.04936  0  0  -0.493403  0  3.055077  0  0  -0.392472  -0.462745  0  3.044567  0
N  N67  1  0.64043268  0.07244465  0.38734735  1  0  -0.523839  0  2.788675  0  0  -0.475506  0  3.048969  0  0  -0.493555  0  3.054691  0  0  -0.392575  -0.462896  0  3.044178  0
