# generated using pymatgen
data_RbH7C15N4O
_symmetry_space_group_name_H-M   'P 1'
_cell_length_a   8.37399848
_cell_length_b   9.93541308
_cell_length_c   17.04979771
_cell_angle_alpha   89.99987186
_cell_angle_beta   96.55600717
_cell_angle_gamma   90.00010292
_symmetry_Int_Tables_number   1
_chemical_formula_structural   RbH7C15N4O
_chemical_formula_sum   'Rb4 H28 C60 N16 O4'
_cell_volume   1409.25225656
_cell_formula_units_Z   4
loop_
 _symmetry_equiv_pos_site_id
 _symmetry_equiv_pos_as_xyz
  1  'x, y, z'
loop_
 _atom_site_type_symbol
 _atom_site_label
 _atom_site_symmetry_multiplicity
 _atom_site_fract_x
 _atom_site_fract_y
 _atom_site_fract_z
 _atom_site_occupancy
 _atom_site_hle17_bader_spin_density
 _atom_site_hle17_ddec_charge
 _atom_site_hle17_ddec_spin_density
 _atom_site_hle17_ddec_sum_bond_order
 _atom_site_hle17_magmom
 _atom_site_hse06_10hf_bader_spin_density
 _atom_site_hse06_10hf_ddec_charge
 _atom_site_hse06_10hf_ddec_spin_density
 _atom_site_hse06_10hf_ddec_sum_bond_order
 _atom_site_hse06_10hf_magmom
 _atom_site_hse06_bader_spin_density
 _atom_site_hse06_ddec_charge
 _atom_site_hse06_ddec_spin_density
 _atom_site_hse06_ddec_sum_bond_order
 _atom_site_hse06_magmom
 _atom_site_pbe_bader_spin_density
 _atom_site_pbe_cm5_charge
 _atom_site_pbe_ddec_charge
 _atom_site_pbe_ddec_spin_density
 _atom_site_pbe_ddec_sum_bond_order
 _atom_site_pbe_magmom
Rb  Rb0  1  0.86345303  0.12998508  0.58343330  1  0  0.941971  0  0.475513  0  0  0.89143  0  0.689052  0  0  0.90469  0  0.668926  0  0  0.839675  0.881849  0  0.703355  0
Rb  Rb1  1  0.63654849  0.62997853  0.41656676  1  0  0.941969  0  0.47551  0  0  0.891416  0  0.689069  0  0  0.904681  0  0.668941  0  0  0.839656  0.881832  0  0.703371  0
Rb  Rb2  1  0.13654263  0.87002050  0.41656828  1  0  0.941972  0  0.475499  0  0  0.891423  0  0.689049  0  0  0.904687  0  0.668928  0  0  0.839671  0.881843  0  0.70335  0
Rb  Rb3  1  0.36345323  0.37001900  0.58343284  1  0  0.941977  0  0.475501  0  0  0.891428  0  0.689063  0  0  0.904685  0  0.668937  0  0  0.839666  0.881847  0  0.703366  0
H  H4  1  0.48469946  0.92290351  0.83712911  1  0  0.084058  0  0.97857  0  0  0.091542  0  1.045748  0  0  0.092917  0  1.046572  0  0  0.097685  0.09063  0  1.045052  0
H  H5  1  0.01530254  0.42290712  0.16287056  1  0  0.084034  0  0.978496  0  0  0.091521  0  1.045684  0  0  0.092895  0  1.046508  0  0  0.097682  0.090608  0  1.044988  0
H  H6  1  0.51530105  0.07709502  0.16287101  1  0  0.084056  0  0.978571  0  0  0.091532  0  1.045764  0  0  0.092906  0  1.046587  0  0  0.097691  0.09062  0  1.045065  0
H  H7  1  0.98469800  0.57709141  0.83712780  1  0  0.084022  0  0.978532  0  0  0.091512  0  1.045716  0  0  0.092887  0  1.04654  0  0  0.097678  0.0906  0  1.045019  0
H  H8  1  0.64806671  0.03887073  0.94626141  1  0  0.099183  0  0.952088  0  0  0.113591  0  1.006556  0  0  0.116255  0  1.006529  0  0  0.104544  0.111576  0  1.00687  0
H  H9  1  0.85193464  0.53887599  0.05373877  1  0  0.09921  0  0.952061  0  0  0.11363  0  1.006507  0  0  0.116299  0  1.006476  0  0  0.104555  0.111615  0  1.006823  0
H  H10  1  0.35193260  0.96112880  0.05373805  1  0  0.099214  0  0.95205  0  0  0.113608  0  1.006536  0  0  0.116281  0  1.006496  0  0  0.10455  0.111595  0  1.00685  0
H  H11  1  0.14806228  0.46112355  0.94625996  1  0  0.099237  0  0.952018  0  0  0.113654  0  1.00646  0  0  0.116321  0  1.00643  0  0  0.104553  0.111638  0  1.006777  0
H  H12  1  0.43249712  0.41778198  0.87056570  1  0  0.106031  0  0.949545  0  0  0.115194  0  1.011333  0  0  0.11786  0  1.011213  0  0  0.104014  0.113293  0  1.011601  0
H  H13  1  0.06750481  0.91778650  0.12943691  1  0  0.106145  0  0.949312  0  0  0.115289  0  1.011114  0  0  0.117957  0  1.010986  0  0  0.104035  0.113388  0  1.011385  0
H  H14  1  0.56750338  0.58221655  0.12943442  1  0  0.106072  0  0.949441  0  0  0.115234  0  1.011224  0  0  0.117901  0  1.0111  0  0  0.10405  0.113335  0  1.011492  0
H  H15  1  0.93249210  0.08221304  0.87056241  1  0  0.106101  0  0.949336  0  0  0.11525  0  1.01114  0  0  0.117917  0  1.011013  0  0  0.104005  0.113347  0  1.011412  0
H  H16  1  0.25945109  0.30143561  0.76458916  1  0  0.096553  0  0.967467  0  0  0.101519  0  1.038862  0  0  0.105208  0  1.035417  0  0  0.107841  0.098875  0  1.041372  0
H  H17  1  0.24054826  0.80143999  0.23541168  1  0  0.096551  0  0.967524  0  0  0.101515  0  1.038917  0  0  0.105204  0  1.035472  0  0  0.107823  0.098872  0  1.041428  0
H  H18  1  0.74054822  0.69856192  0.23541031  1  0  0.096523  0  0.967496  0  0  0.101482  0  1.038902  0  0  0.105176  0  1.03545  0  0  0.10783  0.098839  0  1.041411  0
H  H19  1  0.75944867  0.19856156  0.76458646  1  0  0.096553  0  0.967485  0  0  0.101494  0  1.0389  0  0  0.105199  0  1.035439  0  0  0.107814  0.09885  0  1.04141  0
H  H20  1  0.70064703  0.40216616  0.95874314  1  0  0.113464  0  0.953675  0  0  0.132546  0  1.019206  0  0  0.133564  0  1.019776  0  0  0.091012  0.131913  0  1.018674  0
H  H21  1  0.79935137  0.90217038  0.04125639  1  0  0.113464  0  0.953792  0  0  0.132533  0  1.019328  0  0  0.13356  0  1.019892  0  0  0.091008  0.131902  0  1.018793  0
H  H22  1  0.29935108  0.59783136  0.04125625  1  0  0.113427  0  0.953727  0  0  0.13251  0  1.019248  0  0  0.133533  0  1.019817  0  0  0.090989  0.13188  0  1.018713  0
H  H23  1  0.20064554  0.09783016  0.95874293  1  0  0.113468  0  0.953847  0  0  0.132545  0  1.019367  0  0  0.133563  0  1.01994  0  0  0.091024  0.131912  0  1.018833  0
H  H24  1  0.75435856  0.24575986  0.00684244  1  0  0.115551  0  0.967757  0  0  0.13365  0  1.03149  0  0  0.134957  0  1.03185  0  0  0.088296  0.132679  0  1.031303  0
H  H25  1  0.74564076  0.74576131  0.99315735  1  0  0.115533  0  0.967814  0  0  0.13364  0  1.031536  0  0  0.134948  0  1.031897  0  0  0.088295  0.13267  0  1.03135  0
H  H26  1  0.24564196  0.75423968  0.99315651  1  0  0.115536  0  0.96779  0  0  0.133644  0  1.031511  0  0  0.134952  0  1.031871  0  0  0.088296  0.132673  0  1.031324  0
H  H27  1  0.25435735  0.25423823  0.00684204  1  0  0.115509  0  0.96783  0  0  0.133615  0  1.03155  0  0  0.134924  0  1.031911  0  0  0.088308  0.132644  0  1.031364  0
H  H28  1  0.58112844  0.33487324  0.02878798  1  0  0.128928  0  0.960876  0  0  0.14702  0  1.028006  0  0  0.148443  0  1.026922  0  0  0.093576  0.146029  0  1.028766  0
H  H29  1  0.91887223  0.83487706  0.97121236  1  0  0.12902  0  0.960785  0  0  0.147094  0  1.027925  0  0  0.148519  0  1.026841  0  0  0.093627  0.146103  0  1.028687  0
H  H30  1  0.41887087  0.66512529  0.97121149  1  0  0.128966  0  0.960802  0  0  0.147055  0  1.027936  0  0  0.148478  0  1.026853  0  0  0.0936  0.146064  0  1.028697  0
H  H31  1  0.08112589  0.16512248  0.02878644  1  0  0.12888  0  0.960883  0  0  0.146936  0  1.028056  0  0  0.148359  0  1.026969  0  0  0.093552  0.145943  0  1.028817  0
C  C32  1  0.29864728  0.89779848  0.70219176  1  0  0.039397  0  3.711076  0  0  0.024933  0  3.961497  0  0  0.036178  0  3.975601  0  0  0.031822  0.017709  0  3.951654  0
C  C33  1  0.20135583  0.39780287  0.29781036  1  0  0.039351  0  3.71098  0  0  0.024875  0  3.961477  0  0  0.036099  0  3.975592  0  0  0.031794  0.017651  0  3.951636  0
C  C34  1  0.70135201  0.10219703  0.29780887  1  0  0.039435  0  3.71094  0  0  0.024983  0  3.961389  0  0  0.036216  0  3.975484  0  0  0.031825  0.017748  0  3.951552  0
C  C35  1  0.79864223  0.60220170  0.70219196  1  0  0.03935  0  3.710978  0  0  0.024856  0  3.961443  0  0  0.036091  0  3.975537  0  0  0.031801  0.017633  0  3.951598  0
C  C36  1  0.26675346  0.04324512  0.72450485  1  0  0.389577  0  3.741736  0  0  0.378402  0  3.997245  0  0  0.39931  0  4.000392  0  0  0.169232  0.363958  0  3.995089  0
C  C37  1  0.23324664  0.54324933  0.27549579  1  0  0.389526  0  3.741938  0  0  0.378289  0  3.997573  0  0  0.39924  0  4.000654  0  0  0.16919  0.363851  0  3.995418  0
C  C38  1  0.73324584  0.95675241  0.27549520  1  0  0.389473  0  3.741794  0  0  0.378278  0  3.997374  0  0  0.399224  0  4.000458  0  0  0.169258  0.363854  0  3.995219  0
C  C39  1  0.76675146  0.45675423  0.72450419  1  0  0.389547  0  3.741896  0  0  0.378356  0  3.997446  0  0  0.399301  0  4.000539  0  0  0.16919  0.363913  0  3.99529  0
C  C40  1  0.38191963  0.88378819  0.63505565  1  0  -0.17778  0  3.938654  0  0  -0.160951  0  4.182139  0  0  -0.174833  0  4.202101  0  0  -0.023164  -0.151917  0  4.169021  0
C  C41  1  0.11807986  0.38379218  0.36494568  1  0  -0.177711  0  3.938541  0  0  -0.160878  0  4.182042  0  0  -0.174753  0  4.202005  0  0  -0.023151  -0.15185  0  4.168932  0
C  C42  1  0.61808204  0.11620833  0.36494630  1  0  -0.177745  0  3.938583  0  0  -0.160911  0  4.18206  0  0  -0.174789  0  4.202021  0  0  -0.023134  -0.151874  0  4.16894  0
C  C43  1  0.88192063  0.61621440  0.63505503  1  0  -0.177706  0  3.938664  0  0  -0.160865  0  4.182152  0  0  -0.174753  0  4.202134  0  0  -0.023152  -0.15183  0  4.169026  0
C  C44  1  0.23755584  0.79526009  0.74636706  1  0  -0.144512  0  3.942825  0  0  -0.128528  0  4.18654  0  0  -0.139462  0  4.205075  0  0  -0.019741  -0.121265  0  4.173815  0
C  C45  1  0.26244465  0.29526071  0.25363679  1  0  -0.144418  0  3.942698  0  0  -0.128449  0  4.18646  0  0  -0.139381  0  4.205002  0  0  -0.019737  -0.121188  0  4.173733  0
C  C46  1  0.76244463  0.20473845  0.25363482  1  0  -0.144455  0  3.942796  0  0  -0.128498  0  4.186553  0  0  -0.139431  0  4.205089  0  0  -0.019758  -0.121237  0  4.17383  0
C  C47  1  0.73755703  0.70474084  0.74636458  1  0  -0.144452  0  3.942744  0  0  -0.128442  0  4.18644  0  0  -0.139371  0  4.204968  0  0  -0.019708  -0.121184  0  4.173715  0
C  C48  1  0.15349558  0.82540761  0.81169745  1  0  0.272628  0  3.814991  0  0  0.255923  0  4.090636  0  0  0.266607  0  4.109474  0  0  0.180163  0.248802  0  4.077805  0
C  C49  1  0.34650978  0.32540560  0.18830607  1  0  0.272519  0  3.814909  0  0  0.255828  0  4.090557  0  0  0.266514  0  4.109396  0  0  0.180128  0.248709  0  4.077723  0
C  C50  1  0.84650012  0.17458891  0.18830179  1  0  0.27254  0  3.814997  0  0  0.255849  0  4.090648  0  0  0.266533  0  4.109486  0  0  0.180198  0.24873  0  4.077813  0
C  C51  1  0.65348950  0.67459595  0.81169515  1  0  0.272557  0  3.814935  0  0  0.255848  0  4.090566  0  0  0.266532  0  4.109404  0  0  0.180147  0.24873  0  4.077734  0
C  C52  1  0.25699357  0.65702431  0.73016622  1  0  0.293689  0  3.815536  0  0  0.277691  0  4.088284  0  0  0.289349  0  4.107332  0  0  0.185266  0.269813  0  4.075494  0
C  C53  1  0.24300550  0.15702484  0.26983597  1  0  0.293729  0  3.815585  0  0  0.277742  0  4.088335  0  0  0.289401  0  4.107381  0  0  0.185314  0.269863  0  4.075544  0
C  C54  1  0.74300574  0.34297322  0.26983325  1  0  0.293617  0  3.815634  0  0  0.277626  0  4.088388  0  0  0.289284  0  4.107439  0  0  0.185242  0.269748  0  4.075597  0
C  C55  1  0.75699374  0.84297771  0.73016701  1  0  0.293762  0  3.815561  0  0  0.277757  0  4.088296  0  0  0.289414  0  4.10734  0  0  0.185279  0.269879  0  4.075507  0
C  C56  1  0.40811941  0.76231674  0.59557425  1  0  0.313267  0  3.844351  0  0  0.297745  0  4.115319  0  0  0.311763  0  4.133591  0  0  0.191753  0.288259  0  4.103343  0
C  C57  1  0.09188224  0.26232054  0.40442854  1  0  0.313106  0  3.844337  0  0  0.297583  0  4.115325  0  0  0.3116  0  4.133595  0  0  0.191658  0.288102  0  4.10335  0
C  C58  1  0.59188586  0.23767978  0.40442792  1  0  0.313048  0  3.844392  0  0  0.297518  0  4.115378  0  0  0.311535  0  4.13365  0  0  0.191636  0.288035  0  4.103402  0
C  C59  1  0.90811703  0.73768504  0.59557327  1  0  0.313058  0  3.844433  0  0  0.297527  0  4.115421  0  0  0.311543  0  4.13369  0  0  0.191628  0.288045  0  4.103443  0
C  C60  1  0.44699471  0.99943624  0.60265248  1  0  0.320176  0  3.853832  0  0  0.303581  0  4.124175  0  0  0.317172  0  4.143192  0  0  0.194107  0.294297  0  4.111789  0
C  C61  1  0.05300618  0.49944000  0.39734879  1  0  0.320081  0  3.853872  0  0  0.303496  0  4.124198  0  0  0.317085  0  4.143214  0  0  0.194047  0.294215  0  4.111812  0
C  C62  1  0.55301055  0.00056230  0.39735028  1  0  0.320219  0  3.853838  0  0  0.303628  0  4.124169  0  0  0.317218  0  4.143185  0  0  0.194102  0.294342  0  4.111784  0
C  C63  1  0.94699431  0.50056457  0.60265192  1  0  0.320164  0  3.853856  0  0  0.303572  0  4.124187  0  0  0.317161  0  4.143206  0  0  0.194093  0.294287  0  4.1118  0
C  C64  1  0.36090083  0.10456813  0.79257737  1  0  -0.074159  0  3.810026  0  0  -0.060508  0  4.047847  0  0  -0.072625  0  4.07707  0  0  -0.026401  -0.052554  0  4.028171  0
C  C65  1  0.13909939  0.60457246  0.20742319  1  0  -0.074116  0  3.810217  0  0  -0.060449  0  4.048053  0  0  -0.072577  0  4.077269  0  0  -0.026358  -0.052497  0  4.028378  0
C  C66  1  0.63909849  0.89543041  0.20742209  1  0  -0.074074  0  3.810171  0  0  -0.060466  0  4.048058  0  0  -0.072593  0  4.077274  0  0  -0.026411  -0.052524  0  4.02839  0
C  C67  1  0.86089993  0.39542809  0.79257569  1  0  -0.074118  0  3.810268  0  0  -0.060465  0  4.048074  0  0  -0.072594  0  4.0773  0  0  -0.026375  -0.052515  0  4.028399  0
C  C68  1  0.47109839  0.03100801  0.84469385  1  0  -0.048744  0  3.730506  0  0  -0.071689  0  3.981621  0  0  -0.069842  0  4.004421  0  0  -0.076173  -0.072424  0  3.965699  0
C  C69  1  0.02890290  0.53101237  0.15530687  1  0  -0.048613  0  3.730488  0  0  -0.071564  0  3.981591  0  0  -0.069718  0  4.004396  0  0  -0.07614  -0.072299  0  3.965669  0
C  C70  1  0.52890210  0.96899052  0.15530686  1  0  -0.048635  0  3.730623  0  0  -0.071546  0  3.981706  0  0  -0.0697  0  4.00451  0  0  -0.076124  -0.072281  0  3.965786  0
C  C71  1  0.97109644  0.46898818  0.84469142  1  0  -0.048583  0  3.730536  0  0  -0.07154  0  3.981636  0  0  -0.069695  0  4.004441  0  0  -0.076098  -0.072274  0  3.965713  0
C  C72  1  0.56300686  0.09630671  0.90618961  1  0  -0.137424  0  3.70788  0  0  -0.153471  0  3.948267  0  0  -0.160435  0  3.970702  0  0  -0.087211  -0.148913  0  3.933175  0
C  C73  1  0.93699458  0.59631295  0.09381109  1  0  -0.13758  0  3.707928  0  0  -0.153606  0  3.948338  0  0  -0.160576  0  3.970774  0  0  -0.08727  -0.149048  0  3.933245  0
C  C74  1  0.43699365  0.90369183  0.09380993  1  0  -0.13754  0  3.70793  0  0  -0.15358  0  3.948321  0  0  -0.160549  0  3.970756  0  0  -0.087246  -0.149018  0  3.933228  0
C  C75  1  0.06300475  0.40368659  0.90618720  1  0  -0.137629  0  3.707903  0  0  -0.153656  0  3.948296  0  0  -0.160621  0  3.970731  0  0  -0.087291  -0.149099  0  3.933203  0
C  C76  1  0.55180463  0.23632904  0.91643202  1  0  0.1991  0  3.698846  0  0  0.223663  0  3.929753  0  0  0.228  0  3.953178  0  0  0.019155  0.220858  0  3.913609  0
C  C77  1  0.94819466  0.73633232  0.08356837  1  0  0.199208  0  3.698855  0  0  0.22369  0  3.929838  0  0  0.228024  0  3.95327  0  0  0.01919  0.220886  0  3.913697  0
C  C78  1  0.44819709  0.76367050  0.08356759  1  0  0.199112  0  3.698879  0  0  0.223659  0  3.929797  0  0  0.227992  0  3.95323  0  0  0.019166  0.220856  0  3.913657  0
C  C79  1  0.05180227  0.26366722  0.91642978  1  0  0.199225  0  3.698786  0  0  0.223731  0  3.929724  0  0  0.228064  0  3.953153  0  0  0.0192  0.22093  0  3.913575  0
C  C80  1  0.44159987  0.30896116  0.86400599  1  0  -0.127056  0  3.68573  0  0  -0.143446  0  3.929974  0  0  -0.15083  0  3.952907  0  0  -0.082073  -0.138451  0  3.914358  0
C  C81  1  0.05839951  0.80896363  0.13599425  1  0  -0.12723  0  3.68551  0  0  -0.143558  0  3.929743  0  0  -0.150938  0  3.952667  0  0  -0.0821  -0.138559  0  3.914133  0
C  C82  1  0.55840066  0.69103838  0.13599296  1  0  -0.127082  0  3.685713  0  0  -0.143453  0  3.929949  0  0  -0.150835  0  3.952879  0  0  -0.082073  -0.138456  0  3.914335  0
C  C83  1  0.94159741  0.19103691  0.86400448  1  0  -0.127289  0  3.685515  0  0  -0.143633  0  3.929718  0  0  -0.151014  0  3.952649  0  0  -0.0821  -0.13864  0  3.914108  0
C  C84  1  0.34599648  0.24438815  0.80395404  1  0  -0.040166  0  3.719435  0  0  -0.065177  0  3.971263  0  0  -0.061796  0  3.99091  0  0  -0.068986  -0.067212  0  3.957954  0
C  C85  1  0.15400396  0.74439254  0.19604753  1  0  -0.04018  0  3.719493  0  0  -0.065195  0  3.971294  0  0  -0.06181  0  3.990937  0  0  -0.068978  -0.067231  0  3.957989  0
C  C86  1  0.65400403  0.75561139  0.19604550  1  0  -0.040189  0  3.719545  0  0  -0.065183  0  3.971371  0  0  -0.061803  0  3.991013  0  0  -0.068998  -0.067218  0  3.958064  0
C  C87  1  0.84599416  0.25560800  0.80395127  1  0  -0.040141  0  3.719478  0  0  -0.065134  0  3.971278  0  0  -0.061764  0  3.990915  0  0  -0.068976  -0.067167  0  3.95797  0
C  C88  1  0.65368639  0.30801499  0.98110233  1  0  -0.366406  0  3.717767  0  0  -0.445565  0  3.948995  0  0  -0.448632  0  3.958425  0  0  -0.245414  -0.443171  0  3.942229  0
C  C89  1  0.84631304  0.80801836  0.01889738  1  0  -0.366509  0  3.717824  0  0  -0.445634  0  3.949087  0  0  -0.448711  0  3.95851  0  0  -0.245482  -0.44324  0  3.942321  0
C  C90  1  0.34631292  0.69198354  0.01889713  1  0  -0.366413  0  3.717715  0  0  -0.445571  0  3.948965  0  0  -0.448644  0  3.958391  0  0  -0.245435  -0.443178  0  3.942203  0
C  C91  1  0.15368508  0.19198218  0.98110143  1  0  -0.366326  0  3.717873  0  0  -0.445448  0  3.949125  0  0  -0.448515  0  3.958559  0  0  -0.245432  -0.443054  0  3.94236  0
N  N92  1  0.50144808  0.09596408  0.57646413  1  0  -0.526219  0  2.679071  0  0  -0.50062  0  2.926121  0  0  -0.514169  0  2.937663  0  0  -0.46169  -0.491508  0  2.918763  0
N  N93  1  0.99855218  0.59596813  0.42353591  1  0  -0.526152  0  2.679075  0  0  -0.500554  0  2.926117  0  0  -0.5141  0  2.937655  0  0  -0.461645  -0.491442  0  2.918754  0
N  N94  1  0.49855477  0.90403445  0.42353906  1  0  -0.526257  0  2.679049  0  0  -0.500658  0  2.926092  0  0  -0.514207  0  2.937632  0  0  -0.461689  -0.491543  0  2.918725  0
N  N95  1  0.00144833  0.40403644  0.57646422  1  0  -0.526223  0  2.679066  0  0  -0.500622  0  2.926107  0  0  -0.514172  0  2.937648  0  0  -0.461694  -0.491513  0  2.918751  0
N  N96  1  0.43117227  0.66606014  0.55862686  1  0  -0.518591  0  2.638654  0  0  -0.497013  0  2.882938  0  0  -0.509473  0  2.892868  0  0  -0.424789  -0.488557  0  2.876382  0
N  N97  1  0.06882924  0.16606275  0.44137487  1  0  -0.51846  0  2.638647  0  0  -0.496879  0  2.882936  0  0  -0.509337  0  2.892868  0  0  -0.424706  -0.488424  0  2.876379  0
N  N98  1  0.56883301  0.33393739  0.44137531  1  0  -0.518424  0  2.638651  0  0  -0.496853  0  2.882963  0  0  -0.509314  0  2.892896  0  0  -0.424696  -0.488393  0  2.876405  0
N  N99  1  0.93116764  0.83394283  0.55862620  1  0  -0.518441  0  2.638592  0  0  -0.496867  0  2.882892  0  0  -0.509325  0  2.892821  0  0  -0.424697  -0.48841  0  2.876337  0
N  N100  1  0.27318939  0.54250772  0.71711242  1  0  -0.440436  0  2.627656  0  0  -0.41671  0  2.868505  0  0  -0.428588  0  2.882176  0  0  -0.366335  -0.40881  0  2.859662  0
N  N101  1  0.22680824  0.04250918  0.28289217  1  0  -0.440492  0  2.627664  0  0  -0.416758  0  2.8685  0  0  -0.428653  0  2.882205  0  0  -0.366385  -0.408859  0  2.859656  0
N  N102  1  0.72681350  0.45748981  0.28288902  1  0  -0.440408  0  2.627646  0  0  -0.416668  0  2.868464  0  0  -0.428555  0  2.882153  0  0  -0.366332  -0.40877  0  2.859619  0
N  N103  1  0.77319223  0.95749136  0.71710970  1  0  -0.440502  0  2.627689  0  0  -0.41676  0  2.868516  0  0  -0.428655  0  2.882224  0  0  -0.366356  -0.40886  0  2.859673  0
N  N104  1  0.08365188  0.84818657  0.86593721  1  0  -0.403203  0  2.597113  0  0  -0.375739  0  2.818736  0  0  -0.385097  0  2.830228  0  0  -0.297149  -0.369449  0  2.81109  0
N  N105  1  0.41635353  0.34818388  0.13406570  1  0  -0.403149  0  2.597088  0  0  -0.375683  0  2.818704  0  0  -0.385041  0  2.830193  0  0  -0.297116  -0.369398  0  2.81106  0
N  N106  1  0.91634383  0.15181297  0.13406203  1  0  -0.403149  0  2.59717  0  0  -0.375686  0  2.818786  0  0  -0.38504  0  2.830271  0  0  -0.29717  -0.369395  0  2.811136  0
N  N107  1  0.58364816  0.65181767  0.86593508  1  0  -0.403157  0  2.597131  0  0  -0.375684  0  2.818735  0  0  -0.385041  0  2.830224  0  0  -0.29713  -0.369399  0  2.811094  0
O  O108  1  0.16539629  0.10525865  0.67947679  1  0  -0.508882  0  1.955359  0  0  -0.469014  0  2.171342  0  0  -0.48648  0  2.167764  0  0  -0.318992  -0.456307  0  2.173314  0
O  O109  1  0.33460634  0.60526285  0.32052333  1  0  -0.508835  0  1.955581  0  0  -0.468936  0  2.171585  0  0  -0.486431  0  2.168022  0  0  -0.318958  -0.456238  0  2.173562  0
O  O110  1  0.83460423  0.89473686  0.32052216  1  0  -0.508848  0  1.955456  0  0  -0.468961  0  2.171437  0  0  -0.486461  0  2.167892  0  0  -0.319022  -0.456272  0  2.173415  0
O  O111  1  0.66539538  0.39474072  0.67947628  1  0  -0.508834  0  1.95556  0  0  -0.468957  0  2.171545  0  0  -0.486441  0  2.167966  0  0  -0.318942  -0.456253  0  2.173519  0
