# generated using pymatgen
data_ZnH11C15NO6
_symmetry_space_group_name_H-M   'P 1'
_cell_length_a   5.21857236
_cell_length_b   8.84704535
_cell_length_c   14.77590892
_cell_angle_alpha   92.59330630
_cell_angle_beta   89.99915598
_cell_angle_gamma   90.00035589
_symmetry_Int_Tables_number   1
_chemical_formula_structural   ZnH11C15NO6
_chemical_formula_sum   'Zn2 H22 C30 N2 O12'
_cell_volume   681.48949147
_cell_formula_units_Z   2
loop_
 _symmetry_equiv_pos_site_id
 _symmetry_equiv_pos_as_xyz
  1  'x, y, z'
loop_
 _atom_site_type_symbol
 _atom_site_label
 _atom_site_symmetry_multiplicity
 _atom_site_fract_x
 _atom_site_fract_y
 _atom_site_fract_z
 _atom_site_occupancy
 _atom_site_hle17_bader_spin_density
 _atom_site_hle17_ddec_charge
 _atom_site_hle17_ddec_spin_density
 _atom_site_hle17_ddec_sum_bond_order
 _atom_site_hle17_magmom
 _atom_site_hse06_10hf_bader_spin_density
 _atom_site_hse06_10hf_ddec_charge
 _atom_site_hse06_10hf_ddec_spin_density
 _atom_site_hse06_10hf_ddec_sum_bond_order
 _atom_site_hse06_10hf_magmom
 _atom_site_hse06_bader_spin_density
 _atom_site_hse06_ddec_charge
 _atom_site_hse06_ddec_spin_density
 _atom_site_hse06_ddec_sum_bond_order
 _atom_site_hse06_magmom
 _atom_site_pbe_bader_spin_density
 _atom_site_pbe_cm5_charge
 _atom_site_pbe_ddec_charge
 _atom_site_pbe_ddec_spin_density
 _atom_site_pbe_ddec_sum_bond_order
 _atom_site_pbe_magmom
Zn  Zn0  1  0.45055444  0.62266622  0.33393780  1  0  1.171351  0  1.703921  0  0  0.998736  0  2.178504  0  0  1.04995  0  2.113196  0  0  0.692256  0.962214  0  2.223795  0
Zn  Zn1  1  0.54942942  0.12266323  0.33393969  1  0  1.17135  0  1.703894  0  0  0.998724  0  2.178467  0  0  1.049933  0  2.113156  0  0  0.692243  0.962199  0  2.223748  0
H  H2  1  0.52374632  0.04429234  0.85911376  1  0  0.309529  0  0.90471  0  0  0.29051  0  0.973053  0  0  0.297877  0  0.967335  0  0  0.313198  0.285255  0  0.977187  0
H  H3  1  0.47629153  0.54429309  0.85911640  1  0  0.30942  0  0.904626  0  0  0.290413  0  0.972966  0  0  0.297788  0  0.967239  0  0  0.313192  0.285154  0  0.977108  0
H  H4  1  0.07674441  0.95001336  0.55263981  1  0  0.102454  0  0.944963  0  0  0.111908  0  1.005933  0  0  0.114861  0  1.004287  0  0  0.105652  0.109827  0  1.007056  0
H  H5  1  0.92326447  0.45002510  0.55264697  1  0  0.10252  0  0.94494  0  0  0.111916  0  1.005991  0  0  0.114881  0  1.004311  0  0  0.105682  0.10984  0  1.007104  0
H  H6  1  0.07380474  0.07366593  0.70671663  1  0  0.113117  0  0.961276  0  0  0.121364  0  1.02305  0  0  0.124154  0  1.023391  0  0  0.104811  0.11912  0  1.023511  0
H  H7  1  0.92623592  0.57367940  0.70672340  1  0  0.11317  0  0.961106  0  0  0.121329  0  1.022991  0  0  0.12412  0  1.023333  0  0  0.104779  0.119088  0  1.023439  0
H  H8  1  0.37041359  0.84163388  0.76578471  1  0  0.109001  0  0.958189  0  0  0.115541  0  1.02488  0  0  0.119119  0  1.0233  0  0  0.103444  0.113004  0  1.026036  0
H  H9  1  0.62961403  0.34163240  0.76577607  1  0  0.109084  0  0.95813  0  0  0.115632  0  1.024805  0  0  0.11921  0  1.023224  0  0  0.103508  0.113096  0  1.025958  0
H  H10  1  0.37861186  0.71555721  0.61152666  1  0  0.099631  0  0.965636  0  0  0.107823  0  1.030279  0  0  0.110136  0  1.029949  0  0  0.10307  0.106024  0  1.030833  0
H  H11  1  0.62137102  0.21554437  0.61151974  1  0  0.099769  0  0.965382  0  0  0.107876  0  1.030092  0  0  0.110182  0  1.029787  0  0  0.10313  0.106065  0  1.030667  0
H  H12  1  0.14717180  0.06918863  0.04832272  1  0  0.097031  0  0.978941  0  0  0.102904  0  1.0489  0  0  0.105459  0  1.048908  0  0  0.101067  0.10109  0  1.049057  0
H  H13  1  0.85283294  0.56918157  0.04832315  1  0  0.096952  0  0.978923  0  0  0.102823  0  1.048914  0  0  0.105376  0  1.048923  0  0  0.101058  0.10101  0  1.04907  0
H  H14  1  0.02366053  0.19415492  0.19519251  1  0  0.112574  0  0.954089  0  0  0.121851  0  1.014971  0  0  0.125071  0  1.013572  0  0  0.106256  0.119629  0  1.01594  0
H  H15  1  0.97632793  0.69415280  0.19519109  1  0  0.112681  0  0.954303  0  0  0.121972  0  1.015133  0  0  0.125188  0  1.013731  0  0  0.10631  0.119753  0  1.016092  0
H  H16  1  0.39004044  0.40978524  0.06495913  1  0  0.095998  0  0.961972  0  0  0.104295  0  1.026054  0  0  0.106187  0  1.02739  0  0  0.10231  0.102698  0  1.025773  0
H  H17  1  0.60996337  0.90978647  0.06495703  1  0  0.09602  0  0.961963  0  0  0.104324  0  1.026035  0  0  0.106214  0  1.027373  0  0  0.102317  0.102726  0  1.025755  0
H  H18  1  0.49226251  0.26831414  0.92107667  1  0  0.094649  0  0.964297  0  0  0.101776  0  1.03278  0  0  0.105382  0  1.03057  0  0  0.103578  0.099182  0  1.03442  0
H  H19  1  0.50774256  0.76831505  0.92107442  1  0  0.094676  0  0.964298  0  0  0.101774  0  1.032846  0  0  0.105382  0  1.030632  0  0  0.103556  0.099192  0  1.034438  0
H  H20  1  0.07576240  0.45215349  0.37679737  1  0  0.439517  0  0.85939  0  0  0.406984  0  0.924716  0  0  0.417759  0  0.909347  0  0  0.295685  0.399331  0  0.93563  0
H  H21  1  0.92422123  0.95215460  0.37679633  1  0  0.439537  0  0.859391  0  0  0.407028  0  0.924687  0  0  0.417805  0  0.909315  0  0  0.29569  0.399372  0  0.935604  0
H  H22  1  0.99775889  0.63168347  0.37262476  1  0  0.411718  0  0.905594  0  0  0.378014  0  0.975442  0  0  0.3895  0  0.958672  0  0  0.287788  0.369862  0  0.987354  0
H  H23  1  0.00222153  0.13169002  0.37262846  1  0  0.411746  0  0.905527  0  0  0.378033  0  0.975386  0  0  0.389516  0  0.958623  0  0  0.287848  0.369882  0  0.987295  0
C  C24  1  0.72684987  0.75158908  0.48008969  1  0  0.662539  0  3.878056  0  0  0.61054  0  4.165026  0  0  0.646195  0  4.157193  0  0  0.219537  0.5864  0  4.169449  0
C  C25  1  0.27311969  0.25158974  0.48009111  1  0  0.6627  0  3.877873  0  0  0.61052  0  4.165067  0  0  0.646179  0  4.157223  0  0  0.219404  0.586383  0  4.169489  0
C  C26  1  0.72796742  0.82435613  0.57238090  1  0  -0.094181  0  3.779484  0  0  -0.072045  0  4.014711  0  0  -0.083662  0  4.039578  0  0  -0.025627  -0.064469  0  3.997729  0
C  C27  1  0.27202974  0.32435117  0.57237809  1  0  -0.094332  0  3.779481  0  0  -0.072165  0  4.014754  0  0  -0.083784  0  4.039618  0  0  -0.025606  -0.064588  0  3.997771  0
C  C28  1  0.92311845  0.92568056  0.59976666  1  0  -0.040183  0  3.727982  0  0  -0.065547  0  3.979105  0  0  -0.062926  0  3.998899  0  0  -0.076973  -0.066711  0  3.965442  0
C  C29  1  0.07688629  0.42568060  0.59976706  1  0  -0.040243  0  3.72776  0  0  -0.065587  0  3.978882  0  0  -0.062963  0  3.998683  0  0  -0.076995  -0.066751  0  3.965221  0
C  C30  1  0.92269545  0.99477041  0.68618199  1  0  -0.165733  0  3.717271  0  0  -0.182078  0  3.96742  0  0  -0.188706  0  3.987871  0  0  -0.092199  -0.177903  0  3.953981  0
C  C31  1  0.07733518  0.49477950  0.68618334  1  0  -0.165622  0  3.716876  0  0  -0.18187  0  3.967039  0  0  -0.188502  0  3.987492  0  0  -0.092101  -0.177693  0  3.953607  0
C  C32  1  0.72352654  0.96340492  0.74654007  1  0  0.268948  0  3.770191  0  0  0.261383  0  4.016418  0  0  0.271339  0  4.036395  0  0  0.102527  0.254599  0  4.002753  0
C  C33  1  0.27650509  0.46340558  0.74654215  1  0  0.268719  0  3.770556  0  0  0.261105  0  4.016862  0  0  0.271058  0  4.03685  0  0  0.102452  0.254321  0  4.003193  0
C  C34  1  0.52706096  0.86277425  0.71926049  1  0  -0.169895  0  3.718148  0  0  -0.187596  0  3.973229  0  0  -0.19438  0  3.993211  0  0  -0.094503  -0.182803  0  3.959654  0
C  C35  1  0.47295732  0.36277563  0.71925547  1  0  -0.170034  0  3.718298  0  0  -0.187726  0  3.973388  0  0  -0.194507  0  3.993368  0  0  -0.094589  -0.182931  0  3.959807  0
C  C36  1  0.53010728  0.79370413  0.63310498  1  0  -0.03749  0  3.737759  0  0  -0.061512  0  3.983106  0  0  -0.058493  0  4.003463  0  0  -0.078771  -0.063386  0  3.969272  0
C  C37  1  0.46988702  0.29369984  0.63309980  1  0  -0.037547  0  3.737424  0  0  -0.061477  0  3.982757  0  0  -0.058464  0  4.003108  0  0  -0.078857  -0.063346  0  3.968933  0
C  C38  1  0.90606118  0.07881314  0.88851750  1  0  0.55519  0  3.811705  0  0  0.510948  0  4.093211  0  0  0.540797  0  4.09075  0  0  0.245424  0.490968  0  4.093899  0
C  C39  1  0.09396623  0.57881043  0.88851730  1  0  0.555087  0  3.811702  0  0  0.510791  0  4.093281  0  0  0.540646  0  4.090831  0  0  0.245393  0.490808  0  4.093969  0
C  C40  1  0.82805762  0.15911948  0.97523583  1  0  -0.063774  0  3.771025  0  0  -0.042423  0  4.00344  0  0  -0.048341  0  4.025414  0  0  -0.014667  -0.038548  0  3.988395  0
C  C41  1  0.17194020  0.65911135  0.97523775  1  0  -0.063842  0  3.771068  0  0  -0.042474  0  4.003504  0  0  -0.048395  0  4.025488  0  0  -0.014669  -0.038601  0  3.988463  0
C  C42  1  0.97823462  0.14129938  0.05272541  1  0  -0.065199  0  3.719504  0  0  -0.086723  0  3.967832  0  0  -0.087255  0  3.988168  0  0  -0.079586  -0.086299  0  3.954103  0
C  C43  1  0.02176878  0.64129759  0.05272358  1  0  -0.064924  0  3.719578  0  0  -0.086441  0  3.9679  0  0  -0.086973  0  3.988238  0  0  -0.079542  -0.08602  0  3.954177  0
C  C44  1  0.91018212  0.21330180  0.13496025  1  0  -0.069203  0  3.698439  0  0  -0.093306  0  3.947727  0  0  -0.094549  0  3.967173  0  0  -0.080743  -0.091975  0  3.934386  0
C  C45  1  0.08981288  0.71329113  0.13496253  1  0  -0.069411  0  3.698417  0  0  -0.093553  0  3.947717  0  0  -0.094789  0  3.967151  0  0  -0.080788  -0.092225  0  3.934384  0
C  C46  1  0.69912866  0.31103261  0.13905247  1  0  -0.046265  0  3.744093  0  0  -0.024096  0  3.975912  0  0  -0.029332  0  3.995356  0  0  -0.007019  -0.020716  0  3.9626  0
C  C47  1  0.30086912  0.81103627  0.13904867  1  0  -0.046242  0  3.744114  0  0  -0.024046  0  3.975845  0  0  -0.029281  0  3.995289  0  0  -0.006978  -0.020667  0  3.962535  0
C  C48  1  0.55240252  0.33240319  0.06122913  1  0  -0.063899  0  3.714433  0  0  -0.084736  0  3.96256  0  0  -0.085647  0  3.981936  0  0  -0.079812  -0.084065  0  3.949593  0
C  C49  1  0.44759680  0.83240276  0.06122851  1  0  -0.063915  0  3.714676  0  0  -0.084778  0  3.962793  0  0  -0.085688  0  3.982169  0  0  -0.079819  -0.084109  0  3.949825  0
C  C50  1  0.61203533  0.25365861  0.98042740  1  0  -0.076067  0  3.730655  0  0  -0.10176  0  3.986924  0  0  -0.101712  0  4.005179  0  0  -0.083474  -0.101627  0  3.974471  0
C  C51  1  0.38797478  0.75365458  0.98042765  1  0  -0.076172  0  3.730425  0  0  -0.101856  0  3.986689  0  0  -0.10181  0  4.004944  0  0  -0.083524  -0.101711  0  3.974239  0
C  C52  1  0.62985553  0.39812359  0.22412599  1  0  0.680908  0  3.84313  0  0  0.628669  0  4.125717  0  0  0.664791  0  4.116991  0  0  0.227745  0.603946  0  4.130934  0
C  C53  1  0.37014154  0.89812407  0.22412309  1  0  0.681072  0  3.8429  0  0  0.628904  0  4.125352  0  0  0.665021  0  4.116627  0  0  0.227843  0.604182  0  4.130571  0
N  N54  1  0.70567204  0.03460894  0.83331602  1  0  -0.459442  0  3.332724  0  0  -0.401167  0  3.568423  0  0  -0.423748  0  3.576336  0  0  -0.39424  -0.385588  0  3.562452  0
N  N55  1  0.29434762  0.53461026  0.83331692  1  0  -0.458935  0  3.332645  0  0  -0.400654  0  3.568402  0  0  -0.423219  0  3.576289  0  0  -0.394088  -0.385075  0  3.562425  0
O  O56  1  0.09238504  0.54500598  0.34092158  1  0  -0.842008  0  1.935673  0  0  -0.772447  0  2.157898  0  0  -0.797201  0  2.121345  0  0  -0.57397  -0.754992  0  2.183386  0
O  O57  1  0.90760153  0.04500981  0.34092317  1  0  -0.842082  0  1.935648  0  0  -0.77255  0  2.157867  0  0  -0.797305  0  2.121306  0  0  -0.574052  -0.755093  0  2.183356  0
O  O58  1  0.89797275  0.78613944  0.42287291  1  0  -0.652199  0  2.046327  0  0  -0.585062  0  2.266778  0  0  -0.610257  0  2.254188  0  0  -0.311482  -0.567463  0  2.275142  0
O  O59  1  0.10200338  0.28614178  0.42287731  1  0  -0.652195  0  2.046323  0  0  -0.584906  0  2.266773  0  0  -0.610101  0  2.254179  0  0  -0.311344  -0.567314  0  2.275139  0
O  O60  1  0.55160641  0.65257532  0.46124309  1  0  -0.642831  0  2.031562  0  0  -0.570851  0  2.302493  0  0  -0.600009  0  2.285963  0  0  -0.320162  -0.550598  0  2.313149  0
O  O61  1  0.44833990  0.15255618  0.46124365  1  0  -0.642855  0  2.031274  0  0  -0.570807  0  2.302259  0  0  -0.599962  0  2.28572  0  0  -0.320116  -0.550551  0  2.312909  0
O  O62  1  0.13452476  0.05290179  0.86930768  1  0  -0.558001  0  1.939206  0  0  -0.515085  0  2.165027  0  0  -0.535281  0  2.159235  0  0  -0.293675  -0.500967  0  2.168698  0
O  O63  1  0.86546294  0.55288345  0.86930769  1  0  -0.558195  0  1.938887  0  0  -0.515233  0  2.164708  0  0  -0.535443  0  2.158914  0  0  -0.293772  -0.501107  0  2.168378  0
O  O64  1  0.61110329  0.33750683  0.30045179  1  0  -0.653094  0  2.077239  0  0  -0.577134  0  2.350795  0  0  -0.606078  0  2.332328  0  0  -0.30987  -0.556805  0  2.362764  0
O  O65  1  0.38887848  0.83751183  0.30045434  1  0  -0.653204  0  2.076971  0  0  -0.577262  0  2.350486  0  0  -0.606206  0  2.332019  0  0  -0.309935  -0.556932  0  2.36246  0
O  O66  1  0.58757857  0.53944303  0.21722928  1  0  -0.624688  0  2.064675  0  0  -0.549695  0  2.329004  0  0  -0.581024  0  2.317486  0  0  -0.297583  -0.528263  0  2.336954  0
O  O67  1  0.41241500  0.03943741  0.21722503  1  0  -0.624755  0  2.064756  0  0  -0.549763  0  2.329022  0  0  -0.581083  0  2.317498  0  0  -0.297621  -0.528334  0  2.336971  0
