# generated using pymatgen
data_NiH12C10(SN9)2
_symmetry_space_group_name_H-M   'P 1'
_cell_length_a   6.76831289
_cell_length_b   8.26322338
_cell_length_c   18.43103781
_cell_angle_alpha   90.00012441
_cell_angle_beta   90.00049168
_cell_angle_gamma   104.20533381
_symmetry_Int_Tables_number   1
_chemical_formula_structural   NiH12C10(SN9)2
_chemical_formula_sum   'Ni2 H24 C20 S4 N36'
_cell_volume   999.29291958
_cell_formula_units_Z   2
loop_
 _symmetry_equiv_pos_site_id
 _symmetry_equiv_pos_as_xyz
  1  'x, y, z'
loop_
 _atom_site_type_symbol
 _atom_site_label
 _atom_site_symmetry_multiplicity
 _atom_site_fract_x
 _atom_site_fract_y
 _atom_site_fract_z
 _atom_site_occupancy
 _atom_site_hle17_ddec_charge
 _atom_site_hle17_ddec_spin_density
 _atom_site_hle17_ddec_sum_bond_order
 _atom_site_hle17_magmom
 _atom_site_hse06_10hf_ddec_charge
 _atom_site_hse06_10hf_ddec_spin_density
 _atom_site_hse06_10hf_ddec_sum_bond_order
 _atom_site_hse06_10hf_magmom
 _atom_site_hse06_ddec_charge
 _atom_site_hse06_ddec_spin_density
 _atom_site_hse06_ddec_sum_bond_order
 _atom_site_hse06_magmom
 _atom_site_pbe_cm5_charge
 _atom_site_pbe_ddec_charge
 _atom_site_pbe_ddec_spin_density
 _atom_site_pbe_ddec_sum_bond_order
 _atom_site_pbe_magmom
Ni  Ni0  1  0.50000719  0.99999998  0.50000081  1  0.73096  1.854692  2.382712  1.512  0.714629  1.867978  2.799705  1.613  0.792875  1.929559  2.732731  1.696  0.717794  0.658735  1.811377  2.847246  1.539
Ni  Ni1  1  0.99999649  0.00000148  0.99999906  1  0.730986  -1.854683  2.382675  -1.512  0.714699  -1.867976  2.79965  -1.613  0.792946  -1.929559  2.732674  -1.696  0.717802  0.6588  -1.811371  2.847202  -1.539
H  H2  1  0.56988389  0.25903536  0.35418622  1  0.128871  -0.000113  0.93218  0.0  0.138171  -0.000112  0.993623  0.0  0.140192  -7.7e-05  0.990081  0.0  0.147502  0.136308  -0.000144  0.996022  0.0
H  H3  1  0.93011871  0.74096339  0.85418330  1  0.128798  0.000113  0.932228  0.0  0.138113  0.000112  0.993668  0.0  0.140129  7.7e-05  0.990129  0.0  0.147445  0.136252  0.000144  0.996063  0.0
H  H4  1  0.43013451  0.74095919  0.64581928  1  0.128779  -0.000113  0.93239  0.0  0.138219  -0.000112  0.993676  0.0  0.14016  -7.7e-05  0.990237  0.0  0.147496  0.136384  -0.000144  0.996054  0.0
H  H5  1  0.06987562  0.25903977  0.14581785  1  0.128779  0.000113  0.932311  0.0  0.138171  0.000112  0.993659  0.0  0.140146  7.7e-05  0.990171  0.0  0.147478  0.136314  0.000144  0.996054  0.0
H  H6  1  0.91312503  0.89732450  0.45248161  1  0.128964  -9.5e-05  0.960312  0.0  0.128986  -5e-05  1.036095  0.0  0.131534  -3.5e-05  1.031716  0.0  0.149894  0.126859  -6.1e-05  1.039085  0.0
H  H7  1  0.58687672  0.10267398  0.95247967  1  0.128966  9.6e-05  0.960308  0.0  0.128996  5e-05  1.036075  0.0  0.131541  3.5e-05  1.031695  0.0  0.149886  0.126867  6.1e-05  1.039062  0.0
H  H8  1  0.08687934  0.10265752  0.54752281  1  0.128923  -9.6e-05  0.960269  0.0  0.128885  -5e-05  1.036166  0.0  0.131431  -3.5e-05  1.031788  0.0  0.149883  0.126757  -6.1e-05  1.039156  0.0
H  H9  1  0.41311575  0.89733291  0.04752094  1  0.129  9.6e-05  0.960268  0.0  0.128987  5e-05  1.03613  0.0  0.131532  3.5e-05  1.03175  0.0  0.149883  0.12686  6.1e-05  1.039118  0.0
H  H10  1  0.09528103  0.47948058  0.30149561  1  0.098855  2.7e-05  0.930531  0.0  0.109975  3.7e-05  1.001019  0.0  0.110971  2.1e-05  0.998844  0.0  0.118729  0.108972  5.4e-05  1.002233  0.0
H  H11  1  0.40471860  0.52051616  0.80149186  1  0.098797  -2.7e-05  0.930643  0.0  0.10993  -3.7e-05  1.001124  0.0  0.110926  -2.1e-05  0.998942  0.0  0.118709  0.108932  -5.4e-05  1.002333  0.0
H  H12  1  0.90472110  0.52050891  0.69850283  1  0.098898  2.8e-05  0.930531  0.0  0.10996  3.7e-05  1.00107  0.0  0.110955  2.1e-05  0.998891  0.0  0.118722  0.108958  5.4e-05  1.002283  0.0
H  H13  1  0.59527314  0.47948824  0.19850604  1  0.098867  -2.7e-05  0.930642  0.0  0.109896  -3.7e-05  1.001201  0.0  0.110892  -2.1e-05  0.999022  0.0  0.118719  0.108893  -5.4e-05  1.002411  0.0
H  H14  1  0.83944300  0.46119697  0.27499209  1  0.089826  -1.9e-05  0.94277  0.0  0.098341  1.3e-05  1.019151  0.0  0.099791  1.4e-05  1.016413  0.0  0.114344  0.097092  9e-06  1.020557  0.0
H  H15  1  0.66054615  0.53879718  0.77498972  1  0.089747  1.9e-05  0.942885  0.0  0.098278  -1.3e-05  1.019236  0.0  0.099727  -1.4e-05  1.016495  0.0  0.114338  0.097034  -9e-06  1.020637  0.0
H  H16  1  0.16055693  0.53879001  0.72501015  1  0.089785  -1.9e-05  0.942915  0.0  0.098289  1.3e-05  1.019304  0.0  0.09974  1.5e-05  1.016561  0.0  0.114361  0.097043  9e-06  1.020705  0.0
H  H17  1  0.33943930  0.46120594  0.22501035  1  0.089797  1.9e-05  0.942915  0.0  0.098286  -1.3e-05  1.019292  0.0  0.099738  -1.4e-05  1.016548  0.0  0.114341  0.097038  -9e-06  1.020692  0.0
H  H18  1  0.03439022  0.76070126  0.29131607  1  0.101149  5e-06  0.9365  0.0  0.109557  -7e-06  1.006545  0.0  0.110089  -2e-06  1.005689  0.0  0.113554  0.108907  -8e-06  1.006772  0.0
H  H19  1  0.46560027  0.23929534  0.79131444  1  0.101153  -4e-06  0.936596  0.0  0.109556  7e-06  1.006676  0.0  0.110092  2e-06  1.005803  0.0  0.113573  0.108904  9e-06  1.006899  0.0
H  H20  1  0.96561191  0.23928823  0.70868183  1  0.101086  4e-06  0.936561  0.0  0.109456  -7e-06  1.006655  0.0  0.109995  -2e-06  1.005785  0.0  0.113489  0.108802  -9e-06  1.006887  0.0
H  H21  1  0.53438887  0.76071030  0.20868618  1  0.101213  -4e-06  0.9366  0.0  0.109596  7e-06  1.006673  0.0  0.11013  2e-06  1.005808  0.0  0.113596  0.108942  9e-06  1.006902  0.0
H  H22  1  0.09701705  0.71779777  0.38180211  1  0.108305  -4.8e-05  0.952813  0.0  0.108357  -6e-06  1.039045  0.0  0.109909  -1.3e-05  1.036572  0.0  0.121889  0.106945  3e-06  1.040468  0.0
H  H23  1  0.40298200  0.28220600  0.88180085  1  0.108285  4.8e-05  0.95271  0.0  0.108334  6e-06  1.039004  0.0  0.109885  1.3e-05  1.036525  0.0  0.121872  0.10692  -3e-06  1.040427  0.0
H  H24  1  0.90299430  0.28220298  0.61819579  1  0.108311  -4.8e-05  0.952857  0.0  0.108345  -6e-06  1.039077  0.0  0.109898  -1.3e-05  1.036601  0.0  0.121918  0.106933  3e-06  1.040497  0.0
H  H25  1  0.59700715  0.71779963  0.11820031  1  0.108316  4.8e-05  0.952862  0.0  0.108396  6e-06  1.039023  0.0  0.109948  1.3e-05  1.036542  0.0  0.121899  0.106979  -2e-06  1.040446  0.0
C  C26  1  0.69959297  0.27881549  0.39045950  1  0.169105  -0.004985  3.594764  -0.005  0.092454  -0.001157  3.859322  -0.001  0.117585  -0.001673  3.875198  -0.002  0.183523  0.082957  -0.000867  3.851418  0.0
C  C27  1  0.80040794  0.72118486  0.89045613  1  0.169198  0.004986  3.594664  0.005  0.09251  0.001157  3.859303  0.001  0.117717  0.001673  3.875204  0.002  0.183566  0.083027  0.000867  3.851391  0.0
C  C28  1  0.30042541  0.72118404  0.60954383  1  0.169038  -0.004985  3.594759  -0.005  0.092275  -0.001157  3.859436  -0.001  0.117518  -0.001673  3.875376  -0.002  0.183477  0.082769  -0.000867  3.85152  0.0
C  C29  1  0.19958121  0.27881579  0.10954285  1  0.169026  0.004984  3.594595  0.005  0.092348  0.001157  3.859323  0.001  0.117581  0.001673  3.875245  0.002  0.183523  0.082861  0.000867  3.851409  0.0
C  C30  1  0.78532623  0.83254819  0.41983806  1  0.168195  -0.00557  3.612045  -0.006  0.088859  -0.001739  3.887374  -0.002  0.113064  -0.002223  3.902641  -0.002  0.181982  0.079533  -0.001429  3.879489  -0.001
C  C31  1  0.71467284  0.16745369  0.91983661  1  0.16812  0.005566  3.612057  0.006  0.088765  0.001739  3.887388  0.002  0.113053  0.002222  3.902677  0.002  0.181939  0.079441  0.001428  3.8795  0.001
C  C32  1  0.21468146  0.16744007  0.58016256  1  0.168236  -0.005569  3.611869  -0.006  0.088914  -0.001739  3.887257  -0.002  0.113117  -0.002222  3.902532  -0.002  0.181975  0.079588  -0.001429  3.879368  -0.001
C  C33  1  0.28531556  0.83255444  0.08016346  1  0.16811  0.005565  3.61183  0.006  0.088681  0.001739  3.887229  0.002  0.112949  0.002223  3.90253  0.002  0.181941  0.079361  0.001429  3.879334  0.001
C  C34  1  0.94896700  0.50030166  0.31914607  1  -0.02989  0.000497  3.647943  0.001  -0.111034  0.000421  3.915352  0.001  -0.096415  0.000319  3.925063  0.0  -0.041166  -0.113303  0.000518  3.90897  0.001
C  C35  1  0.55102844  0.49969546  0.81914384  1  -0.029904  -0.000497  3.648149  -0.001  -0.110976  -0.000421  3.915507  -0.001  -0.096291  -0.000319  3.925222  0.0  -0.04113  -0.113233  -0.000518  3.909095  -0.001
C  C36  1  0.05104511  0.49969161  0.68085563  1  -0.029998  0.000496  3.648278  0.001  -0.110945  0.000421  3.915485  0.001  -0.096275  0.000318  3.925211  0.0  -0.041195  -0.113208  0.000518  3.909107  0.001
C  C37  1  0.44895923  0.50031017  0.18085677  1  -0.030091  -0.000499  3.648453  -0.001  -0.110888  -0.000421  3.915553  -0.001  -0.096213  -0.000319  3.925272  0.0  -0.041159  -0.113147  -0.000518  3.909158  -0.001
C  C38  1  0.98115033  0.68313010  0.33923135  1  -0.046104  0.000317  3.612371  0.0  -0.119019  0.000263  3.867417  0.0  -0.10617  0.000193  3.878287  0.0  -0.045182  -0.120411  0.000333  3.860172  0.0
C  C39  1  0.51884673  0.31686598  0.83922722  1  -0.045888  -0.000318  3.612219  0.0  -0.118936  -0.000264  3.867364  0.0  -0.106008  -0.000193  3.878238  0.0  -0.045152  -0.12032  -0.000334  3.860107  0.0
C  C40  1  0.01885253  0.31686687  0.66076926  1  -0.046033  0.00032  3.612448  0.0  -0.118846  0.000264  3.867293  0.0  -0.105995  0.000194  3.87815  0.0  -0.045107  -0.120237  0.000333  3.86004  0.0
C  C41  1  0.48114687  0.68313469  0.16077285  1  -0.046168  -0.000317  3.612776  0.0  -0.11914  -0.000264  3.867755  0.0  -0.10622  -0.000193  3.878622  0.0  -0.045274  -0.120517  -0.000334  3.86048  0.0
C  C42  1  0.22703358  0.07814228  0.37376667  1  0.273246  -0.005223  4.058917  -0.003  0.270622  0.002124  4.364146  0.006  0.295946  0.000992  4.377541  0.004  0.128308  0.252788  0.00295  4.354982  0.008
C  C43  1  0.27296084  0.92185641  0.87376123  1  0.273199  0.005226  4.058776  0.003  0.270586  -0.002127  4.363991  -0.006  0.295909  -0.000992  4.377397  -0.004  0.128266  0.25275  -0.002954  4.354823  -0.008
C  C44  1  0.77297517  0.92185970  0.62623340  1  0.27342  -0.005222  4.059211  -0.003  0.27079  0.002125  4.364442  0.006  0.296121  0.000992  4.377813  0.004  0.128387  0.252954  0.002951  4.355279  0.008
C  C45  1  0.72703571  0.07814926  0.12623450  1  0.273257  0.005221  4.058837  0.003  0.270637  -0.002126  4.364092  -0.006  0.295963  -0.000994  4.377475  -0.004  0.128357  0.252804  -0.002953  4.354922  -0.008
S  S46  1  0.13589885  0.12268766  0.29724833  1  -0.372366  0.014358  2.02076  0.017  -0.375131  0.003145  2.323842  0.004  -0.389829  0.001228  2.319005  0.002  -0.200076  -0.364  0.00572  2.326507  0.007
S  S47  1  0.36408993  0.87731272  0.79724803  1  -0.372326  -0.01436  2.021068  -0.017  -0.375104  -0.003148  2.324154  -0.004  -0.3898  -0.001229  2.319314  -0.002  -0.200087  -0.363972  -0.005724  2.326821  -0.007
S  S48  1  0.86410658  0.87731306  0.70275120  1  -0.372424  0.014361  2.020706  0.017  -0.375185  0.003148  2.323782  0.004  -0.38988  0.001228  2.318931  0.002  -0.200094  -0.364047  0.005722  2.326449  0.007
S  S49  1  0.63590697  0.12269419  0.20275204  1  -0.372389  -0.014365  2.020775  -0.017  -0.375163  -0.003149  2.323863  -0.004  -0.389856  -0.001231  2.319013  -0.002  -0.200099  -0.364023  -0.005725  2.326525  -0.007
N  N50  1  0.71167884  0.19976228  0.45235833  1  -0.223246  0.050342  3.202527  0.074  -0.196669  0.037221  3.524342  0.056  -0.221428  0.030589  3.53824  0.047  -0.213087  -0.179126  0.042984  3.512143  0.063
N  N51  1  0.78832437  0.80024120  0.95235608  1  -0.223381  -0.05034  3.202234  -0.074  -0.196721  -0.03722  3.523999  -0.056  -0.221476  -0.030589  3.537868  -0.047  -0.213048  -0.179182  -0.042983  3.511802  -0.063
N  N52  1  0.28834212  0.80024101  0.54764554  1  -0.223227  0.050341  3.202297  0.074  -0.196469  0.037222  3.523973  0.056  -0.221218  0.030586  3.537833  0.047  -0.212983  -0.178937  0.042983  3.511787  0.063
N  N53  1  0.21166367  0.19976069  0.04764236  1  -0.223306  -0.050337  3.202387  -0.074  -0.196617  -0.03722  3.524108  -0.056  -0.221368  -0.030586  3.537972  -0.047  -0.213062  -0.179076  -0.042982  3.511908  -0.063
N  N54  1  0.90224619  0.26343693  0.47907177  1  -0.039566  -0.002718  2.945325  -0.004  -0.032327  -0.000607  3.262952  -0.001  -0.030468  -0.000944  3.271052  -0.002  -0.057597  -0.033331  -0.000407  3.255229  -0.001
N  N55  1  0.59775512  0.73656307  0.97906883  1  -0.039511  0.002719  2.944978  0.004  -0.032294  0.000607  3.262595  0.001  -0.030433  0.000945  3.27067  0.002  -0.057637  -0.033289  0.000407  3.254865  0.001
N  N56  1  0.09777256  0.73656385  0.52093210  1  -0.039637  -0.00272  2.945289  -0.004  -0.03245  -0.000607  3.262893  -0.001  -0.030591  -0.000945  3.270977  -0.002  -0.057619  -0.033445  -0.000407  3.255163  -0.001
N  N57  1  0.40223255  0.26344256  0.02093016  1  -0.039501  0.002715  2.945172  0.004  -0.032248  0.000608  3.262718  0.001  -0.03039  0.000943  3.270801  0.002  -0.057523  -0.033244  0.000407  3.254988  0.001
N  N58  1  0.00514105  0.37685833  0.43585193  1  -0.073766  0.003049  2.84039  0.004  -0.097611  0.001879  3.126102  0.003  -0.085189  0.001277  3.140952  0.002  -0.064879  -0.098714  0.002621  3.120072  0.004
N  N59  1  0.49486122  0.62314225  0.93584803  1  -0.073917  -0.00305  2.84009  -0.004  -0.09775  -0.001879  3.125861  -0.003  -0.085253  -0.001277  3.14075  -0.002  -0.064891  -0.09884  -0.002621  3.119831  -0.004
N  N60  1  0.99488029  0.62314121  0.56415140  1  -0.073954  0.003052  2.840423  0.004  -0.097741  0.001879  3.126266  0.003  -0.085261  0.001277  3.141148  0.002  -0.064933  -0.098832  0.002621  3.120233  0.004
N  N61  1  0.50512422  0.37686586  0.06415095  1  -0.074091  -0.003047  2.840211  -0.004  -0.097859  -0.001879  3.126078  -0.003  -0.085369  -0.001277  3.140964  -0.002  -0.064987  -0.098949  -0.002621  3.120048  -0.004
N  N62  1  0.87954075  0.38864737  0.38003721  1  0.022917  0.001598  3.560436  0.002  0.143131  0.000831  3.750345  0.001  0.099223  0.000744  3.813543  0.001  -0.119451  0.150473  0.000968  3.735272  0.001
N  N63  1  0.62046102  0.61135163  0.88003260  1  0.023169  -0.001596  3.56021  -0.002  0.14328  -0.000831  3.750218  -0.001  0.099154  -0.000744  3.813669  -0.001  -0.119444  0.150572  -0.000967  3.735245  -0.001
N  N64  1  0.12047949  0.61134842  0.61996557  1  0.023424  0.001596  3.559897  0.002  0.143323  0.00083  3.750207  0.001  0.099253  0.000749  3.813572  0.001  -0.119399  0.150611  0.000968  3.735234  0.001
N  N65  1  0.37952516  0.38865399  0.11996638  1  0.023577  -0.001597  3.559741  -0.002  0.143354  -0.000831  3.750149  -0.001  0.099253  -0.000745  3.813553  -0.001  -0.119417  0.150642  -0.000968  3.735173  -0.001
N  N66  1  0.79723987  0.72445600  0.36689256  1  0.038742  0.001845  3.519653  0.003  0.156108  0.000844  3.709173  0.001  0.114437  0.000783  3.769365  0.001  -0.118692  0.163507  0.000989  3.693686  0.001
N  N67  1  0.70275676  0.27554160  0.86688954  1  0.03858  -0.001844  3.519614  -0.003  0.156115  -0.000845  3.708994  -0.001  0.114225  -0.000781  3.769408  -0.001  -0.118638  0.163514  -0.000989  3.6935  -0.001
N  N68  1  0.20276447  0.27553598  0.63310643  1  0.038761  0.001843  3.519341  0.003  0.156043  0.000845  3.708926  0.001  0.114379  0.000782  3.769097  0.001  -0.118659  0.163447  0.000989  3.693431  0.001
N  N69  1  0.29723386  0.72446405  0.13310945  1  0.038786  -0.001843  3.519342  -0.003  0.156288  -0.000844  3.708709  -0.001  0.114428  -0.000783  3.769111  -0.001  -0.118536  0.163664  -0.000989  3.693253  -0.001
N  N70  1  0.60780870  0.66353537  0.33887806  1  -0.118676  0.003107  2.84668  0.005  -0.126579  0.002227  3.123932  0.003  -0.117087  0.001527  3.139426  0.002  -0.073327  -0.126093  0.00302  3.117449  0.004
N  N71  1  0.89218686  0.33646070  0.83887518  1  -0.118706  -0.003107  2.846683  -0.005  -0.126624  -0.002228  3.123855  -0.003  -0.11706  -0.001527  3.139386  -0.002  -0.073386  -0.126136  -0.00302  3.117371  -0.004
N  N72  1  0.39219859  0.33646162  0.66111876  1  -0.11874  0.00311  2.846724  0.005  -0.126649  0.002227  3.124046  0.003  -0.117163  0.001529  3.139536  0.002  -0.073415  -0.126163  0.00302  3.117563  0.004
N  N73  1  0.10780339  0.66354369  0.16112272  1  -0.118604  -0.003103  2.846686  -0.005  -0.126568  -0.002228  3.123962  -0.003  -0.117013  -0.001527  3.139487  -0.002  -0.073346  -0.126076  -0.003021  3.117477  -0.004
N  N74  1  0.48548744  0.73397158  0.37469518  1  -0.027516  -0.001876  2.888009  -0.003  -0.023447  0.000129  3.19  0.0  -0.018593  -0.000294  3.197008  -0.001  -0.06212  -0.026694  0.000382  3.183532  0.0
N  N75  1  0.01451071  0.26602463  0.87469262  1  -0.027551  0.001875  2.887981  0.003  -0.023465  -0.000129  3.190021  0.0  -0.018609  0.000293  3.197015  0.001  -0.06216  -0.026712  -0.000382  3.183552  0.0
N  N76  1  0.51452243  0.26602916  0.62530109  1  -0.02747  -0.001877  2.888289  -0.003  -0.023401  0.000128  3.190258  0.0  -0.018544  -0.000295  3.197269  -0.001  -0.062064  -0.026649  0.000382  3.183788  0.0
N  N77  1  0.98547660  0.73397476  0.12530420  1  -0.027604  0.00187  2.888241  0.003  -0.023571  -0.000129  3.190262  0.0  -0.018715  0.000292  3.19725  0.001  -0.062194  -0.026817  -0.000382  3.183789  0.0
N  N78  1  0.59226901  0.83976075  0.42528453  1  -0.222098  0.050985  3.192913  0.075  -0.195537  0.037852  3.514075  0.057  -0.220742  0.030901  3.527667  0.048  -0.211768  -0.177627  0.043925  3.502302  0.064
N  N79  1  0.90772946  0.16023870  0.92528154  1  -0.221903  -0.050982  3.192827  -0.075  -0.195441  -0.037851  3.514071  -0.057  -0.220659  -0.030901  3.527658  -0.048  -0.211698  -0.177531  -0.043925  3.502295  -0.064
N  N80  1  0.40774235  0.16023501  0.57471337  1  -0.222104  0.050987  3.192887  0.075  -0.195489  0.037854  3.513996  0.057  -0.220701  0.030901  3.527596  0.048  -0.211759  -0.177578  0.043927  3.50222  0.064
N  N81  1  0.09225747  0.83976444  0.07471581  1  -0.222019  -0.050981  3.192828  -0.075  -0.195373  -0.037852  3.513934  -0.057  -0.220579  -0.030898  3.527509  -0.048  -0.21171  -0.177461  -0.043926  3.502155  -0.064
N  N82  1  0.28752805  0.04104903  0.43049118  1  -0.540399  0.048079  3.027146  0.068  -0.524494  0.032846  3.333396  0.045  -0.553224  0.027562  3.338118  0.038  -0.411272  -0.504375  0.037396  3.330414  0.051
N  N83  1  0.21247334  0.95895399  0.93049262  1  -0.540422  -0.048092  3.026789  -0.068  -0.524537  -0.032845  3.33307  -0.045  -0.553266  -0.027565  3.337782  -0.038  -0.411225  -0.504419  -0.037397  3.330094  -0.051
N  N84  1  0.71248849  0.95894924  0.56950890  1  -0.540573  0.048077  3.027595  0.068  -0.524658  0.032845  3.333811  0.045  -0.553406  0.027563  3.338564  0.038  -0.411383  -0.504547  0.037396  3.330849  0.051
N  N85  1  0.78751026  0.04105287  0.06950745  1  -0.540452  -0.048075  3.027129  -0.068  -0.524536  -0.032842  3.333338  -0.045  -0.553293  -0.027557  3.338117  -0.038  -0.411332  -0.504429  -0.037392  3.330382  -0.051
