# generated using pymatgen
data_Zr3H37C54NO16
_symmetry_space_group_name_H-M   'P 1'
_cell_length_a   19.02407263
_cell_length_b   19.01962660
_cell_length_c   19.02575061
_cell_angle_alpha   59.98337917
_cell_angle_beta   59.98282261
_cell_angle_gamma   60.01095583
_symmetry_Int_Tables_number   1
_chemical_formula_structural   Zr3H37C54NO16
_chemical_formula_sum   'Zr6 H74 C108 N2 O32'
_cell_volume   4866.95389716
_cell_formula_units_Z   2
loop_
 _symmetry_equiv_pos_site_id
 _symmetry_equiv_pos_as_xyz
  1  'x, y, z'
loop_
 _atom_site_type_symbol
 _atom_site_label
 _atom_site_symmetry_multiplicity
 _atom_site_fract_x
 _atom_site_fract_y
 _atom_site_fract_z
 _atom_site_occupancy
 _atom_site_pbe_bader_charge
 _atom_site_pbe_bader_spin_density
 _atom_site_pbe_cm5_charge
 _atom_site_pbe_ddec_charge
 _atom_site_pbe_ddec_spin_density
 _atom_site_pbe_ddec_sum_bond_order
 _atom_site_pbe_magmom
Zr  Zr0  1  0.90691282  0.90654669  0.59336938  1  2.635082  0  1.624835  2.372499  0  2.761913  0
Zr  Zr1  1  0.09319496  0.09214874  0.40772785  1  2.636254  0  1.625636  2.372709  0  2.762345  0
Zr  Zr2  1  0.09264281  0.90635716  0.59368994  1  2.634403  0  1.623326  2.372497  0  2.76125  0
Zr  Zr3  1  0.90730045  0.09253225  0.40753944  1  2.634796  0  1.623999  2.372613  0  2.762413  0
Zr  Zr4  1  0.09288807  0.90652665  0.40761839  1  2.637082  0  1.624798  2.372762  0  2.761968  0
Zr  Zr5  1  0.90707877  0.09238109  0.59344163  1  2.63552  0  1.624906  2.372781  0  2.761197  0
H  H6  1  0.07281022  0.77993127  0.57377491  1  0.591207  0  0.330807  0.422732  0  0.856209  0
H  H7  1  0.07347802  0.07255288  0.28111566  1  0.603438  0  0.330664  0.422082  0  0.857168  0
H  H8  1  0.07306715  0.07236882  0.57388559  1  0.597124  0  0.33077  0.422019  0  0.85721  0
H  H9  1  0.78063726  0.07278864  0.57351428  1  0.597765  0  0.330236  0.421415  0  0.857441  0
H  H10  1  0.12157619  0.31116114  0.39861825  1  0.076305  0  0.104683  0.113649  0  1.00633  0
H  H11  1  0.87516718  0.33450086  0.59860702  1  0.111163  0  0.10458  0.11376  0  1.006144  0
H  H12  1  0.89821783  0.66802092  0.62190398  1  0.043167  0  0.104155  0.113314  0  1.007661  0
H  H13  1  0.09796554  0.69139751  0.37531035  1  0.081695  0  0.10478  0.11409  0  1.005428  0
H  H14  1  0.18784331  0.42494768  0.42243621  1  0.026428  0  0.095071  0.093275  0  0.967458  0
H  H15  1  0.18340129  0.42623119  0.33105441  1  0.028149  0  0.094694  0.093489  0  0.97692  0
H  H16  1  0.81035217  0.53563900  0.57875154  1  0.029136  0  0.095715  0.095068  0  0.966198  0
H  H17  1  0.81633553  0.44053643  0.66950637  1  0.02064  0  0.094136  0.092646  0  0.977606  0
H  H18  1  0.92227174  0.46407788  0.68812647  1  0.037183  0  0.095521  0.094832  0  0.966092  0
H  H19  1  0.83086035  0.55859572  0.68381540  1  -0.010727  0  0.094058  0.092364  0  0.978294  0
H  H20  1  0.07853671  0.57474611  0.31047939  1  0.026739  0  0.096939  0.097558  0  0.963603  0
H  H21  1  0.16918070  0.57303214  0.31664912  1  0.007803  0  0.094664  0.093236  0  0.97704  0
H  H22  1  0.31138997  0.12118262  0.16892018  1  0.044234  0  0.103952  0.113068  0  1.007831  0
H  H23  1  0.33511562  0.87459496  0.19200555  1  0.079392  0  0.105032  0.114576  0  1.005244  0
H  H24  1  0.66823742  0.89802122  0.81194179  1  0.07596  0  0.104813  0.113914  0  1.006346  0
H  H25  1  0.69142244  0.09796537  0.83525892  1  0.082101  0  0.104564  0.113729  0  1.005836  0
H  H26  1  0.42479831  0.18770827  0.96480056  1  0.036858  0  0.095466  0.094451  0  0.965875  0
H  H27  1  0.42611389  0.18341062  0.05924652  1  0.0164  0  0.093909  0.092314  0  0.978274  0
H  H28  1  0.53591561  0.81005498  0.07515242  1  0.066054  0  0.097091  0.097629  0  0.964084  0
H  H29  1  0.44076876  0.81616755  0.07356826  1  0.009166  0  0.094646  0.093267  0  0.977028  0
H  H30  1  0.46415506  0.92222225  0.92555556  1  0.002808  0  0.094773  0.093313  0  0.967376  0
H  H31  1  0.55872464  0.83083423  0.92661956  1  0.027733  0  0.094768  0.093463  0  0.977183  0
H  H32  1  0.57473115  0.07863390  0.03607246  1  0.03617  0  0.095661  0.094941  0  0.966203  0
H  H33  1  0.57285100  0.16933886  0.94097245  1  0.034871  0  0.094207  0.092563  0  0.977868  0
H  H34  1  0.89855296  0.12120985  0.81183917  1  0.081388  0  0.104138  0.112938  0  1.00773  0
H  H35  1  0.09795668  0.87445260  0.83598586  1  0.047548  0  0.104361  0.113612  0  1.005924  0
H  H36  1  0.12168702  0.89825657  0.16873118  1  0.074704  0  0.104531  0.113696  0  1.006552  0
H  H37  1  0.87527032  0.09802579  0.19181751  1  0.081011  0  0.102956  0.111539  0  1.008573  0
H  H38  1  0.92271890  0.18766925  0.92525535  1  0.030626  0  0.094909  0.093714  0  0.966758  0
H  H39  1  0.83124198  0.18338484  0.92652581  1  0.002963  0  0.09416  0.092727  0  0.977683  0
H  H40  1  0.07866266  0.80998128  0.03648932  1  0.030341  0  0.097574  0.098677  0  0.963489  0
H  H41  1  0.16927133  0.81608468  0.94150652  1  -0.010169  0  0.094126  0.093028  0  0.979254  0
H  H42  1  0.18793050  0.92220614  0.96479203  1  0.038088  0  0.095088  0.093601  0  0.967166  0
H  H43  1  0.18361672  0.83079414  0.05937724  1  0.0224  0  0.094678  0.093638  0  0.976765  0
H  H44  1  0.81050815  0.07851080  0.07519777  1  0.026338  0  0.096089  0.095973  0  0.965873  0
H  H45  1  0.81671698  0.16924244  0.07331152  1  0.000123  0  0.092312  0.089692  0  0.981012  0
H  H46  1  0.31168590  0.66814453  0.39870968  1  0.076656  0  0.104434  0.113383  0  1.00688  0
H  H47  1  0.33533239  0.69124247  0.59841063  1  0.07863  0  0.10317  0.111866  0  1.008502  0
H  H48  1  0.66854573  0.31118839  0.62186382  1  0.042433  0  0.104115  0.11325  0  1.007165  0
H  H49  1  0.69192336  0.33506022  0.37516030  1  0.08573  0  0.104236  0.113192  0  1.006621  0
H  H50  1  0.42555921  0.46445972  0.42225157  1  0.00806  0  0.094916  0.093286  0  0.967076  0
H  H51  1  0.42692179  0.55904431  0.33087166  1  0.001714  0  0.094552  0.093294  0  0.977048  0
H  H52  1  0.53641234  0.57462929  0.57867246  1  0.033572  0  0.095981  0.095929  0  0.965727  0
H  H53  1  0.44130914  0.57298239  0.66936982  1  0.029266  0  0.092454  0.08987  0  0.98118  0
H  H54  1  0.46464264  0.42492509  0.68799893  1  0.038682  0  0.095071  0.093881  0  0.966833  0
H  H55  1  0.55918829  0.42605130  0.68375227  1  0.011641  0  0.094264  0.093147  0  0.977504  0
H  H56  1  0.57557487  0.53585447  0.31028960  1  -0.001877  0  0.097584  0.098736  0  0.963361  0
H  H57  1  0.57371648  0.44093034  0.31640078  1  0.018261  0  0.094038  0.093092  0  0.978982  0
H  H58  1  0.11191333  0.32280959  0.18002191  1  0.065408  0  0.104564  0.113876  0  1.002268  0
H  H59  1  0.17757612  0.43485981  0.06717572  1  0.008141  0  0.096428  0.110067  0  1.005537  0
H  H60  1  0.88480350  0.32271937  0.18570787  1  0.042534  0  0.103311  0.104776  0  1.031486  0
H  H61  1  0.88543163  0.67857200  0.82407146  1  0.072843  0  0.104733  0.113316  0  1.002443  0
H  H62  1  0.82055148  0.56573271  0.93615606  1  0.036314  0  0.096561  0.110046  0  1.005819  0
H  H63  1  0.10682930  0.68438206  0.82412676  1  0.051936  0  0.103158  0.104674  0  1.031009  0
H  H64  1  0.31162415  0.89762041  0.62258312  1  0.070023  0  0.10385  0.112857  0  1.007673  0
H  H65  1  0.33488001  0.09743547  0.37601480  1  0.059408  0  0.104861  0.114345  0  1.00526  0
H  H66  1  0.66844622  0.12139972  0.39851549  1  0.055409  0  0.103637  0.112223  0  1.008081  0
H  H67  1  0.69170863  0.87484814  0.59834438  1  0.081598  0  0.105025  0.114573  0  1.005283  0
H  H68  1  0.42548232  0.92206946  0.68837095  1  0.027698  0  0.095693  0.094802  0  0.966761  0
H  H69  1  0.42648564  0.83055705  0.68440345  1  0.008437  0  0.094081  0.092787  0  0.977741  0
H  H70  1  0.53566266  0.07832387  0.31079049  1  0.029411  0  0.095868  0.095386  0  0.966204  0
H  H71  1  0.44055954  0.16894772  0.31721095  1  0.018748  0  0.094869  0.093752  0  0.976772  0
H  H72  1  0.46454921  0.18756030  0.42272021  1  0.038811  0  0.095158  0.093839  0  0.966207  0
H  H73  1  0.55894873  0.18321091  0.33117563  1  -0.007914  0  0.093971  0.092142  0  0.977867  0
H  H74  1  0.57496174  0.80993550  0.57907446  1  0.02745  0  0.096035  0.09551  0  0.966141  0
H  H75  1  0.57349037  0.81607288  0.66962339  1  0.008427  0  0.094379  0.093169  0  0.976956  0
H  H76  1  0.20434206  0.61159550  0.86843556  1  0.446417  0  0.301651  0.292653  0  0.966611  0
H  H77  1  0.24194627  0.53977765  0.95128380  1  0.41302  0  0.305037  0.296291  0  0.946411  0
H  H78  1  0.81547366  0.36724800  0.11336097  1  0.42332  0  0.301989  0.292607  0  0.968345  0
H  H79  1  0.76713307  0.44979413  0.04114959  1  0.424949  0  0.305221  0.296505  0  0.945781  0
C  C80  1  0.99742886  0.76560671  0.49820433  1  1.54134  0  0.233188  0.637775  0  4.100229  0
C  C81  1  0.23860382  0.99722818  0.26658909  1  1.535698  0  0.232983  0.6386  0  4.099349  0
C  C82  1  0.99798265  0.23787647  0.49813145  1  1.538137  0  0.23443  0.639869  0  4.095932  0
C  C83  1  0.76588303  0.99716594  0.73891685  1  1.538944  0  0.233846  0.639163  0  4.098543  0
C  C84  1  0.99704665  0.76527347  0.73938915  1  1.549768  0  0.234789  0.642544  0  4.092789  0
C  C85  1  0.76600921  0.99768152  0.49781539  1  1.550564  0  0.233008  0.637487  0  4.100608  0
C  C86  1  0.99831265  0.23811453  0.26658634  1  1.53544  0  0.234426  0.64127  0  4.095822  0
C  C87  1  0.23851606  0.99670367  0.49881688  1  1.53603  0  0.233647  0.640123  0  4.098834  0
C  C88  1  0.23837920  0.76533474  0.49834422  1  1.532449  0  0.232979  0.638495  0  4.098573  0
C  C89  1  0.99757750  0.99718580  0.73916733  1  1.546565  0  0.233417  0.639005  0  4.098524  0
C  C90  1  0.76612516  0.23816989  0.49813629  1  1.533156  0  0.233631  0.638866  0  4.097747  0
C  C91  1  0.99793918  0.99754200  0.26625045  1  1.541724  0  0.233026  0.638109  0  4.099582  0
C  C92  1  0.14513168  0.45058487  0.38556998  1  -0.052404  0  -0.155691  -0.18435  0  3.986515  0
C  C93  1  0.85391317  0.48171877  0.61468616  1  0.012589  0  -0.155441  -0.185069  0  3.98633  0
C  C94  1  0.88532597  0.51802273  0.64548613  1  0.007221  0  -0.155929  -0.185447  0  3.987079  0
C  C95  1  0.11434660  0.54913521  0.35414852  1  0.05146  0  -0.154707  -0.185277  0  3.984228  0
C  C96  1  0.06828457  0.34577391  0.44231913  1  -0.074941  0  -0.088481  -0.160784  0  3.970968  0
C  C97  1  0.06988473  0.41784286  0.44286439  1  0.064036  0  -0.007513  0.079923  0  3.962224  0
C  C98  1  0.92891981  0.35896070  0.55547193  1  -0.110528  0  -0.088203  -0.160381  0  3.970202  0
C  C99  1  0.92858164  0.43181174  0.55643828  1  0.036259  0  -0.007692  0.079911  0  3.960914  0
C  C100  1  0.94184784  0.64306096  0.56856262  1  -0.054197  0  -0.090026  -0.164126  0  3.975529  0
C  C101  1  0.94250290  0.56880493  0.57016768  1  -0.003214  0  -0.007432  0.080565  0  3.965351  0
C  C102  1  0.05489635  0.65624530  0.42909603  1  -0.06382  0  -0.088788  -0.162034  0  3.970709  0
C  C103  1  0.05602399  0.58266583  0.42878304  1  -0.022997  0  -0.007198  0.08058  0  3.961824  0
C  C104  1  0.99822394  0.31591270  0.49842893  1  0.037852  0  -0.02212  -0.033587  0  4.008615  0
C  C105  1  0.99946437  0.46150931  0.49988622  1  -0.08353  0  -0.006783  -0.021254  0  3.945297  0
C  C106  1  0.99785981  0.68697290  0.49843589  1  0.060685  0  -0.021221  -0.030516  0  4.007726  0
C  C107  1  0.99954510  0.53856047  0.49973074  1  -0.046177  0  -0.007126  -0.022078  0  3.946258  0
C  C108  1  0.45052039  0.14507133  0.01869218  1  0.028223  0  -0.155328  -0.184238  0  3.985945  0
C  C109  1  0.48197386  0.85370027  0.04964832  1  -0.008304  0  -0.154871  -0.185487  0  3.984202  0
C  C110  1  0.51816030  0.88525963  0.95110769  1  -0.004065  0  -0.155548  -0.184803  0  3.986896  0
C  C111  1  0.54904922  0.11442793  0.98224023  1  -0.046896  0  -0.155231  -0.184693  0  3.985766  0
C  C112  1  0.34606791  0.06789303  0.14388326  1  0.003606  0  -0.088973  -0.162492  0  3.974669  0
C  C113  1  0.41796835  0.06967889  0.06951057  1  0.032185  0  -0.008267  0.07944  0  3.964176  0
C  C114  1  0.35945193  0.92844422  0.15689364  1  -0.029206  0  -0.088941  -0.161984  0  3.97108  0
C  C115  1  0.43213174  0.92829495  0.08324305  1  0.001572  0  -0.007153  0.080971  0  3.960844  0
C  C116  1  0.64318687  0.94176465  0.84651332  1  -0.021646  0  -0.08931  -0.16263  0  3.972453  0
C  C117  1  0.56888373  0.94247673  0.91846037  1  -0.020432  0  -0.007338  0.08052  0  3.964724  0
C  C118  1  0.65627378  0.05489927  0.85968753  1  -0.052281  0  -0.088544  -0.161706  0  3.970787  0
C  C119  1  0.58265343  0.05606848  0.93240343  1  -0.013225  0  -0.008078  0.079937  0  3.961157  0
C  C120  1  0.31641367  0.99766509  0.18779808  1  -0.045325  0  -0.021734  -0.032616  0  4.010607  0
C  C121  1  0.46166694  0.99929990  0.03916868  1  -0.035853  0  -0.006885  -0.021535  0  3.946684  0
C  C122  1  0.68710582  0.99775472  0.81672987  1  -0.003982  0  -0.021276  -0.030757  0  4.006955  0
C  C123  1  0.53860804  0.99952946  0.96209158  1  -0.046029  0  -0.006843  -0.021791  0  3.946191  0
C  C124  1  0.88569484  0.14504978  0.95096323  1  -0.026753  0  -0.155658  -0.184336  0  3.984942  0
C  C125  1  0.11448957  0.85368882  0.98262097  1  0.034423  0  -0.155232  -0.186386  0  3.984829  0
C  C126  1  0.14527967  0.88524000  0.01881146  1  -0.012871  0  -0.15546  -0.184773  0  3.986515  0
C  C127  1  0.85421392  0.11434652  0.04951432  1  0.047677  0  -0.155577  -0.185092  0  3.987625  0
C  C128  1  0.94214218  0.06790654  0.84656819  1  -0.088898  0  -0.08928  -0.162552  0  3.974462  0
C  C129  1  0.94280971  0.06965802  0.91846858  1  0.070446  0  -0.007935  0.08031  0  3.965472  0
C  C130  1  0.05501935  0.92840287  0.86012829  1  -0.050005  0  -0.088351  -0.159944  0  3.968756  0
C  C131  1  0.05621446  0.92827119  0.93274201  1  0.040843  0  -0.006326  0.082286  0  3.958974  0
C  C132  1  0.06838753  0.94190202  0.14372922  1  -0.083698  0  -0.088629  -0.161643  0  3.970608  0
C  C133  1  0.07002907  0.94248353  0.06949224  1  -0.012779  0  -0.007609  0.080232  0  3.961494  0
C  C134  1  0.92907928  0.05500449  0.15666832  1  -0.071619  0  -0.089808  -0.162554  0  3.975141  0
C  C135  1  0.92879603  0.05606095  0.08312918  1  -0.024884  0  -0.007941  0.07933  0  3.962345  0
C  C136  1  0.99804468  0.99765033  0.81699342  1  0.053555  0  -0.021847  -0.033037  0  4.009204  0
C  C137  1  0.99979747  0.99929175  0.96219824  1  -0.141831  0  -0.007658  -0.023868  0  3.947933  0
C  C138  1  0.99830702  0.99796115  0.18754930  1  0.05357  0  -0.022022  -0.032241  0  4.008195  0
C  C139  1  0.99967200  0.99950269  0.03915291  1  0.023427  0  -0.006488  -0.019661  0  3.944378  0
C  C140  1  0.45126909  0.51839595  0.38538909  1  0.021525  0  -0.155293  -0.183899  0  3.9854  0
C  C141  1  0.48246197  0.54907062  0.61455052  1  -0.04932  0  -0.155873  -0.185107  0  3.989001  0
C  C142  1  0.51865280  0.45052486  0.64538432  1  0.032009  0  -0.155973  -0.185068  0  3.987091  0
C  C143  1  0.54980405  0.48205793  0.35398200  1  0.044758  0  -0.155022  -0.186464  0  3.98375  0
C  C144  1  0.34639695  0.64314504  0.44230368  1  -0.012741  0  -0.088392  -0.161621  0  3.971126  0
C  C145  1  0.41852284  0.56901453  0.44272062  1  -0.020424  0  -0.007279  0.081078  0  3.96368  0
C  C146  1  0.35971162  0.65612575  0.55535588  1  -0.042575  0  -0.089772  -0.162576  0  3.974472  0
C  C147  1  0.43254993  0.58266495  0.55629115  1  -0.019294  0  -0.007894  0.079106  0  3.963276  0
C  C148  1  0.64363281  0.34591891  0.56849118  1  0.005685  0  -0.089095  -0.162372  0  3.972962  0
C  C149  1  0.56942118  0.41794614  0.57005896  1  0.032217  0  -0.008139  0.079393  0  3.963529  0
C  C150  1  0.65679352  0.35933748  0.42901650  1  -0.035309  0  -0.088083  -0.159219  0  3.968853  0
C  C151  1  0.58326232  0.43212722  0.42866277  1  0.017265  0  -0.006933  0.081146  0  3.96001  0
C  C152  1  0.31653355  0.68688456  0.49845715  1  -0.015878  0  -0.021785  -0.031591  0  4.006784  0
C  C153  1  0.46219522  0.53868929  0.49973960  1  -0.045728  0  -0.007458  -0.022058  0  3.947886  0
C  C154  1  0.68753269  0.31618914  0.49835408  1  -0.04537  0  -0.021963  -0.032851  0  4.008411  0
C  C155  1  0.53920312  0.46169665  0.49960351  1  -0.040178  0  -0.006706  -0.021697  0  3.946708  0
C  C156  1  0.06264860  0.35256316  0.15063780  1  -0.001443  0  -0.086211  -0.148924  0  3.929643  0
C  C157  1  0.06356082  0.42630669  0.07671613  1  0.019805  0  -0.009233  0.098939  0  4.078684  0
C  C158  1  0.12804152  0.46468304  0.03789008  1  0.042994  0  -0.121635  -0.293778  0  4.00139  0
C  C159  1  0.93382490  0.35307973  0.15247265  1  -0.025447  0  -0.093397  -0.150986  0  3.965568  0
C  C160  1  0.93268876  0.42595262  0.07819177  1  -0.025242  0  -0.010902  -0.008529  0  3.995253  0
C  C161  1  0.86734680  0.46473936  0.03896497  1  0.341669  0  0.092143  0.257244  0  4.118048  0
C  C162  1  0.93431959  0.64923436  0.85382200  1  -0.031713  0  -0.086342  -0.147373  0  3.930729  0
C  C163  1  0.93357762  0.57531099  0.92758137  1  0.026409  0  -0.009024  0.096909  0  4.08087  0
C  C164  1  0.86951625  0.53652133  0.96599711  1  -0.01192  0  -0.121489  -0.292097  0  4.000478  0
C  C165  1  0.06076306  0.65108530  0.85436061  1  -0.010176  0  -0.093733  -0.151419  0  3.965584  0
C  C166  1  0.06330892  0.57680250  0.92724209  1  -0.006916  0  -0.011062  -0.009092  0  3.993306  0
C  C167  1  0.12906111  0.53761018  0.96607155  1  0.342972  0  0.092179  0.258202  0  4.117097  0
C  C168  1  0.99841395  0.31652237  0.18811099  1  -0.012254  0  -0.023712  -0.038286  0  4.024147  0
C  C169  1  0.99802907  0.46360650  0.03957543  1  0.044757  0  -0.002314  -0.002332  0  3.941833  0
C  C170  1  0.99710437  0.68672714  0.81778281  1  0.000173  0  -0.023469  -0.03785  0  4.022959  0
C  C171  1  0.99892633  0.53819633  0.96490972  1  -0.021576  0  -0.00252  -0.001247  0  3.939689  0
C  C172  1  0.45095913  0.88503732  0.64585748  1  0.011001  0  -0.156149  -0.185977  0  3.987717  0
C  C173  1  0.48188267  0.11409050  0.35456059  1  0.017339  0  -0.155541  -0.186185  0  3.985984  0
C  C174  1  0.51840568  0.14486704  0.38578462  1  0.004366  0  -0.15504  -0.182651  0  3.98471  0
C  C175  1  0.54949639  0.85358164  0.61488341  1  0.012904  0  -0.155216  -0.18522  0  3.985083  0
C  C176  1  0.34624554  0.94131622  0.56917216  1  0.006494  0  -0.089567  -0.163459  0  3.975343  0
C  C177  1  0.41822916  0.94212018  0.57064231  1  0.020931  0  -0.008066  0.079881  0  3.965075  0
C  C178  1  0.35936258  0.05441032  0.42973679  1  0.041789  0  -0.088663  -0.161242  0  3.97213  0
C  C179  1  0.43211172  0.05566447  0.42928667  1  0.021947  0  -0.007641  0.079427  0  3.962545  0
C  C180  1  0.64348430  0.06802128  0.44218804  1  -0.052295  0  -0.088981  -0.161968  0  3.974668  0
C  C181  1  0.56921773  0.06959275  0.44289989  1  -0.005857  0  -0.008583  0.078588  0  3.965474  0
C  C182  1  0.65659091  0.92859980  0.55527888  1  -0.08195  0  -0.088599  -0.161352  0  3.970867  0
C  C183  1  0.58303061  0.92825234  0.55645496  1  0.010094  0  -0.007719  0.080377  0  3.961296  0
C  C184  1  0.31641193  0.99724707  0.49909886  1  -0.106623  0  -0.021166  -0.031512  0  4.008221  0
C  C185  1  0.46185835  0.99918850  0.50011031  1  -0.135475  0  -0.007216  -0.020777  0  3.945147  0
C  C186  1  0.68737277  0.99794718  0.49819306  1  0.040396  0  -0.021595  -0.032164  0  4.008115  0
C  C187  1  0.53892976  0.99914464  0.50001941  1  0.006379  0  -0.006883  -0.021733  0  3.946788  0
N  N188  1  0.18958723  0.57674455  0.93207210  1  -1.214608  0  -0.600491  -0.620391  0  3.324727  0
N  N189  1  0.80166276  0.43077833  0.07811594  1  -1.213664  0  -0.601047  -0.6204  0  3.327059  0
O  O190  1  0.93831922  0.79562584  0.55871852  1  -1.182561  0  -0.358051  -0.620491  0  2.284503  0
O  O191  1  0.20728383  0.05761680  0.29673210  1  -1.185913  0  -0.358116  -0.620659  0  2.284552  0
O  O192  1  0.05863194  0.20622638  0.43921533  1  -1.179375  0  -0.35868  -0.621497  0  2.281711  0
O  O193  1  0.79591614  0.93807295  0.70744704  1  -1.183992  0  -0.358206  -0.621176  0  2.281954  0
O  O194  1  0.05734957  0.79557922  0.70817720  1  -1.182536  0  -0.358711  -0.623244  0  2.284172  0
O  O195  1  0.79605504  0.05825230  0.43879540  1  -1.180102  0  -0.357908  -0.62092  0  2.282911  0
O  O196  1  0.93889705  0.20695593  0.29683503  1  -1.186391  0  -0.358706  -0.622288  0  2.285543  0
O  O197  1  0.20693796  0.93766074  0.55938251  1  -1.182898  0  -0.358701  -0.622396  0  2.282836  0
O  O198  1  0.20685741  0.79537998  0.43931511  1  -1.181882  0  -0.357958  -0.620906  0  2.283236  0
O  O199  1  0.93857823  0.05775693  0.70759116  1  -1.181335  0  -0.358113  -0.620931  0  2.282229  0
O  O200  1  0.79604530  0.20657712  0.55876450  1  -1.181653  0  -0.3581  -0.621108  0  2.281931  0
O  O201  1  0.05833019  0.93833947  0.29640403  1  -1.183086  0  -0.35759  -0.620288  0  2.282261  0
O  O202  1  0.05696353  0.93705854  0.70870755  1  -1.18688  0  -0.358598  -0.622208  0  2.28295  0
O  O203  1  0.79725051  0.20756694  0.43813204  1  -1.189498  0  -0.358444  -0.622054  0  2.282672  0
O  O204  1  0.93802263  0.05715175  0.29724581  1  -1.188317  0  -0.358524  -0.622331  0  2.282694  0
O  O205  1  0.20763707  0.79619381  0.55807874  1  -1.18231  0  -0.358597  -0.622247  0  2.281485  0
O  O206  1  0.93767950  0.79587940  0.70822362  1  -1.182225  0  -0.356092  -0.619925  0  2.282469  0
O  O207  1  0.20806612  0.05616704  0.43872261  1  -1.1841  0  -0.358051  -0.622019  0  2.284975  0
O  O208  1  0.05825251  0.20692462  0.29716908  1  -1.181996  0  -0.356061  -0.618813  0  2.285759  0
O  O209  1  0.79700943  0.93761801  0.55735503  1  -1.186053  0  -0.358022  -0.620404  0  2.283636  0
O  O210  1  0.79708986  0.05661378  0.70834216  1  -1.181399  0  -0.358428  -0.621896  0  2.283777  0
O  O211  1  0.05700936  0.79669289  0.43825915  1  -1.184355  0  -0.35844  -0.621721  0  2.283527  0
O  O212  1  0.20792984  0.93723442  0.29769558  1  -1.184549  0  -0.358325  -0.621761  0  2.282196  0
O  O213  1  0.93792814  0.20729471  0.55764930  1  -1.181904  0  -0.358884  -0.621652  0  2.281956  0
O  O214  1  0.84302620  0.05190163  0.55274110  1  -1.228118  0  -0.694683  -1.066227  0  2.363271  0
O  O215  1  0.05233487  0.05155590  0.55304133  1  -1.227091  0  -0.695327  -1.067414  0  2.364792  0
O  O216  1  0.05251825  0.05178777  0.34353802  1  -1.234167  0  -0.695305  -1.067361  0  2.365167  0
O  O217  1  0.05213318  0.84234469  0.55297598  1  -1.222046  0  -0.695129  -1.06739  0  2.361901  0
O  O218  1  0.11567801  0.96068752  0.46215583  1  -1.199253  0  -0.791429  -1.147957  0  2.128556  0
O  O219  1  0.96142201  0.96097656  0.46189537  1  -1.200681  0  -0.791554  -1.147935  0  2.127783  0
O  O220  1  0.96163623  0.11518193  0.46193007  1  -1.201228  0  -0.791933  -1.148027  0  2.128652  0
O  O221  1  0.96124770  0.96078472  0.61633547  1  -1.193675  0  -0.791332  -1.147748  0  2.126572  0
