# generated using pymatgen
data_NaH7C4O7
_symmetry_space_group_name_H-M   'P 1'
_cell_length_a   7.07245013
_cell_length_b   9.06457894
_cell_length_c   10.99321401
_cell_angle_alpha   106.06641234
_cell_angle_beta   90.00005806
_cell_angle_gamma   89.99986071
_symmetry_Int_Tables_number   1
_chemical_formula_structural   NaH7C4O7
_chemical_formula_sum   'Na4 H28 C16 O28'
_cell_volume   677.23467490
_cell_formula_units_Z   4
loop_
 _symmetry_equiv_pos_site_id
 _symmetry_equiv_pos_as_xyz
  1  'x, y, z'
loop_
 _atom_site_type_symbol
 _atom_site_label
 _atom_site_symmetry_multiplicity
 _atom_site_fract_x
 _atom_site_fract_y
 _atom_site_fract_z
 _atom_site_occupancy
 _atom_site_hle17_bader_spin_density
 _atom_site_hle17_ddec_charge
 _atom_site_hle17_ddec_spin_density
 _atom_site_hle17_ddec_sum_bond_order
 _atom_site_hle17_magmom
 _atom_site_hse06_10hf_bader_spin_density
 _atom_site_hse06_10hf_ddec_charge
 _atom_site_hse06_10hf_ddec_spin_density
 _atom_site_hse06_10hf_ddec_sum_bond_order
 _atom_site_hse06_10hf_magmom
 _atom_site_hse06_bader_spin_density
 _atom_site_hse06_ddec_charge
 _atom_site_hse06_ddec_spin_density
 _atom_site_hse06_ddec_sum_bond_order
 _atom_site_hse06_magmom
 _atom_site_pbe_bader_spin_density
 _atom_site_pbe_cm5_charge
 _atom_site_pbe_ddec_charge
 _atom_site_pbe_ddec_spin_density
 _atom_site_pbe_ddec_sum_bond_order
 _atom_site_pbe_magmom
Na  Na0  1  0.61438801  0.28474673  0.30854572  1  0  0.906161  0  0.365713  0  0  0.858159  0  0.520393  0  0  0.869227  0  0.498402  0  0  0.670761  0.849809  0  0.536463  0
Na  Na1  1  0.11439016  0.21525268  0.19145132  1  0  0.906167  0  0.365691  0  0  0.858159  0  0.52036  0  0  0.869239  0  0.498383  0  0  0.670751  0.849814  0  0.536433  0
Na  Na2  1  0.38561261  0.71525365  0.69145039  1  0  0.90617  0  0.365742  0  0  0.858161  0  0.520418  0  0  0.869233  0  0.49843  0  0  0.670783  0.849828  0  0.536487  0
Na  Na3  1  0.88561329  0.78474425  0.80855037  1  0  0.906166  0  0.365762  0  0  0.858167  0  0.520428  0  0  0.869247  0  0.498446  0  0  0.670788  0.849835  0  0.536501  0
H  H4  1  0.29085980  0.32842463  0.91997963  1  0  0.398556  0  0.89485  0  0  0.362743  0  0.980371  0  0  0.376284  0  0.966465  0  0  0.300183  0.353302  0  0.989928  0
H  H5  1  0.79086048  0.17157436  0.58001698  1  0  0.398598  0  0.894879  0  0  0.362794  0  0.980373  0  0  0.376335  0  0.966468  0  0  0.300214  0.353352  0  0.989931  0
H  H6  1  0.70913940  0.67157346  0.08001323  1  0  0.398607  0  0.894811  0  0  0.36278  0  0.980347  0  0  0.376322  0  0.966443  0  0  0.300219  0.353337  0  0.989901  0
H  H7  1  0.20913590  0.82842945  0.41999175  1  0  0.398608  0  0.894744  0  0  0.362755  0  0.980339  0  0  0.376296  0  0.966439  0  0  0.300227  0.353311  0  0.989891  0
H  H8  1  0.68916861  0.96623660  0.22177275  1  0  0.417542  0  0.890007  0  0  0.385419  0  0.956863  0  0  0.396066  0  0.941348  0  0  0.291717  0.377868  0  0.967804  0
H  H9  1  0.18916156  0.53376406  0.27822806  1  0  0.417528  0  0.890031  0  0  0.385413  0  0.95688  0  0  0.396058  0  0.941363  0  0  0.291722  0.377864  0  0.96782  0
H  H10  1  0.31083625  0.03376148  0.77822739  1  0  0.417529  0  0.890019  0  0  0.385436  0  0.956834  0  0  0.396079  0  0.941319  0  0  0.291734  0.377889  0  0.967771  0
H  H11  1  0.81083624  0.46623976  0.72177248  1  0  0.417544  0  0.889999  0  0  0.385445  0  0.95682  0  0  0.396088  0  0.941305  0  0  0.291729  0.377898  0  0.967757  0
H  H12  1  0.53763566  0.94782277  0.32581886  1  0  0.418009  0  0.88497  0  0  0.38626  0  0.951167  0  0  0.396461  0  0.93627  0  0  0.292668  0.379013  0  0.961675  0
H  H13  1  0.03763263  0.55217817  0.17418191  1  0  0.417985  0  0.885  0  0  0.386224  0  0.951216  0  0  0.396426  0  0.936318  0  0  0.29266  0.378978  0  0.961723  0
H  H14  1  0.46236496  0.05218105  0.67418259  1  0  0.417987  0  0.88501  0  0  0.386236  0  0.951212  0  0  0.396435  0  0.936318  0  0  0.292656  0.378991  0  0.961716  0
H  H15  1  0.96236658  0.44781762  0.82581498  1  0  0.418011  0  0.884969  0  0  0.386277  0  0.951136  0  0  0.396475  0  0.936244  0  0  0.292685  0.379034  0  0.961638  0
H  H16  1  0.78521951  0.39537771  0.03252688  1  0  0.096516  0  0.905805  0  0  0.105359  0  0.96354  0  0  0.107603  0  0.962427  0  0  0.128703  0.103956  0  0.964125  0
H  H17  1  0.28521677  0.10462139  0.46746930  1  0  0.096453  0  0.905892  0  0  0.105335  0  0.963595  0  0  0.107572  0  0.96249  0  0  0.128676  0.103924  0  0.964192  0
H  H18  1  0.21477969  0.60461809  0.96746273  1  0  0.09647  0  0.905771  0  0  0.105304  0  0.963524  0  0  0.107567  0  0.962386  0  0  0.128677  0.103902  0  0.964112  0
H  H19  1  0.71477536  0.89538127  0.53254008  1  0  0.096447  0  0.90582  0  0  0.105252  0  0.963576  0  0  0.107518  0  0.962433  0  0  0.128664  0.10385  0  0.964161  0
H  H20  1  0.78722779  0.10252263  0.07931619  1  0  0.392922  0  0.86088  0  0  0.368643  0  0.932828  0  0  0.378608  0  0.920714  0  0  0.319018  0.36181  0  0.941151  0
H  H21  1  0.28722549  0.39747646  0.42068181  1  0  0.392949  0  0.860877  0  0  0.368678  0  0.932802  0  0  0.378643  0  0.920691  0  0  0.319039  0.361845  0  0.941131  0
H  H22  1  0.21277565  0.89747661  0.92067784  1  0  0.39302  0  0.860859  0  0  0.368733  0  0.932828  0  0  0.378699  0  0.92071  0  0  0.319039  0.361901  0  0.941153  0
H  H23  1  0.71277513  0.60252161  0.57932197  1  0  0.392988  0  0.860898  0  0  0.36869  0  0.932882  0  0  0.378657  0  0.920765  0  0  0.319021  0.361859  0  0.941209  0
H  H24  1  0.74083264  0.22913791  0.81044008  1  0  0.074879  0  0.939307  0  0  0.080691  0  1.004929  0  0  0.082974  0  1.003544  0  0  0.115466  0.078918  0  1.006215  0
H  H25  1  0.24082896  0.27086117  0.68955834  1  0  0.074813  0  0.939367  0  0  0.08065  0  1.004969  0  0  0.082934  0  1.003584  0  0  0.115467  0.078875  0  1.006257  0
H  H26  1  0.25917222  0.77085330  0.18955121  1  0  0.074816  0  0.939264  0  0  0.080656  0  1.004971  0  0  0.082941  0  1.003585  0  0  0.115468  0.078879  0  1.00625  0
H  H27  1  0.75917024  0.72914723  0.31045144  1  0  0.074886  0  0.939269  0  0  0.08067  0  1.004948  0  0  0.082954  0  1.003562  0  0  0.115473  0.078895  0  1.006225  0
H  H28  1  0.61015409  0.01302343  0.82082511  1  0  0.381083  0  0.919068  0  0  0.357385  0  0.988106  0  0  0.368106  0  0.97639  0  0  0.293568  0.349801  0  0.996356  0
H  H29  1  0.11015113  0.48697589  0.67917237  1  0  0.381018  0  0.919157  0  0  0.357317  0  0.988193  0  0  0.368039  0  0.976479  0  0  0.293538  0.349737  0  0.996442  0
H  H30  1  0.38985360  0.98696892  0.17917008  1  0  0.38104  0  0.919086  0  0  0.357366  0  0.988079  0  0  0.368089  0  0.976364  0  0  0.293582  0.349781  0  0.996325  0
H  H31  1  0.88984949  0.51302908  0.32083025  1  0  0.381086  0  0.919059  0  0  0.357365  0  0.988118  0  0  0.368086  0  0.976409  0  0  0.293565  0.349779  0  0.99637  0
C  C32  1  0.51093565  0.29104499  0.01969911  1  0  0.661594  0  3.76345  0  0  0.613027  0  4.06725  0  0  0.645473  0  4.057388  0  0  0.235169  0.590858  0  4.073805  0
C  C33  1  0.01093968  0.20895459  0.48030609  1  0  0.661544  0  3.76311  0  0  0.613011  0  4.066903  0  0  0.645471  0  4.057024  0  0  0.235113  0.590825  0  4.073483  0
C  C34  1  0.48905224  0.70894733  0.98030880  1  0  0.661305  0  3.763195  0  0  0.612853  0  4.066851  0  0  0.645313  0  4.05698  0  0  0.235128  0.590694  0  4.073401  0
C  C35  1  0.98904821  0.79105268  0.51969342  1  0  0.661513  0  3.762676  0  0  0.612924  0  4.06648  0  0  0.645366  0  4.056631  0  0  0.235202  0.590765  0  4.073029  0
C  C36  1  0.72729774  0.27864550  0.01434003  1  0  0.060745  0  3.631171  0  0  0.034627  0  3.88224  0  0  0.035573  0  3.88902  0  0  -0.002592  0.033653  0  3.877877  0
C  C37  1  0.22729609  0.22135485  0.48565821  1  0  0.060685  0  3.631246  0  0  0.034487  0  3.88245  0  0  0.03543  0  3.889225  0  0  -0.002622  0.033518  0  3.878084  0
C  C38  1  0.27270429  0.72135029  0.98565412  1  0  0.060957  0  3.631038  0  0  0.034855  0  3.882203  0  0  0.035789  0  3.88898  0  0  -0.002523  0.033881  0  3.877843  0
C  C39  1  0.77270170  0.77864896  0.51434870  1  0  0.061008  0  3.631144  0  0  0.034986  0  3.882084  0  0  0.035922  0  3.888862  0  0  -0.002484  0.03401  0  3.877725  0
C  C40  1  0.79683317  0.18032919  0.88439504  1  0  0.056735  0  3.67811  0  0  0.031445  0  3.931698  0  0  0.032725  0  3.938568  0  0  -0.009016  0.030462  0  3.927266  0
C  C41  1  0.29683205  0.31966749  0.61560377  1  0  0.05697  0  3.677973  0  0  0.031635  0  3.931641  0  0  0.032913  0  3.938512  0  0  -0.00895  0.030653  0  3.927205  0
C  C42  1  0.20317027  0.81966316  0.11560014  1  0  0.05709  0  3.677624  0  0  0.0315  0  3.931671  0  0  0.03277  0  3.938554  0  0  -0.008958  0.030517  0  3.927226  0
C  C43  1  0.70316716  0.68033747  0.38440158  1  0  0.056836  0  3.677893  0  0  0.031501  0  3.931465  0  0  0.032776  0  3.938339  0  0  -0.008982  0.030516  0  3.927028  0
C  C44  1  0.01340310  0.18842419  0.88088696  1  0  0.651139  0  3.841384  0  0  0.592181  0  4.156962  0  0  0.625364  0  4.147398  0  0  0.220648  0.569596  0  4.163123  0
C  C45  1  0.51340199  0.31157186  0.61911062  1  0  0.651275  0  3.841293  0  0  0.592309  0  4.156881  0  0  0.625498  0  4.147313  0  0  0.220724  0.569723  0  4.163043  0
C  C46  1  0.98660176  0.81157160  0.11910902  1  0  0.651219  0  3.841362  0  0  0.592329  0  4.156932  0  0  0.625517  0  4.147363  0  0  0.220646  0.569737  0  4.163099  0
C  C47  1  0.48659863  0.68843310  0.38089474  1  0  0.651214  0  3.841417  0  0  0.592247  0  4.156992  0  0  0.625434  0  4.147423  0  0  0.220597  0.569653  0  4.163163  0
O  O48  1  0.43970213  0.33187438  0.92287262  1  0  -0.554742  0  2.107446  0  0  -0.502985  0  2.336759  0  0  -0.526766  0  2.323112  0  0  -0.327783  -0.486566  0  2.345726  0
O  O49  1  0.93970140  0.16812778  0.57712482  1  0  -0.554607  0  2.107581  0  0  -0.502873  0  2.336892  0  0  -0.526659  0  2.323244  0  0  -0.327723  -0.486448  0  2.345859  0
O  O50  1  0.56029848  0.66812601  0.07712077  1  0  -0.554527  0  2.107931  0  0  -0.502797  0  2.337208  0  0  -0.526578  0  2.323555  0  0  -0.3277  -0.486373  0  2.346153  0
O  O51  1  0.06029497  0.83187488  0.42288274  1  0  -0.554592  0  2.107706  0  0  -0.502798  0  2.337034  0  0  -0.526574  0  2.323392  0  0  -0.327759  -0.486373  0  2.345976  0
O  O52  1  0.57358642  0.01212401  0.26953579  1  0  -0.854781  0  1.87807  0  0  -0.805756  0  2.056786  0  0  -0.824741  0  2.025759  0  0  -0.62478  -0.792214  0  2.078593  0
O  O53  1  0.07358212  0.48787547  0.23046489  1  0  -0.854774  0  1.878117  0  0  -0.805735  0  2.056826  0  0  -0.824715  0  2.025818  0  0  -0.624767  -0.792194  0  2.078634  0
O  O54  1  0.42641561  0.98787523  0.73046189  1  0  -0.854776  0  1.878093  0  0  -0.805768  0  2.056777  0  0  -0.824744  0  2.025772  0  0  -0.624783  -0.792216  0  2.078579  0
O  O55  1  0.92641567  0.51212605  0.76953695  1  0  -0.854788  0  1.878059  0  0  -0.805798  0  2.056762  0  0  -0.824778  0  2.02576  0  0  -0.624807  -0.792247  0  2.078562  0
O  O56  1  0.41927304  0.26521733  0.10699751  1  0  -0.613202  0  1.972873  0  0  -0.577521  0  2.212364  0  0  -0.596387  0  2.20088  0  0  -0.355018  -0.56462  0  2.220212  0
O  O57  1  0.91926411  0.23478728  0.39299274  1  0  -0.613348  0  1.972392  0  0  -0.577655  0  2.211838  0  0  -0.596514  0  2.200319  0  0  -0.35506  -0.564742  0  2.219691  0
O  O58  1  0.58073748  0.73478078  0.89298080  1  0  -0.613405  0  1.972002  0  0  -0.577706  0  2.211319  0  0  -0.596581  0  2.199832  0  0  -0.355131  -0.564799  0  2.219166  0
O  O59  1  0.08073651  0.76521652  0.60702144  1  0  -0.613503  0  1.971717  0  0  -0.57776  0  2.211091  0  0  -0.596635  0  2.199626  0  0  -0.35516  -0.564854  0  2.218939  0
O  O60  1  0.79699229  0.21534169  0.11052012  1  0  -0.611628  0  2.127365  0  0  -0.570114  0  2.365217  0  0  -0.583144  0  2.351166  0  0  -0.476716  -0.561061  0  2.374968  0
O  O61  1  0.29699170  0.28465854  0.38947814  1  0  -0.611613  0  2.127281  0  0  -0.570083  0  2.365156  0  0  -0.583114  0  2.351104  0  0  -0.476716  -0.561034  0  2.374913  0
O  O62  1  0.20301115  0.78465870  0.88947235  1  0  -0.61177  0  2.127251  0  0  -0.570249  0  2.36509  0  0  -0.58328  0  2.351041  0  0  -0.47674  -0.561196  0  2.374851  0
O  O63  1  0.70300892  0.71533953  0.61053018  1  0  -0.611752  0  2.127343  0  0  -0.57026  0  2.365162  0  0  -0.583293  0  2.351115  0  0  -0.476744  -0.561207  0  2.374925  0
O  O64  1  0.73668734  0.02684249  0.86568934  1  0  -0.610693  0  2.120005  0  0  -0.565105  0  2.351914  0  0  -0.580037  0  2.339107  0  0  -0.459127  -0.55441  0  2.360828  0
O  O65  1  0.23668718  0.47315545  0.63430700  1  0  -0.610723  0  2.120058  0  0  -0.565116  0  2.351987  0  0  -0.580048  0  2.339177  0  0  -0.45914  -0.554422  0  2.3609  0
O  O66  1  0.26331894  0.97314986  0.13430403  1  0  -0.610801  0  2.119884  0  0  -0.56515  0  2.351904  0  0  -0.580083  0  2.339101  0  0  -0.459176  -0.554463  0  2.360817  0
O  O67  1  0.76331202  0.52684722  0.36569510  1  0  -0.610773  0  2.119984  0  0  -0.565159  0  2.351941  0  0  -0.580089  0  2.339127  0  0  -0.459166  -0.554469  0  2.360855  0
O  O68  1  0.10893877  0.06770194  0.86492207  1  0  -0.627952  0  2.022838  0  0  -0.574472  0  2.259151  0  0  -0.597224  0  2.247063  0  0  -0.303382  -0.558706  0  2.267264  0
O  O69  1  0.60893589  0.43229623  0.63507787  1  0  -0.628059  0  2.022834  0  0  -0.574523  0  2.259113  0  0  -0.597275  0  2.24702  0  0  -0.303421  -0.558762  0  2.267231  0
O  O70  1  0.89106609  0.93229844  0.13507860  1  0  -0.628113  0  2.022791  0  0  -0.574571  0  2.25903  0  0  -0.597327  0  2.246943  0  0  -0.303453  -0.558813  0  2.26715  0
O  O71  1  0.39106190  0.56770759  0.36492449  1  0  -0.628046  0  2.022914  0  0  -0.574509  0  2.259173  0  0  -0.597261  0  2.247078  0  0  -0.303387  -0.558748  0  2.267294  0
O  O72  1  0.08285267  0.32363331  0.89664031  1  0  -0.642809  0  2.037683  0  0  -0.579945  0  2.269075  0  0  -0.606135  0  2.257663  0  0  -0.309493  -0.561441  0  2.275856  0
O  O73  1  0.58285337  0.17636376  0.60335663  1  0  -0.642882  0  2.037676  0  0  -0.580048  0  2.269116  0  0  -0.606244  0  2.257707  0  0  -0.309518  -0.56154  0  2.275892  0
O  O74  1  0.91714654  0.67636822  0.10335334  1  0  -0.642874  0  2.037827  0  0  -0.580004  0  2.269214  0  0  -0.606198  0  2.2578  0  0  -0.309462  -0.561507  0  2.275999  0
O  O75  1  0.41714725  0.82364005  0.39665210  1  0  -0.64285  0  2.037613  0  0  -0.579978  0  2.269017  0  0  -0.606168  0  2.257603  0  0  -0.309448  -0.561474  0  2.275799  0
