# generated using pymatgen
data_ZnH12C18NO4
_symmetry_space_group_name_H-M   'P 1'
_cell_length_a   10.35849365
_cell_length_b   10.33267989
_cell_length_c   15.23400000
_cell_angle_alpha   75.50036905
_cell_angle_beta   75.53729125
_cell_angle_gamma   81.73267003
_symmetry_Int_Tables_number   1
_chemical_formula_structural   ZnH12C18NO4
_chemical_formula_sum   'Zn4 H48 C72 N4 O16'
_cell_volume   1522.79943582
_cell_formula_units_Z   4
loop_
 _symmetry_equiv_pos_site_id
 _symmetry_equiv_pos_as_xyz
  1  'x, y, z'
loop_
 _atom_site_type_symbol
 _atom_site_label
 _atom_site_symmetry_multiplicity
 _atom_site_fract_x
 _atom_site_fract_y
 _atom_site_fract_z
 _atom_site_occupancy
 _atom_site_pbe_bader_charge
 _atom_site_pbe_bader_spin_density
 _atom_site_pbe_cm5_charge
 _atom_site_pbe_ddec_charge
 _atom_site_pbe_ddec_spin_density
 _atom_site_pbe_ddec_sum_bond_order
 _atom_site_pbe_magmom
Zn  Zn0  1  0.48386209  0.17868088  0.97441185  1  1.287003  0  0.693096  0.843925  0  2.317386  0
Zn  Zn1  1  0.82144310  0.51564814  0.52557780  1  1.287105  0  0.693245  0.844175  0  2.318337  0
Zn  Zn2  1  0.51613881  0.82131875  0.02558780  1  1.287052  0  0.693096  0.843942  0  2.317389  0
Zn  Zn3  1  0.17855572  0.48435250  0.47442269  1  1.28708  0  0.693242  0.844179  0  2.31835  0
H  H4  1  0.56231852  0.40754476  0.82800464  1  0.142915  0  0.1211  0.10293  0  1.015303  0
H  H5  1  0.59269201  0.43775571  0.67196263  1  0.143498  0  0.121287  0.103464  0  1.016024  0
H  H6  1  0.43768346  0.59245386  0.17199434  1  0.142527  0  0.121103  0.102953  0  1.015371  0
H  H7  1  0.40730589  0.56224392  0.32803818  1  0.143453  0  0.121279  0.103464  0  1.016031  0
H  H8  1  0.72792514  0.57288016  0.78513621  1  0.140448  0  0.105491  0.119393  0  1.060514  0
H  H9  1  0.42721622  0.27229087  0.71472908  1  0.142395  0  0.10581  0.119469  0  1.060518  0
H  H10  1  0.27207684  0.42711846  0.21486277  1  0.140353  0  0.105484  0.119373  0  1.060532  0
H  H11  1  0.57278268  0.72770876  0.28527156  1  0.142399  0  0.105809  0.119477  0  1.060528  0
H  H12  1  0.77729871  0.45400609  0.06999640  1  0.113452  0  0.110347  0.124523  0  0.998074  0
H  H13  1  0.54585522  0.22256642  0.42999860  1  0.113627  0  0.110207  0.124274  0  0.997889  0
H  H14  1  0.22270202  0.54599555  0.93000294  1  0.113458  0  0.110349  0.12453  0  0.998056  0
H  H15  1  0.45414551  0.77743521  0.57000074  1  0.113626  0  0.110209  0.124279  0  0.997865  0
H  H16  1  0.61297804  0.28593938  0.09839122  1  0.110143  0  0.119134  0.094047  0  1.002571  0
H  H17  1  0.71396060  0.38679104  0.40170673  1  0.111179  0  0.118962  0.093631  0  1.002774  0
H  H18  1  0.38702377  0.71406126  0.90160876  1  0.110157  0  0.11913  0.094048  0  1.002565  0
H  H19  1  0.28604021  0.61320959  0.59829342  1  0.111178  0  0.118963  0.093657  0  1.002749  0
H  H20  1  0.90985397  0.63418708  0.96014221  1  0.065482  0  0.1014  0.105466  0  1.017503  0
H  H21  1  0.36575319  0.09005487  0.53982079  1  0.064008  0  0.101303  0.105074  0  1.017745  0
H  H22  1  0.09014585  0.36581356  0.03985745  1  0.065479  0  0.10141  0.105478  0  1.017496  0
H  H23  1  0.63424753  0.90994676  0.46017658  1  0.064045  0  0.101312  0.105095  0  1.017754  0
H  H24  1  0.91593818  0.64086885  0.75561444  1  0.050982  0  0.102668  0.100375  0  1.017223  0
H  H25  1  0.35917570  0.08401630  0.74432770  1  0.049804  0  0.102631  0.100405  0  1.016769  0
H  H26  1  0.08406346  0.35913380  0.24438523  1  0.050825  0  0.102686  0.100411  0  1.017205  0
H  H27  1  0.64082611  0.91598434  0.25567097  1  0.049797  0  0.102616  0.100371  0  1.016769  0
H  H28  1  0.06180285  0.76880882  0.63793955  1  0.064533  0  0.102618  0.106501  0  1.009258  0
H  H29  1  0.23112971  0.93812880  0.86206517  1  0.065494  0  0.102655  0.106745  0  1.009065  0
H  H30  1  0.93819896  0.23119182  0.36205978  1  0.064514  0  0.102609  0.106508  0  1.009218  0
H  H31  1  0.76887309  0.06187184  0.13793398  1  0.065485  0  0.102623  0.106668  0  1.009122  0
H  H32  1  0.06422132  0.77137155  0.92020051  1  0.066635  0  0.097695  0.091874  0  1.057294  0
H  H33  1  0.22856034  0.93573163  0.57980960  1  0.066819  0  0.097762  0.092078  0  1.057023  0
H  H34  1  0.93578140  0.22863009  0.07979915  1  0.066623  0  0.097672  0.091861  0  1.057304  0
H  H35  1  0.77144255  0.06426800  0.42018971  1  0.066849  0  0.09777  0.09208  0  1.057017  0
H  H36  1  0.75028138  0.17883239  0.71270664  1  0.098132  0  0.102651  0.098608  0  1.059206  0
H  H37  1  0.82177116  0.24982632  0.78738237  1  0.10127  0  0.102465  0.098449  0  1.05782  0
H  H38  1  0.24971662  0.82116623  0.28729433  1  0.098147  0  0.102666  0.098622  0  1.059218  0
H  H39  1  0.17822692  0.75017131  0.21261810  1  0.101291  0  0.102485  0.098493  0  1.057773  0
H  H40  1  0.89348428  0.14723472  0.56267340  1  0.08636  0  0.103903  0.110194  0  1.000565  0
H  H41  1  0.85327521  0.10646379  0.93756824  1  0.083021  0  0.103989  0.110486  0  0.999671  0
H  H42  1  0.10651453  0.85276591  0.43732708  1  0.086327  0  0.103905  0.110196  0  1.000607  0
H  H43  1  0.14672495  0.89353283  0.06243336  1  0.083061  0  0.103974  0.110426  0  0.999745  0
H  H44  1  0.89464344  0.93141693  0.51321474  1  0.088221  0  0.1041  0.102496  0  1.032  0
H  H45  1  0.06861339  0.10521152  0.98699615  1  0.088362  0  0.104346  0.102685  0  1.032727  0
H  H46  1  0.10535529  0.06858471  0.48678493  1  0.088211  0  0.104104  0.102503  0  1.031985  0
H  H47  1  0.93138768  0.89478610  0.01300446  1  0.088393  0  0.104344  0.102693  0  1.032725  0
H  H48  1  0.60515323  0.79122420  0.76355894  1  0.104987  0  0.106844  0.111595  0  1.02223  0
H  H49  1  0.20861936  0.39491272  0.73629600  1  0.104147  0  0.107043  0.111787  0  1.021523  0
H  H50  1  0.39484576  0.20877443  0.23644120  1  0.105006  0  0.106834  0.111561  0  1.02225  0
H  H51  1  0.79137630  0.60508992  0.26370534  1  0.104219  0  0.107042  0.111761  0  1.021548  0
C  C52  1  0.61583413  0.41934899  0.87817961  1  0.416949  0  0.044796  0.09476  0  3.941346  0
C  C53  1  0.58082353  0.38414603  0.62181127  1  0.416753  0  0.044495  0.094225  0  3.943224  0
C  C54  1  0.38416768  0.58065165  0.12182037  1  0.417332  0  0.044766  0.09467  0  3.9415  0
C  C55  1  0.41917646  0.61585260  0.37818936  1  0.416818  0  0.044525  0.094259  0  3.943235  0
C  C56  1  0.70928764  0.51171072  0.85569897  1  0.005697  0  -0.083888  -0.17457  0  3.919491  0
C  C57  1  0.48837828  0.29078890  0.64423130  1  0.005588  0  -0.083622  -0.174213  0  3.92022  0
C  C58  1  0.29071425  0.48828891  0.14430051  1  0.005663  0  -0.083862  -0.174522  0  3.919472  0
C  C59  1  0.51162271  0.70920973  0.35576851  1  0.005566  0  -0.083643  -0.174263  0  3.920271  0
C  C60  1  0.77552339  0.52451134  0.92299715  1  -0.059089  0  0.01281  0.158327  0  4.013641  0
C  C61  1  0.47549318  0.22444382  0.57695028  1  -0.059666  0  0.012549  0.158293  0  4.013747  0
C  C62  1  0.22447841  0.47548929  0.07700283  1  -0.058927  0  0.012807  0.158347  0  4.013621  0
C  C63  1  0.52450672  0.77555581  0.42304954  1  -0.059664  0  0.012548  0.158279  0  4.013817  0
C  C64  1  0.73505018  0.44509472  0.01325964  1  -0.021114  0  -0.082075  -0.176217  0  3.922435  0
C  C65  1  0.55484695  0.26483345  0.48673760  1  -0.023829  0  -0.081824  -0.175942  0  3.92211  0
C  C66  1  0.26494963  0.55490592  0.98674068  1  -0.021074  0  -0.082124  -0.176306  0  3.92244  0
C  C67  1  0.44515386  0.73516718  0.51326190  1  -0.023767  0  -0.081831  -0.17592  0  3.922142  0
C  C68  1  0.64224702  0.35237175  0.03022446  1  0.44705  0  0.046404  0.095344  0  3.944708  0
C  C69  1  0.64762293  0.35755943  0.46983137  1  0.449516  0  0.046918  0.096257  0  3.944963  0
C  C70  1  0.35775595  0.64762687  0.96977501  1  0.447006  0  0.046474  0.095399  0  3.944619  0
C  C71  1  0.35237797  0.64244020  0.53016894  1  0.449455  0  0.046901  0.096184  0  3.945026  0
C  C72  1  0.88111581  0.61356781  0.90103359  1  -0.01301  0  -0.09029  -0.136151  0  3.949018  0
C  C73  1  0.38641014  0.11881187  0.59892047  1  -0.011291  0  -0.089838  -0.135369  0  3.948822  0
C  C74  1  0.11888500  0.38643282  0.09896591  1  -0.013049  0  -0.090307  -0.136175  0  3.948972  0
C  C75  1  0.61359075  0.88118776  0.40107852  1  -0.011308  0  -0.08985  -0.135401  0  3.948795  0
C  C76  1  0.94452483  0.66748454  0.81278260  1  -0.055107  0  -0.074477  -0.095072  0  3.962511  0
C  C77  1  0.33250514  0.05540681  0.68718389  1  -0.055175  0  -0.074776  -0.095236  0  3.962743  0
C  C78  1  0.05547698  0.33251609  0.18721672  1  -0.054969  0  -0.074495  -0.095115  0  3.962528  0
C  C79  1  0.66749667  0.94459383  0.31281478  1  -0.054817  0  -0.07473  -0.09514  0  3.962628  0
C  C80  1  0.04805117  0.75964359  0.78325573  1  -0.024186  0  -0.008352  0.110638  0  4.023036  0
C  C81  1  0.24030655  0.95186862  0.71674903  1  -0.021806  0  -0.008037  0.110645  0  4.023444  0
C  C82  1  0.95195064  0.24035705  0.21674359  1  -0.024034  0  -0.008348  0.110651  0  4.023018  0
C  C83  1  0.75969426  0.04813202  0.28325046  1  -0.021931  0  -0.008052  0.110577  0  4.023505  0
C  C84  1  0.09881508  0.80680630  0.68695408  1  -0.061608  0  -0.083563  -0.120249  0  3.957525  0
C  C85  1  0.19313236  0.90111266  0.81305062  1  -0.063629  0  -0.083618  -0.12086  0  3.95761  0
C  C86  1  0.90118772  0.19319434  0.31304573  1  -0.061737  0  -0.083561  -0.120257  0  3.957425  0
C  C87  1  0.80686936  0.09888898  0.18694921  1  -0.06357  0  -0.083607  -0.120761  0  3.957662  0
C  C88  1  0.09920747  0.80751471  0.84554882  1  0.022292  0  -0.086508  -0.121329  0  3.961104  0
C  C89  1  0.19242045  0.90072133  0.65445695  1  0.022328  0  -0.086772  -0.122089  0  3.962313  0
C  C90  1  0.90079425  0.19248692  0.15445100  1  0.022228  0  -0.086476  -0.121349  0  3.961192  0
C  C91  1  0.80758028  0.09928031  0.34554238  1  0.022126  0  -0.086763  -0.122038  0  3.962267  0
C  C92  1  0.67117491  0.98592166  0.74953775  1  0.023727  0  -0.01891  -0.04743  0  3.963326  0
C  C93  1  0.01430180  0.32890278  0.75046861  1  0.014742  0  -0.018429  -0.046335  0  3.96194  0
C  C94  1  0.32882309  0.01407697  0.25046321  1  0.023582  0  -0.018968  -0.047506  0  3.96335  0
C  C95  1  0.98569502  0.67109785  0.24953156  1  0.014785  0  -0.018364  -0.046189  0  3.961925  0
C  C96  1  0.75080514  0.08639641  0.69115221  1  -0.056663  0  -0.072761  -0.063322  0  3.936098  0
C  C97  1  0.91400486  0.24925437  0.80894257  1  -0.038678  0  -0.072129  -0.062277  0  3.934386  0
C  C98  1  0.24919276  0.91360322  0.30884794  1  -0.056678  0  -0.072754  -0.063337  0  3.936137  0
C  C99  1  0.08599213  0.75074426  0.19105857  1  -0.038652  0  -0.072205  -0.062403  0  3.934504  0
C  C100  1  0.83057994  0.06855561  0.60600351  1  -0.046334  0  -0.089191  -0.085706  0  3.986168  0
C  C101  1  0.93181856  0.16940928  0.89416492  1  -0.051654  0  -0.090094  -0.08703  0  3.986511  0
C  C102  1  0.16941796  0.93144402  0.39399664  1  -0.046326  0  -0.089197  -0.085697  0  3.986197  0
C  C103  1  0.06818043  0.83058934  0.10583588  1  -0.05174  0  -0.090057  -0.086961  0  3.98647  0
C  C104  1  0.83077282  0.94979656  0.57822962  1  -0.045526  0  -0.080459  -0.091207  0  3.971453  0
C  C105  1  0.05033588  0.16919054  0.92191796  1  -0.050145  0  -0.080224  -0.091391  0  3.972521  0
C  C106  1  0.16922500  0.05020408  0.42177038  1  -0.045538  0  -0.080477  -0.091253  0  3.971415  0
C  C107  1  0.94966411  0.83080809  0.07808267  1  -0.050104  0  -0.080234  -0.09138  0  3.972419  0
C  C108  1  0.74802335  0.85040687  0.63430943  1  -0.030529  0  -0.022821  -0.049072  0  3.996707  0
C  C109  1  0.14959040  0.25196260  0.86573517  1  -0.031441  0  -0.022732  -0.048606  0  3.996082  0
C  C110  1  0.25197447  0.14959376  0.36569057  1  -0.030374  0  -0.022773  -0.048942  0  3.996604  0
C  C111  1  0.85040742  0.74803804  0.13426549  1  -0.031441  0  -0.022724  -0.048667  0  3.996077  0
C  C112  1  0.66826455  0.86907750  0.71976414  1  -0.063815  0  -0.07309  -0.094783  0  3.924384  0
C  C113  1  0.13091773  0.33177958  0.78020069  1  -0.063108  0  -0.073556  -0.095597  0  3.924207  0
C  C114  1  0.33173436  0.13092213  0.28023584  1  -0.063767  0  -0.073081  -0.094764  0  3.924392  0
C  C115  1  0.86907900  0.66822205  0.21979933  1  -0.063248  0  -0.073607  -0.095657  0  3.924267  0
C  C116  1  0.59366565  0.00107567  0.84396844  1  1.55305  0  0.225701  0.606155  0  4.141393  0
C  C117  1  0.99913018  0.40644401  0.65596853  1  1.553514  0  0.225098  0.605442  0  4.141476  0
C  C118  1  0.40633433  0.99892296  0.15603154  1  1.552862  0  0.225756  0.606241  0  4.141292  0
C  C119  1  0.00086682  0.59355462  0.34403195  1  1.553496  0  0.225239  0.605575  0  4.14126  0
C  C120  1  0.74769232  0.72199429  0.60577811  1  1.558043  0  0.192035  0.543921  0  4.24734  0
C  C121  1  0.27783595  0.25230476  0.89416102  1  1.564906  0  0.191951  0.54385  0  4.24658  0
C  C122  1  0.25230758  0.27800534  0.39422302  1  1.557534  0  0.19197  0.543747  0  4.247505  0
C  C123  1  0.72216543  0.74770089  0.10583555  1  1.56498  0  0.191964  0.543974  0  4.246283  0
N  N124  1  0.58449898  0.33739873  0.96349620  1  -1.258249  0  -0.340161  -0.254187  0  3.590349  0
N  N125  1  0.66275195  0.41529317  0.53657101  1  -1.261157  0  -0.340918  -0.2552  0  3.59195  0
N  N126  1  0.41550300  0.66259990  0.03650343  1  -1.258272  0  -0.340181  -0.254137  0  3.590364  0
N  N127  1  0.33724795  0.58470646  0.46342946  1  -1.261164  0  -0.340908  -0.255174  0  3.592005  0
O  O128  1  0.60857899  0.10440076  0.87082175  1  -1.169335  0  -0.308114  -0.536856  0  2.347923  0
O  O129  1  0.89611923  0.39122615  0.62914443  1  -1.169094  0  -0.307773  -0.536742  0  2.348564  0
O  O130  1  0.39142000  0.89559787  0.12917839  1  -1.169194  0  -0.308144  -0.536911  0  2.347906  0
O  O131  1  0.10387994  0.60877047  0.37085536  1  -1.169042  0  -0.307849  -0.536823  0  2.348487  0
O  O132  1  0.51803159  0.90897044  0.89234870  1  -1.196317  0  -0.324356  -0.566883  0  2.361003  0
O  O133  1  0.09090533  0.48237375  0.60755604  1  -1.196115  0  -0.324022  -0.566512  0  2.361808  0
O  O134  1  0.48196740  0.09102819  0.10765144  1  -1.196282  0  -0.324362  -0.566884  0  2.360984  0
O  O135  1  0.90909257  0.51762588  0.39244412  1  -1.196172  0  -0.324072  -0.566571  0  2.361776  0
O  O136  1  0.66681002  0.63789872  0.65388911  1  -1.182286  0  -0.316941  -0.550334  0  2.184205  0
O  O137  1  0.36166931  0.33337903  0.84591885  1  -1.187225  0  -0.316999  -0.550536  0  2.182937  0
O  O138  1  0.33319105  0.36209890  0.34611282  1  -1.182033  0  -0.316952  -0.550305  0  2.184263  0
O  O139  1  0.63832825  0.66662461  0.15407741  1  -1.187192  0  -0.31692  -0.550499  0  2.18271  0
O  O140  1  0.83521508  0.70261525  0.53153366  1  -1.163187  0  -0.33717  -0.557743  0  2.281434  0
O  O141  1  0.29735572  0.16463803  0.96844541  1  -1.163821  0  -0.337015  -0.557462  0  2.280722  0
O  O142  1  0.16478482  0.29738438  0.46846813  1  -1.162928  0  -0.337104  -0.55765  0  2.28147  0
O  O143  1  0.70264583  0.83536562  0.03155082  1  -1.163976  0  -0.337087  -0.55757  0  2.280679  0
