# generated using pymatgen
data_Cu2H4C5I2N
_symmetry_space_group_name_H-M   'P 1'
_cell_length_a   4.07475183
_cell_length_b   13.26715035
_cell_length_c   31.49800000
_cell_angle_alpha   99.98628553
_cell_angle_beta   90.00000000
_cell_angle_gamma   90.00000000
_symmetry_Int_Tables_number   1
_chemical_formula_structural   Cu2H4C5I2N
_chemical_formula_sum   'Cu16 H32 C40 I16 N8'
_cell_volume   1676.99423367
_cell_formula_units_Z   8
loop_
 _symmetry_equiv_pos_site_id
 _symmetry_equiv_pos_as_xyz
  1  'x, y, z'
loop_
 _atom_site_type_symbol
 _atom_site_label
 _atom_site_symmetry_multiplicity
 _atom_site_fract_x
 _atom_site_fract_y
 _atom_site_fract_z
 _atom_site_occupancy
 _atom_site_pbe_bader_charge
 _atom_site_pbe_bader_spin_density
 _atom_site_pbe_cm5_charge
 _atom_site_pbe_ddec_charge
 _atom_site_pbe_ddec_spin_density
 _atom_site_pbe_ddec_sum_bond_order
 _atom_site_pbe_magmom
Cu  Cu0  1  0.13472232  0.98487131  0.91005247  1  0.505501  0  0.355242  0.236159  0  2.627334  0
Cu  Cu1  1  0.63471350  0.01512841  0.58994780  1  0.505871  0  0.355254  0.236189  0  2.627237  0
Cu  Cu2  1  0.86530178  0.01513300  0.08995036  1  0.505881  0  0.355245  0.236186  0  2.627269  0
Cu  Cu3  1  0.36528360  0.98487208  0.41004967  1  0.505552  0  0.35523  0.236132  0  2.627278  0
Cu  Cu4  1  0.58719650  0.71376607  0.86524712  1  0.290441  0  0.134853  0.140741  0  2.747637  0
Cu  Cu5  1  0.08720040  0.28623136  0.63475361  1  0.290502  0  0.134862  0.140752  0  2.747654  0
Cu  Cu6  1  0.41280305  0.28623059  0.13475261  1  0.290637  0  0.134865  0.140771  0  2.747624  0
Cu  Cu7  1  0.91280160  0.71376607  0.36524585  1  0.290417  0  0.134845  0.140745  0  2.747624  0
Cu  Cu8  1  0.09019690  0.58678752  0.85745494  1  0.291673  0  0.135839  0.115851  0  2.80232  0
Cu  Cu9  1  0.59019300  0.41320914  0.64254574  1  0.291573  0  0.135834  0.115892  0  2.802303  0
Cu  Cu10  1  0.90980755  0.41320761  0.14254531  1  0.291548  0  0.135848  0.115843  0  2.802377  0
Cu  Cu11  1  0.40980164  0.58678829  0.35745372  1  0.291715  0  0.135854  0.115885  0  2.802273  0
Cu  Cu12  1  0.09238845  0.56548131  0.75395633  1  0.292607  0  0.138692  0.113327  0  2.790956  0
Cu  Cu13  1  0.59238454  0.43451612  0.74604186  1  0.292622  0  0.138719  0.113389  0  2.790899  0
Cu  Cu14  1  0.90761846  0.43451459  0.24604270  1  0.292519  0  0.1387  0.113368  0  2.790936  0
Cu  Cu15  1  0.40761992  0.56548054  0.25395691  1  0.292832  0  0.138696  0.113316  0  2.791  0
H  H16  1  0.83813693  0.10763773  0.99517020  1  0.100207  0  0.096252  0.07418  0  1.038953  0
H  H17  1  0.33812857  0.89236353  0.50482954  1  0.10022  0  0.096219  0.074129  0  1.038939  0
H  H18  1  0.16184544  0.89236200  0.00483038  1  0.100309  0  0.096262  0.074175  0  1.038872  0
H  H19  1  0.66183662  0.10763467  0.49516934  1  0.100237  0  0.096229  0.074144  0  1.038858  0
H  H20  1  0.72323423  0.29222700  0.02232502  1  0.101637  0  0.086465  0.102973  0  1.053391  0
H  H21  1  0.22321359  0.70777349  0.47767562  1  0.101626  0  0.086472  0.102997  0  1.053378  0
H  H22  1  0.27676287  0.70777349  0.97767562  1  0.101699  0  0.08646  0.102997  0  1.053406  0
H  H23  1  0.77675896  0.29222241  0.52232278  1  0.101713  0  0.086459  0.102976  0  1.053447  0
H  H24  1  0.88301328  0.42124977  0.97574020  1  0.06942  0  0.09543  0.097237  0  1.01178  0
H  H25  1  0.38300247  0.57875378  0.52426098  1  0.069443  0  0.095432  0.097236  0  1.011772  0
H  H26  1  0.11699117  0.57875761  0.02426380  1  0.06901  0  0.095443  0.097279  0  1.011738  0
H  H27  1  0.61700199  0.42124671  0.47573839  1  0.069489  0  0.095429  0.097296  0  1.011743  0
H  H28  1  0.15806361  0.36017131  0.90554518  1  0.102907  0  0.0881  0.101037  0  1.056943  0
H  H29  1  0.65807934  0.63982765  0.59445439  1  0.103079  0  0.088131  0.101105  0  1.056929  0
H  H30  1  0.84194330  0.63983225  0.09445949  1  0.103036  0  0.088136  0.101196  0  1.056877  0
H  H31  1  0.34194720  0.36017437  0.40554255  1  0.102847  0  0.088155  0.101153  0  1.056982  0
H  H32  1  0.51319199  0.29963011  0.85824324  1  0.104015  0  0.092278  0.107477  0  1.039012  0
H  H33  1  0.01319344  0.70036656  0.64175426  1  0.103896  0  0.092278  0.107536  0  1.03894  0
H  H34  1  0.48682965  0.70037498  0.14175932  1  0.10409  0  0.09227  0.107509  0  1.038997  0
H  H35  1  0.98680365  0.29962858  0.35824123  1  0.103989  0  0.092241  0.107517  0  1.038978  0
H  H36  1  0.76315568  0.21584486  0.78901206  1  0.059983  0  0.083566  0.095293  0  1.042995  0
H  H37  1  0.26314731  0.78414950  0.71098654  1  0.059973  0  0.083569  0.095317  0  1.043002  0
H  H38  1  0.23684878  0.78415409  0.21099132  1  0.06  0  0.083534  0.09525  0  1.042993  0
H  H39  1  0.73683751  0.21584563  0.28901085  1  0.05989  0  0.083514  0.095232  0  1.043038  0
H  H40  1  0.72538160  0.02367034  0.76834841  1  0.094357  0  0.099718  0.100614  0  1.035805  0
H  H41  1  0.22537814  0.97632480  0.73165184  1  0.094368  0  0.099687  0.100555  0  1.035887  0
H  H42  1  0.27461059  0.97633169  0.23165171  1  0.093625  0  0.099691  0.100562  0  1.035807  0
H  H43  1  0.77460423  0.02366957  0.26834835  1  0.094349  0  0.099709  0.100565  0  1.035823  0
H  H44  1  0.42875004  0.92610876  0.81772615  1  0.112475  0  0.090249  0.071453  0  1.056275  0
H  H45  1  0.92875104  0.07389173  0.68227513  1  0.112458  0  0.09026  0.071506  0  1.056241  0
H  H46  1  0.57124460  0.07389862  0.18227595  1  0.112255  0  0.090243  0.071491  0  1.056262  0
H  H47  1  0.07124115  0.92610723  0.31772540  1  0.112328  0  0.090275  0.07152  0  1.056264  0
C  C48  1  0.91081866  0.16593037  0.97652055  1  0.431378  0  0.036968  0.099975  0  3.937273  0
C  C49  1  0.41080293  0.83407012  0.52347978  1  0.431442  0  0.036967  0.09996  0  3.937392  0
C  C50  1  0.08917598  0.83406783  0.02347992  1  0.431113  0  0.036859  0.09988  0  3.937266  0
C  C51  1  0.58916471  0.16592960  0.47651986  1  0.431445  0  0.037007  0.100041  0  3.937233  0
C  C52  1  0.84554843  0.26894929  0.99139941  1  0.017753  0  -0.088484  -0.112482  0  3.956684  0
C  C53  1  0.34554006  0.73105350  0.50860140  1  0.017634  0  -0.088473  -0.112563  0  3.956746  0
C  C54  1  0.15445849  0.73104814  0.00860259  1  0.017462  0  -0.088441  -0.112522  0  3.956669  0
C  C55  1  0.65444476  0.26894776  0.49139739  1  0.017643  0  -0.088457  -0.112449  0  3.956828  0
C  C56  1  0.93688896  0.34009040  0.96573917  1  -0.065543  0  -0.079296  -0.035854  0  3.979379  0
C  C57  1  0.43689286  0.65991009  0.53425957  1  -0.065202  0  -0.079296  -0.035823  0  3.97926  0
C  C58  1  0.06310323  0.65991392  0.03426461  1  -0.064772  0  -0.079368  -0.035963  0  3.979504  0
C  C59  1  0.56311896  0.34008963  0.46573784  1  -0.065389  0  -0.079282  -0.035988  0  3.979403  0
C  C60  1  0.09169393  0.30604899  0.92645354  1  -0.054764  0  -0.089037  -0.15578  0  3.955648  0
C  C61  1  0.59167284  0.69395303  0.57354848  1  -0.054866  0  -0.089016  -0.155816  0  3.955506  0
C  C62  1  0.90831053  0.69395686  0.07355067  1  -0.054765  0  -0.089075  -0.155934  0  3.955707  0
C  C63  1  0.40832671  0.30604975  0.42645010  1  -0.054784  0  -0.08908  -0.155774  0  3.955488  0
C  C64  1  0.15591379  0.20149021  0.91398014  1  0.505297  0  0.10912  0.163713  0  3.96351  0
C  C65  1  0.65590988  0.79851181  0.58601839  1  0.505297  0  0.109012  0.163655  0  3.963326  0
C  C66  1  0.84407840  0.79851717  0.08602069  1  0.505491  0  0.109271  0.163919  0  3.963094  0
C  C67  1  0.34408967  0.20148944  0.41397913  1  0.505268  0  0.109121  0.163626  0  3.963461  0
C  C68  1  0.31893721  0.15790275  0.87310798  1  0.498659  0  0.109967  0.165595  0  3.949075  0
C  C69  1  0.81895049  0.84209391  0.62688984  1  0.498979  0  0.110064  0.165698  0  3.949084  0
C  C70  1  0.68107951  0.84210463  0.12689412  1  0.498391  0  0.110005  0.165826  0  3.948617  0
C  C71  1  0.18105643  0.15790734  0.37310863  1  0.498595  0  0.110054  0.165773  0  3.949059  0
C  C72  1  0.48939177  0.21731967  0.84773843  1  -0.063453  0  -0.089139  -0.149938  0  3.944547  0
C  C73  1  0.98937804  0.78267240  0.65225937  1  -0.063476  0  -0.089196  -0.150003  0  3.944789  0
C  C74  1  0.51062987  0.78268235  0.15226359  1  -0.063378  0  -0.089191  -0.150104  0  3.94438  0
C  C75  1  0.01061905  0.21732350  0.34773775  1  -0.063466  0  -0.089234  -0.15013  0  3.944602  0
C  C76  1  0.63311586  0.17026523  0.80929701  1  -0.055941  0  -0.08385  -0.031307  0  3.969157  0
C  C77  1  0.13311976  0.82972913  0.69070096  1  -0.055844  0  -0.0838  -0.031368  0  3.969288  0
C  C78  1  0.36688860  0.82973602  0.19070559  1  -0.055981  0  -0.083773  -0.031227  0  3.969023  0
C  C79  1  0.86686997  0.17026523  0.30929511  1  -0.055959  0  -0.083709  -0.031187  0  3.969136  0
C  C80  1  0.61221643  0.06402042  0.79777735  1  -0.006698  0  -0.092748  -0.130333  0  3.986283  0
C  C81  1  0.11222524  0.93597701  0.70222211  1  -0.006772  0  -0.092728  -0.130174  0  3.986508  0
C  C82  1  0.38777576  0.93598160  0.20222340  1  -0.005761  0  -0.092731  -0.130287  0  3.986417  0
C  C83  1  0.88776204  0.06402272  0.29777720  1  -0.006738  0  -0.092778  -0.130263  0  3.98645  0
C  C84  1  0.44657689  0.00935701  0.82500595  1  0.454104  0  0.034103  0.086458  0  3.966168  0
C  C85  1  0.94657298  0.99064272  0.67499558  1  0.45412  0  0.034039  0.086325  0  3.96626  0
C  C86  1  0.55341775  0.99065037  0.17499677  1  0.453867  0  0.034024  0.08637  0  3.966241  0
C  C87  1  0.05341430  0.00935318  0.32500377  1  0.454189  0  0.034004  0.086321  0  3.966144  0
I  I88  1  0.63816893  0.87755809  0.92460405  1  -0.351407  0  -0.155313  -0.269513  0  2.560414  0
I  I89  1  0.13816302  0.12244240  0.57539564  1  -0.351811  0  -0.155321  -0.26956  0  2.560478  0
I  I90  1  0.36184535  0.12244240  0.07539596  1  -0.351845  0  -0.155334  -0.269555  0  2.560516  0
I  I91  1  0.86183654  0.87755732  0.42460272  1  -0.351407  0  -0.155268  -0.269458  0  2.560374  0
I  I92  1  0.08615739  0.73568685  0.81219622  1  -0.319915  0  -0.126274  -0.168249  0  2.655859  0
I  I93  1  0.58615594  0.26431058  0.68780387  1  -0.319803  0  -0.126269  -0.168257  0  2.655943  0
I  I94  1  0.91384706  0.26431058  0.18780324  1  -0.319926  0  -0.126292  -0.168312  0  2.65602  0
I  I95  1  0.41384606  0.73568455  0.31219542  1  -0.319921  0  -0.12628  -0.168266  0  2.655963  0
I  I96  1  0.59004330  0.55636998  0.90598655  1  -0.357691  0  -0.156369  -0.210905  0  2.267521  0
I  I97  1  0.09004966  0.44362898  0.59401398  1  -0.357623  0  -0.156372  -0.210937  0  2.26746  0
I  I98  1  0.40995135  0.44362898  0.09401334  1  -0.357644  0  -0.156357  -0.210884  0  2.267439  0
I  I99  1  0.90994499  0.55636998  0.40598591  1  -0.357759  0  -0.156357  -0.210912  0  2.267471  0
I  I100  1  0.09136753  0.41393621  0.79693722  1  -0.309456  0  -0.118731  -0.144972  0  2.731426  0
I  I101  1  0.59137098  0.58606275  0.70306109  1  -0.309311  0  -0.118726  -0.145004  0  2.731504  0
I  I102  1  0.90863693  0.58605968  0.20306118  1  -0.3094  0  -0.118709  -0.144946  0  2.731474  0
I  I103  1  0.40863347  0.41393468  0.29693806  1  -0.309436  0  -0.118751  -0.14502  0  2.731502  0
N  N104  1  0.06456099  0.13240632  0.93897250  1  -1.22355  0  -0.353575  -0.23056  0  3.595038  0
N  N105  1  0.56455217  0.86759417  0.56102719  1  -1.22398  0  -0.353537  -0.230433  0  3.594998  0
N  N106  1  0.93544838  0.86759493  0.06102788  1  -1.22364  0  -0.35353  -0.23053  0  3.595042  0
N  N107  1  0.43543756  0.13240709  0.43897097  1  -1.223645  0  -0.353613  -0.23056  0  3.595119  0
N  N108  1  0.29708312  0.05441468  0.86144521  1  -1.22416  0  -0.354041  -0.232202  0  3.604387  0
N  N109  1  0.79707922  0.94558275  0.63855647  1  -1.224295  0  -0.354045  -0.232291  0  3.604329  0
N  N110  1  0.70292624  0.94559270  0.13855784  1  -1.223877  0  -0.354033  -0.232326  0  3.604326  0
N  N111  1  0.20292524  0.05441468  0.36144267  1  -1.223899  0  -0.354036  -0.232266  0  3.604223  0
