# generated using pymatgen
data_NaH10C12SNO11
_symmetry_space_group_name_H-M   'P 1'
_cell_length_a   6.90369216
_cell_length_b   10.10299252
_cell_length_c   12.52687626
_cell_angle_alpha   71.87768594
_cell_angle_beta   87.20529608
_cell_angle_gamma   73.65611718
_symmetry_Int_Tables_number   1
_chemical_formula_structural   NaH10C12SNO11
_chemical_formula_sum   'Na2 H20 C24 S2 N2 O22'
_cell_volume   796.10644643
_cell_formula_units_Z   2
loop_
 _symmetry_equiv_pos_site_id
 _symmetry_equiv_pos_as_xyz
  1  'x, y, z'
loop_
 _atom_site_type_symbol
 _atom_site_label
 _atom_site_symmetry_multiplicity
 _atom_site_fract_x
 _atom_site_fract_y
 _atom_site_fract_z
 _atom_site_occupancy
 _atom_site_hle17_bader_spin_density
 _atom_site_hle17_ddec_charge
 _atom_site_hle17_ddec_spin_density
 _atom_site_hle17_ddec_sum_bond_order
 _atom_site_hle17_magmom
 _atom_site_hse06_10hf_bader_spin_density
 _atom_site_hse06_10hf_ddec_charge
 _atom_site_hse06_10hf_ddec_spin_density
 _atom_site_hse06_10hf_ddec_sum_bond_order
 _atom_site_hse06_10hf_magmom
 _atom_site_hse06_bader_spin_density
 _atom_site_hse06_ddec_charge
 _atom_site_hse06_ddec_spin_density
 _atom_site_hse06_ddec_sum_bond_order
 _atom_site_hse06_magmom
 _atom_site_pbe_bader_spin_density
 _atom_site_pbe_cm5_charge
 _atom_site_pbe_ddec_charge
 _atom_site_pbe_ddec_spin_density
 _atom_site_pbe_ddec_sum_bond_order
 _atom_site_pbe_magmom
Na  Na0  1  0.30656866  0.81129913  0.62583317  1  0  0.907718  0  0.380221  0  0  0.867452  0  0.52906  0  0  0.877792  0  0.507129  0  0  0.68762  0.859642  0  0.544952  0
Na  Na1  1  0.69343598  0.18869352  0.37416683  1  0  0.907698  0  0.380218  0  0  0.86746  0  0.529046  0  0  0.877789  0  0.507113  0  0  0.687609  0.859644  0  0.544936  0
H  H2  1  0.63718212  0.41022042  0.50151096  1  0  0.40006  0  0.879933  0  0  0.370428  0  0.954976  0  0  0.383413  0  0.941041  0  0  0.313803  0.361298  0  0.964709  0
H  H3  1  0.36282383  0.58978642  0.49848638  1  0  0.400075  0  0.879924  0  0  0.370454  0  0.954933  0  0  0.383443  0  0.941004  0  0  0.313824  0.361325  0  0.964663  0
H  H4  1  0.89492415  0.00761461  0.23140582  1  0  0.407342  0  0.880959  0  0  0.377906  0  0.955295  0  0  0.390531  0  0.940358  0  0  0.305444  0.36912  0  0.964619  0
H  H5  1  0.10507698  0.99237589  0.76859002  1  0  0.407364  0  0.881  0  0  0.377978  0  0.955259  0  0  0.390605  0  0.940268  0  0  0.305486  0.36919  0  0.964593  0
H  H6  1  0.73195518  0.19100801  0.75144620  1  0  0.099135  0  0.955794  0  0  0.107834  0  1.01882  0  0  0.1116  0  1.015754  0  0  0.110406  0.104994  0  1.02149  0
H  H7  1  0.26804154  0.80899656  0.24854877  1  0  0.099177  0  0.955746  0  0  0.107888  0  1.018752  0  0  0.111657  0  1.015687  0  0  0.110443  0.105052  0  1.021421  0
H  H8  1  0.79875715  0.06924193  0.95551193  1  0  0.125951  0  0.961831  0  0  0.13108  0  1.029541  0  0  0.134789  0  1.026537  0  0  0.113167  0.128128  0  1.032303  0
H  H9  1  0.20124746  0.93075411  0.04448087  1  0  0.125927  0  0.96179  0  0  0.131051  0  1.029501  0  0  0.134763  0  1.026489  0  0  0.113149  0.128051  0  1.032317  0
H  H10  1  0.74774267  0.45558599  0.10968264  1  0  0.139062  0  0.954872  0  0  0.143948  0  1.019741  0  0  0.148658  0  1.015614  0  0  0.122385  0.140511  0  1.0228  0
H  H11  1  0.25226001  0.54440442  0.89031876  1  0  0.139032  0  0.954848  0  0  0.143923  0  1.01973  0  0  0.148636  0  1.015595  0  0  0.122382  0.140485  0  1.022797  0
H  H12  1  0.79066500  0.81642596  0.82803321  1  0  0.127265  0  0.935995  0  0  0.133351  0  0.999378  0  0  0.137737  0  0.995524  0  0  0.120832  0.130046  0  1.00242  0
H  H13  1  0.20932558  0.18357615  0.17197211  1  0  0.127234  0  0.936063  0  0  0.133339  0  0.999425  0  0  0.137728  0  0.995566  0  0  0.120815  0.130032  0  1.002466  0
H  H14  1  0.41318671  0.84904409  0.40526130  1  0  0.424812  0  0.822421  0  0  0.408932  0  0.87365  0  0  0.416307  0  0.865245  0  0  0.326102  0.403738  0  0.879602  0
H  H15  1  0.58681445  0.15096379  0.59473513  1  0  0.424775  0  0.822469  0  0  0.408916  0  0.873645  0  0  0.416287  0  0.865249  0  0  0.326104  0.403724  0  0.879599  0
H  H16  1  0.32342672  0.00773847  0.41425858  1  0  0.433056  0  0.871031  0  0  0.401914  0  0.934659  0  0  0.412388  0  0.919379  0  0  0.296767  0.394669  0  0.945241  0
H  H17  1  0.67657164  0.99226927  0.58574276  1  0  0.433046  0  0.871065  0  0  0.401906  0  0.934702  0  0  0.41238  0  0.91942  0  0  0.296793  0.394658  0  0.945291  0
H  H18  1  0.94368362  0.07218783  0.61442972  1  0  0.442554  0  0.854082  0  0  0.409863  0  0.920378  0  0  0.420204  0  0.905291  0  0  0.299022  0.402607  0  0.930939  0
H  H19  1  0.05631599  0.92781677  0.38556595  1  0  0.442587  0  0.854038  0  0  0.409896  0  0.920336  0  0  0.420237  0  0.905249  0  0  0.299029  0.402639  0  0.930899  0
H  H20  1  0.09848192  0.16225896  0.60716982  1  0  0.441484  0  0.801261  0  0  0.420211  0  0.861281  0  0  0.428542  0  0.851458  0  0  0.328639  0.414285  0  0.868313  0
H  H21  1  0.90152421  0.83773365  0.39283335  1  0  0.441469  0  0.801126  0  0  0.420199  0  0.861156  0  0  0.428528  0  0.851329  0  0  0.328617  0.414271  0  0.868184  0
C  C22  1  0.77638594  0.62782000  0.78663353  1  0  -0.132075  0  3.634984  0  0  -0.112228  0  3.887866  0  0  -0.119467  0  3.906948  0  0  -0.003026  -0.107824  0  3.875337  0
C  C23  1  0.22361126  0.37218009  0.21336889  1  0  -0.132005  0  3.634809  0  0  -0.112202  0  3.887737  0  0  -0.119444  0  3.906827  0  0  -0.003037  -0.107794  0  3.8752  0
C  C24  1  0.75009105  0.48541536  0.82652470  1  0  0.078982  0  3.658477  0  0  0.07168  0  3.895494  0  0  0.075974  0  3.917921  0  0  0.022021  0.069029  0  3.880348  0
C  C25  1  0.24990902  0.51458480  0.17347682  1  0  0.078966  0  3.658437  0  0  0.071724  0  3.895392  0  0  0.076018  0  3.917815  0  0  0.022066  0.069072  0  3.880243  0
C  C26  1  0.72429226  0.40140312  0.75740679  1  0  -0.082571  0  3.66433  0  0  -0.069545  0  3.909308  0  0  -0.07703  0  3.92969  0  0  0.00319  -0.064694  0  3.895565  0
C  C27  1  0.27571362  0.59860045  0.24259134  1  0  -0.082644  0  3.664389  0  0  -0.069622  0  3.909379  0  0  -0.077106  0  3.929759  0  0  0.003159  -0.064768  0  3.895637  0
C  C28  1  0.63824537  0.46189061  0.63942487  1  0  0.704889  0  3.77093  0  0  0.64819  0  4.076271  0  0  0.683255  0  4.065881  0  0  0.251255  0.624536  0  4.08281  0
C  C29  1  0.36175529  0.53811504  0.36057371  1  0  0.704952  0  3.770792  0  0  0.648199  0  4.076219  0  0  0.683259  0  4.065835  0  0  0.251254  0.624535  0  4.082776  0
C  C30  1  0.74741206  0.25407782  0.80516904  1  0  -0.028007  0  3.685928  0  0  -0.061293  0  3.94923  0  0  -0.059271  0  3.965136  0  0  -0.069023  -0.062517  0  3.938454  0
C  C31  1  0.25259659  0.74592255  0.19482819  1  0  -0.028041  0  3.685966  0  0  -0.061325  0  3.949257  0  0  -0.059306  0  3.965162  0  0  -0.069039  -0.062548  0  3.938468  0
C  C32  1  0.78052675  0.18507897  0.92131226  1  0  -0.035043  0  3.683037  0  0  -0.069301  0  3.949865  0  0  -0.068152  0  3.966705  0  0  -0.073012  -0.06977  0  3.938552  0
C  C33  1  0.21948136  0.81491920  0.07868551  1  0  -0.035038  0  3.682882  0  0  -0.069301  0  3.949719  0  0  -0.068131  0  3.966577  0  0  -0.073018  -0.069733  0  3.938432  0
C  C34  1  0.77351501  0.26657721  0.99231901  1  0  -0.097187  0  3.706736  0  0  -0.086291  0  3.950734  0  0  -0.093958  0  3.974266  0  0  -0.008798  -0.081224  0  3.934821  0
C  C35  1  0.22648778  0.73341980  0.00767840  1  0  -0.097027  0  3.706599  0  0  -0.086111  0  3.950556  0  0  -0.093846  0  3.974181  0  0  -0.008764  -0.081047  0  3.934627  0
C  C36  1  0.77752410  0.19197786  0.11575111  1  0  0.668862  0  3.80764  0  0  0.619936  0  4.105662  0  0  0.653179  0  4.09625  0  0  0.236572  0.597551  0  4.111098  0
C  C37  1  0.22247914  0.80801470  0.88425215  1  0  0.66858  0  3.807908  0  0  0.619675  0  4.1059  0  0  0.652924  0  4.096528  0  0  0.236543  0.597299  0  4.111315  0
C  C38  1  0.75660726  0.41858701  0.94719487  1  0  0.052881  0  3.711369  0  0  0.063497  0  3.947881  0  0  0.0608  0  3.973727  0  0  0.005483  0.0651  0  3.930643  0
C  C39  1  0.24339038  0.58141202  0.05280700  1  0  0.052779  0  3.711175  0  0  0.063374  0  3.947719  0  0  0.060699  0  3.973575  0  0  0.005414  0.06498  0  3.930476  0
C  C40  1  0.75195553  0.50273761  0.01926368  1  0  -0.114645  0  3.677561  0  0  -0.153822  0  3.939705  0  0  -0.151844  0  3.957124  0  0  -0.067714  -0.154913  0  3.928262  0
C  C41  1  0.24804779  0.49725823  0.98073879  1  0  -0.114412  0  3.677424  0  0  -0.153656  0  3.939606  0  0  -0.151679  0  3.957018  0  0  -0.067681  -0.154746  0  3.928171  0
C  C42  1  0.75033542  0.64563987  0.97392562  1  0  0.067126  0  3.730158  0  0  0.062902  0  3.990543  0  0  0.058847  0  4.013651  0  0  0.073356  0.065155  0  3.975059  0
C  C43  1  0.24966369  0.35435915  0.02607780  1  0  0.066939  0  3.730513  0  0  0.062812  0  3.990813  0  0  0.058761  0  4.013922  0  0  0.073316  0.065058  0  3.975334  0
C  C44  1  0.77253457  0.70756025  0.85887424  1  0  -0.078004  0  3.71715  0  0  -0.117193  0  3.977394  0  0  -0.114034  0  3.993275  0  0  -0.070823  -0.118765  0  3.966435  0
C  C45  1  0.22746119  0.29243983  0.14112823  1  0  -0.07795  0  3.71715  0  0  -0.117174  0  3.977357  0  0  -0.114016  0  3.99324  0  0  -0.070791  -0.118743  0  3.966395  0
S  S46  1  0.83114309  0.71652505  0.64423230  1  0  1.302105  0  5.683057  0  0  1.209487  0  6.204341  0  0  1.256518  0  6.182644  0  0  0.512232  1.177263  0  6.218001  0
S  S47  1  0.16884892  0.28347710  0.35577217  1  0  1.302001  0  5.683236  0  0  1.209344  0  6.204574  0  0  1.256372  0  6.18288  0  0  0.512099  1.177115  0  6.218242  0
N  N48  1  0.73064353  0.73488825  0.04897838  1  0  0.49007  0  3.916633  0  0  0.518441  0  4.218678  0  0  0.538139  0  4.229583  0  0  0.053454  0.505497  0  4.210978  0
N  N49  1  0.26934841  0.26511398  0.95102208  1  0  0.48998  0  3.916902  0  0  0.518279  0  4.219005  0  0  0.537975  0  4.229911  0  0  0.05333  0.505337  0  4.211304  0
O  O50  1  0.88725555  0.61022789  0.58411953  1  0  -0.613699  0  1.942831  0  0  -0.572382  0  2.176172  0  0  -0.592714  0  2.16327  0  0  -0.323265  -0.558207  0  2.18443  0
O  O51  1  0.11274230  0.38978099  0.41587835  1  0  -0.61372  0  1.942931  0  0  -0.572321  0  2.176218  0  0  -0.592656  0  2.163326  0  0  -0.323179  -0.558149  0  2.184481  0
O  O52  1  0.64044088  0.83307599  0.59835390  1  0  -0.74983  0  1.991248  0  0  -0.6988  0  2.242303  0  0  -0.719635  0  2.225584  0  0  -0.402429  -0.68415  0  2.253197  0
O  O53  1  0.35954550  0.16692928  0.40165318  1  0  -0.74975  0  1.991362  0  0  -0.698726  0  2.24243  0  0  -0.719555  0  2.225706  0  0  -0.402319  -0.684077  0  2.253325  0
O  O54  1  0.99128178  0.78024084  0.65661323  1  0  -0.707223  0  1.973419  0  0  -0.660918  0  2.229532  0  0  -0.682276  0  2.215836  0  0  -0.414172  -0.645702  0  2.238223  0
O  O55  1  0.00871357  0.21976026  0.34339220  1  0  -0.707187  0  1.973412  0  0  -0.660912  0  2.229567  0  0  -0.682261  0  2.215862  0  0  -0.414219  -0.64569  0  2.238254  0
O  O56  1  0.48574943  0.56893979  0.60987819  1  0  -0.606087  0  1.988872  0  0  -0.562355  0  2.214015  0  0  -0.583995  0  2.201844  0  0  -0.316572  -0.547457  0  2.221979  0
O  O57  1  0.51425171  0.43106475  0.39012224  1  0  -0.60608  0  1.988818  0  0  -0.562341  0  2.213993  0  0  -0.583971  0  2.201816  0  0  -0.316552  -0.547432  0  2.221959  0
O  O58  1  0.71643333  0.37831146  0.57656456  1  0  -0.528737  0  2.124774  0  0  -0.475114  0  2.342469  0  0  -0.49754  0  2.327857  0  0  -0.310984  -0.4597  0  2.352067  0
O  O59  1  0.28356929  0.62169643  0.42343262  1  0  -0.528747  0  2.12474  0  0  -0.475122  0  2.342474  0  0  -0.497549  0  2.327853  0  0  -0.310973  -0.459707  0  2.352075  0
O  O60  1  0.89752391  0.05700234  0.14621862  1  0  -0.544396  0  2.102764  0  0  -0.491719  0  2.320461  0  0  -0.514804  0  2.305539  0  0  -0.320138  -0.475819  0  2.329265  0
O  O61  1  0.10248008  0.94298824  0.85377552  1  0  -0.544317  0  2.103016  0  0  -0.491699  0  2.320683  0  0  -0.514766  0  2.305699  0  0  -0.32022  -0.475809  0  2.329511  0
O  O62  1  0.67540659  0.24987693  0.18133730  1  0  -0.597981  0  1.996711  0  0  -0.560119  0  2.230879  0  0  -0.580166  0  2.222466  0  0  -0.349168  -0.546132  0  2.236216  0
O  O63  1  0.32461074  0.75010613  0.81866226  1  0  -0.597875  0  1.996493  0  0  -0.559999  0  2.230629  0  0  -0.580048  0  2.222226  0  0  -0.349096  -0.546011  0  2.235959  0
O  O64  1  0.74753313  0.67338342  0.15198691  1  0  -0.351277  0  1.722747  0  0  -0.338223  0  1.92045  0  0  -0.349268  0  1.91862  0  0  -0.130728  -0.3307  0  1.921663  0
O  O65  1  0.25246411  0.32662000  0.84801231  1  0  -0.351245  0  1.722712  0  0  -0.338168  0  1.920421  0  0  -0.349215  0  1.91859  0  0  -0.130725  -0.330646  0  1.921632  0
O  O66  1  0.69431829  0.86804756  0.00401348  1  0  -0.351596  0  1.765519  0  0  -0.336909  0  1.978056  0  0  -0.349046  0  1.974447  0  0  -0.124611  -0.329005  0  1.981212  0
O  O67  1  0.30565643  0.13195768  0.99598597  1  0  -0.351532  0  1.765774  0  0  -0.33679  0  1.978319  0  0  -0.34893  0  1.974716  0  0  -0.12447  -0.32888  0  1.981467  0
O  O68  1  0.29327266  0.91275068  0.42539720  1  0  -0.858231  0  1.849161  0  0  -0.811727  0  2.024937  0  0  -0.828878  0  1.997173  0  0  -0.616901  -0.799816  0  2.044105  0
O  O69  1  0.70672993  0.08725387  0.57460398  1  0  -0.858176  0  1.849241  0  0  -0.811686  0  2.024977  0  0  -0.828837  0  1.997222  0  0  -0.616912  -0.799773  0  2.044151  0
O  O70  1  0.08508448  0.06395153  0.63733381  1  0  -0.836796  0  1.809321  0  0  -0.789195  0  1.979724  0  0  -0.806682  0  1.951591  0  0  -0.580412  -0.776854  0  1.999023  0
O  O71  1  0.91491674  0.93604225  0.36266124  1  0  -0.836804  0  1.80911  0  0  -0.78918  0  1.979507  0  0  -0.806661  0  1.951396  0  0  -0.580409  -0.776836  0  1.998796  0
