# generated using pymatgen
data_ZnH8C13NO4
_symmetry_space_group_name_H-M   'P 1'
_cell_length_a   7.63207731
_cell_length_b   9.34429819
_cell_length_c   10.65891693
_cell_angle_alpha   65.86737421
_cell_angle_beta   85.93438685
_cell_angle_gamma   79.50553247
_symmetry_Int_Tables_number   1
_chemical_formula_structural   ZnH8C13NO4
_chemical_formula_sum   'Zn2 H16 C26 N2 O8'
_cell_volume   682.10961213
_cell_formula_units_Z   2
loop_
 _symmetry_equiv_pos_site_id
 _symmetry_equiv_pos_as_xyz
  1  'x, y, z'
loop_
 _atom_site_type_symbol
 _atom_site_label
 _atom_site_symmetry_multiplicity
 _atom_site_fract_x
 _atom_site_fract_y
 _atom_site_fract_z
 _atom_site_occupancy
 _atom_site_pbe_bader_charge
 _atom_site_pbe_bader_spin_density
 _atom_site_pbe_cm5_charge
 _atom_site_pbe_ddec_charge
 _atom_site_pbe_ddec_spin_density
 _atom_site_pbe_ddec_sum_bond_order
 _atom_site_pbe_magmom
Zn  Zn0  1  0.36262269  0.43751928  0.45648715  1  1.30798  0  0.684885  0.849164  0  2.361227  0
Zn  Zn1  1  0.63737718  0.56248331  0.54351206  1  1.308049  0  0.684883  0.84916  0  2.361288  0
H  H2  1  0.07827249  0.19728659  0.57789041  1  0.105819  0  0.101198  0.107517  0  1.047631  0
H  H3  1  0.69935205  0.04074580  0.40234521  1  0.087902  0  0.103062  0.10783  0  1.009049  0
H  H4  1  0.38137824  0.24546950  0.28697276  1  0.138546  0  0.12574  0.10106  0  0.984791  0
H  H5  1  0.24455108  0.28354521  0.06962692  1  0.084102  0  0.109869  0.115898  0  1.021731  0
H  H6  1  0.27803501  0.00996599  0.83488322  1  0.086764  0  0.105251  0.11193  0  1.007202  0
H  H7  1  0.01525028  0.61020067  0.32638492  1  0.160069  0  0.124659  0.103985  0  1.007522  0
H  H8  1  0.66641293  0.22485601  0.93734667  1  0.134293  0  0.102282  0.110151  0  1.010015  0
H  H9  1  0.86227042  0.66693812  0.11118088  1  0.085337  0  0.108876  0.113265  0  1.031064  0
H  H10  1  0.92172369  0.80271476  0.42210850  1  0.105834  0  0.101216  0.107531  0  1.047584  0
H  H11  1  0.30064329  0.95925316  0.59765648  1  0.087939  0  0.103047  0.10781  0  1.009102  0
H  H12  1  0.61862604  0.75453075  0.71302802  1  0.138487  0  0.125735  0.101054  0  0.98474  0
H  H13  1  0.75545631  0.71645267  0.93037268  1  0.084054  0  0.109838  0.115911  0  1.021719  0
H  H14  1  0.72196201  0.99003776  0.16511571  1  0.086816  0  0.105261  0.111947  0  1.007196  0
H  H15  1  0.98474924  0.38979713  0.67361416  1  0.160225  0  0.124638  0.103935  0  1.007544  0
H  H16  1  0.33358718  0.77514538  0.06265296  1  0.134121  0  0.102294  0.11017  0  1.010021  0
H  H17  1  0.13772959  0.33305729  0.88881810  1  0.085289  0  0.108934  0.113331  0  1.031062  0
C  C18  1  0.44157071  0.27027698  0.73650796  1  1.594105  0  0.20691  0.576198  0  4.201065  0
C  C19  1  0.46841669  0.13132477  0.87362928  1  -0.081259  0  -0.018373  -0.033538  0  3.97523  0
C  C20  1  0.37448638  0.00465830  0.90804635  1  -0.03324  0  -0.088496  -0.106615  0  3.989109  0
C  C21  1  0.59402535  0.12565513  0.96640496  1  -0.073367  0  -0.087746  -0.098118  0  3.978143  0
C  C22  1  0.74043732  0.27712930  0.47866630  1  1.561822  0  0.215345  0.590252  0  4.171415  0
C  C23  1  0.04411689  0.11070344  0.54398561  1  -0.070069  0  -0.089951  -0.104257  0  3.98836  0
C  C24  1  0.83152690  0.02286483  0.44435768  1  -0.053718  0  -0.086753  -0.096096  0  3.979332  0
C  C25  1  0.26518588  0.33678769  0.24364180  1  0.519225  0  0.059126  0.107816  0  3.922329  0
C  C26  1  0.18752998  0.36039222  0.12135307  1  -0.020754  0  -0.075562  -0.166189  0  3.922984  0
C  C27  1  0.04118424  0.48291392  0.06658382  1  0.003509  0  0.017103  0.106068  0  3.962892  0
C  C28  1  0.97682675  0.57187119  0.14408899  1  -0.063773  0  -0.074956  -0.158966  0  3.907165  0
C  C29  1  0.06108099  0.54104258  0.26578769  1  0.495286  0  0.06055  0.118268  0  3.900841  0
C  C30  1  0.87500140  0.13479019  0.48799912  1  0.01186  0  -0.01941  -0.033329  0  3.971809  0
C  C31  1  0.55842416  0.72972435  0.26349101  1  1.594225  0  0.206806  0.576044  0  4.201165  0
C  C32  1  0.53158188  0.86867780  0.12637001  1  -0.081337  0  -0.018375  -0.033473  0  3.975249  0
C  C33  1  0.62551266  0.99534189  0.09195377  1  -0.033331  0  -0.088495  -0.106637  0  3.98909  0
C  C34  1  0.40597083  0.87434622  0.03359488  1  -0.073144  0  -0.087747  -0.098152  0  3.97817  0
C  C35  1  0.25956148  0.72287207  0.52133340  1  1.56181  0  0.215292  0.590121  0  4.171738  0
C  C36  1  0.95588108  0.88929555  0.45601594  1  -0.070031  0  -0.089985  -0.104324  0  3.988257  0
C  C37  1  0.16846713  0.97713413  0.55564594  1  -0.053269  0  -0.086714  -0.0961  0  3.979334  0
C  C38  1  0.73481995  0.66321138  0.75635932  1  0.519368  0  0.059163  0.107914  0  3.922188  0
C  C39  1  0.81247526  0.63960327  0.87864845  1  -0.02077  0  -0.075539  -0.166281  0  3.923086  0
C  C40  1  0.95881815  0.51708270  0.93341367  1  -0.035817  0  0.017085  0.106106  0  3.963024  0
C  C41  1  0.02317694  0.42812547  0.85591311  1  -0.063943  0  -0.074995  -0.15904  0  3.907195  0
C  C42  1  0.93892009  0.45895404  0.73421175  1  0.495247  0  0.060563  0.118336  0  3.900757  0
C  C43  1  0.12499788  0.86520881  0.51200142  1  0.011434  0  -0.019398  -0.033199  0  3.971694  0
N  N44  1  0.20473608  0.42686755  0.31414906  1  -1.250997  0  -0.323169  -0.214498  0  3.533686  0
N  N45  1  0.79526607  0.57313027  0.68584989  1  -1.250964  0  -0.323184  -0.214561  0  3.533632  0
O  O46  1  0.32825757  0.27082029  0.65329678  1  -1.168085  0  -0.316341  -0.543148  0  2.298937  0
O  O47  1  0.53659259  0.37652399  0.71244314  1  -1.194704  0  -0.317463  -0.567858  0  2.358615  0
O  O48  1  0.58195534  0.28109333  0.44551514  1  -1.173609  0  -0.314633  -0.547816  0  2.351604  0
O  O49  1  0.79412049  0.38236840  0.50660400  1  -1.173427  0  -0.312005  -0.548962  0  2.375121  0
O  O50  1  0.67173919  0.72918466  0.34670454  1  -1.168059  0  -0.316276  -0.543091  0  2.29885  0
O  O51  1  0.46341039  0.62347624  0.28755584  1  -1.194814  0  -0.317429  -0.567799  0  2.358736  0
O  O52  1  0.41804607  0.71890809  0.55448723  1  -1.17361  0  -0.314633  -0.547802  0  2.351495  0
O  O53  1  0.20588081  0.61764015  0.49339204  1  -1.173425  0  -0.311979  -0.54892  0  2.375431  0
