# generated using pymatgen
data_Cu3MoH35C36S5N6
_symmetry_space_group_name_H-M   'P 1'
_cell_length_a   11.20016642
_cell_length_b   11.42138859
_cell_length_c   17.44921790
_cell_angle_alpha   96.00079072
_cell_angle_beta   94.29953597
_cell_angle_gamma   95.61874261
_symmetry_Int_Tables_number   1
_chemical_formula_structural   Cu3MoH35C36S5N6
_chemical_formula_sum   'Cu6 Mo2 H70 C72 S10 N12'
_cell_volume   2201.03063913
_cell_formula_units_Z   2
loop_
 _symmetry_equiv_pos_site_id
 _symmetry_equiv_pos_as_xyz
  1  'x, y, z'
loop_
 _atom_site_type_symbol
 _atom_site_label
 _atom_site_symmetry_multiplicity
 _atom_site_fract_x
 _atom_site_fract_y
 _atom_site_fract_z
 _atom_site_occupancy
 _atom_site_pbe_bader_charge
 _atom_site_pbe_bader_spin_density
 _atom_site_pbe_cm5_charge
 _atom_site_pbe_ddec_charge
 _atom_site_pbe_ddec_spin_density
 _atom_site_pbe_ddec_sum_bond_order
 _atom_site_pbe_magmom
Cu  Cu0  1  0.61324538  0.61694781  0.68553826  1  0.668894  0  0.514016  0.440678  0  2.881005  0
Cu  Cu1  1  0.38676163  0.38304282  0.31445596  1  0.66917  0  0.514157  0.440861  0  2.881187  0
Cu  Cu2  1  0.39901120  0.79994577  0.75832700  1  0.616671  0  0.487638  0.316999  0  2.916039  0
Cu  Cu3  1  0.60098717  0.20003950  0.24167043  1  0.617122  0  0.487685  0.317179  0  2.915769  0
Cu  Cu4  1  0.57426685  0.90279872  0.62204572  1  0.599609  0  0.457833  0.396281  0  2.8946  0
Cu  Cu5  1  0.42568768  0.09717872  0.37794333  1  0.599553  0  0.457891  0.396523  0  2.894721  0
Mo  Mo6  1  0.63919545  0.84002110  0.76128089  1  1.390723  0  0.85242  0.792111  0  4.71604  0
Mo  Mo7  1  0.36080021  0.15997225  0.23870956  1  1.390862  0  0.852469  0.792244  0  4.716006  0
H  H8  1  0.42426761  0.40930135  0.66743083  1  0.109377  0  0.115289  0.091095  0  0.994407  0
H  H9  1  0.57573453  0.59068584  0.33255603  1  0.109189  0  0.115327  0.09127  0  0.994324  0
H  H10  1  0.23646907  0.34319359  0.58437813  1  0.097832  0  0.101109  0.103861  0  1.060067  0
H  H11  1  0.76353334  0.65680426  0.41560668  1  0.097448  0  0.101067  0.103811  0  1.060015  0
H  H12  1  0.32414106  0.63117863  0.44901628  1  0.096239  0  0.106292  0.12075  0  1.008975  0
H  H13  1  0.67587356  0.36883232  0.55098154  1  0.096886  0  0.106309  0.120728  0  1.009087  0
H  H14  1  0.51089589  0.68411783  0.53716429  1  0.107123  0  0.103406  0.077855  0  1.056964  0
H  H15  1  0.48912047  0.31587629  0.46283236  1  0.107244  0  0.103416  0.077857  0  1.057057  0
H  H16  1  0.14015491  0.51164156  0.41314505  1  0.08706  0  0.104987  0.10931  0  1.016519  0
H  H17  1  0.85986167  0.48837929  0.58684271  1  0.087443  0  0.105056  0.1095  0  1.01635  0
H  H18  1  0.07675299  0.30824759  0.51124106  1  0.062386  0  0.098667  0.09774  0  1.029945  0
H  H19  1  0.92325306  0.69176713  0.48874231  1  0.06194  0  0.098766  0.097824  0  1.030316  0
H  H20  1  0.89333297  0.18776162  0.47550055  1  0.091593  0  0.100795  0.107841  0  1.046683  0
H  H21  1  0.10668817  0.81226795  0.52449667  1  0.091295  0  0.100723  0.107723  0  1.046806  0
H  H22  1  0.70864011  0.12960861  0.38658165  1  0.11987  0  0.106519  0.080042  0  1.047657  0
H  H23  1  0.29137273  0.87040224  0.61342296  1  0.119658  0  0.106481  0.080024  0  1.047673  0
H  H24  1  0.78783341  0.40963111  0.25916164  1  0.077977  0  0.113664  0.081914  0  0.987637  0
H  H25  1  0.21216715  0.59035000  0.74081667  1  0.075636  0  0.113745  0.082014  0  0.987701  0
H  H26  1  0.97725904  0.47636894  0.33878193  1  0.099345  0  0.097778  0.1074  0  1.054986  0
H  H27  1  0.02274684  0.52362828  0.66118523  1  0.10016  0  0.097784  0.107391  0  1.055189  0
H  H28  1  0.30438942  0.70835836  0.90251558  1  0.104115  0  0.118028  0.091274  0  0.97921  0
H  H29  1  0.69562360  0.29161365  0.09747811  1  0.104468  0  0.117954  0.091273  0  0.979145  0
H  H30  1  0.14996314  0.75841380  0.99305508  1  0.079402  0  0.113764  0.119351  0  0.990604  0
H  H31  1  0.85004792  0.24154842  0.00694123  1  0.081655  0  0.113672  0.119155  0  0.9904  0
H  H32  1  0.12689121  0.08259642  0.88689004  1  0.075361  0  0.113216  0.117963  0  0.994421  0
H  H33  1  0.87310691  0.91737016  0.11311229  1  0.075452  0  0.113163  0.117915  0  0.994413  0
H  H34  1  0.27907975  0.01807837  0.80071008  1  0.112713  0  0.113404  0.096407  0  1.006393  0
H  H35  1  0.72092222  0.98189886  0.19929151  1  0.112664  0  0.113345  0.096439  0  1.00632  0
H  H36  1  0.01942980  0.89256547  0.04436992  1  0.056891  0  0.107846  0.102713  0  0.999602  0
H  H37  1  0.98057361  0.10739229  0.95562856  1  0.058002  0  0.107934  0.102877  0  0.999514  0
H  H38  1  0.77411608  0.63469801  0.88308719  1  0.10099  0  0.09992  0.148342  0  0.984151  0
H  H39  1  0.22588318  0.36528744  0.11689768  1  0.101442  0  0.099946  0.148326  0  0.984033  0
H  H40  1  0.67032379  0.69781502  0.94294432  1  0.032186  0  0.089972  0.134473  0  1.001722  0
H  H41  1  0.32967459  0.30216247  0.05703935  1  0.032269  0  0.090058  0.134721  0  1.001433  0
H  H42  1  0.82776696  0.72974445  0.96869209  1  0.043857  0  0.090097  0.12259  0  0.992194  0
H  H43  1  0.17222805  0.27022679  0.03129497  1  0.04361  0  0.090157  0.122616  0  0.992131  0
H  H44  1  0.55052227  0.85022577  0.94870963  1  0.05155  0  0.090526  0.128596  0  1.012514  0
H  H45  1  0.44947960  0.14975071  0.05128158  1  0.051801  0  0.090607  0.128727  0  1.012589  0
H  H46  1  0.54117733  0.99744032  0.92748842  1  0.055981  0  0.092977  0.133061  0  1.011722  0
H  H47  1  0.45881549  0.00253522  0.07250745  1  0.055753  0  0.092944  0.133038  0  1.011622  0
H  H48  1  0.64430953  0.96848053  0.00385484  1  0.022984  0  0.085564  0.121652  0  1.037357  0
H  H49  1  0.35568578  0.03149325  0.99613987  1  0.022801  0  0.085439  0.121467  0  1.037327  0
H  H50  1  0.77978584  0.19545456  0.87331686  1  0.049477  0  0.085816  0.118872  0  1.016865  0
H  H51  1  0.22020368  0.80453149  0.12668823  1  0.049822  0  0.085767  0.118806  0  1.016868  0
H  H52  1  0.62389232  0.14356161  0.86913797  1  0.031407  0  0.091519  0.135596  0  0.991868  0
H  H53  1  0.37609633  0.85641650  0.13086420  1  0.031371  0  0.091487  0.135585  0  0.991984  0
H  H54  1  0.69600080  0.15875704  0.78313297  1  0.067764  0  0.091263  0.145102  0  1.008416  0
H  H55  1  0.30398930  0.84123436  0.21686969  1  0.067765  0  0.091281  0.14509  0  1.008437  0
H  H56  1  0.86823080  0.10362851  0.72933384  1  0.083363  0  0.085788  0.136863  0  1.030905  0
H  H57  1  0.13175045  0.89636389  0.27066159  1  0.083521  0  0.085788  0.136878  0  1.030879  0
H  H58  1  0.90005932  0.96286844  0.68551625  1  0.067956  0  0.087255  0.13468  0  1.020582  0
H  H59  1  0.09993831  0.03713460  0.31447846  1  0.068355  0  0.087202  0.134628  0  1.020651  0
H  H60  1  0.99565736  0.03810296  0.76406008  1  0.036707  0  0.087572  0.12236  0  1.017277  0
H  H61  1  0.00433002  0.96190449  0.23593677  1  0.036579  0  0.087601  0.122421  0  1.017092  0
H  H62  1  0.01229961  0.77153539  0.82356662  1  0.033044  0  0.083869  0.118932  0  1.033623  0
H  H63  1  0.98769933  0.22845539  0.17641750  1  0.032973  0  0.083828  0.118894  0  1.033646  0
H  H64  1  0.95079971  0.78233862  0.72819220  1  0.065639  0  0.089247  0.137888  0  1.010799  0
H  H65  1  0.04919326  0.21765482  0.27179183  1  0.065789  0  0.089208  0.137824  0  1.010822  0
H  H66  1  0.89076001  0.66860305  0.78027519  1  0.072829  0  0.093814  0.13842  0  1.025337  0
H  H67  1  0.10923605  0.33138593  0.21971038  1  0.072669  0  0.09379  0.13843  0  1.025334  0
H  H68  1  0.11635360  0.25846251  0.73842601  1  0.074509  0  0.098636  0.080096  0  1.009284  0
H  H69  1  0.88367487  0.74159982  0.26163475  1  0.075152  0  0.098595  0.079868  0  1.009391  0
H  H70  1  0.98294806  0.16039939  0.62648319  1  0.104546  0  0.098488  0.107259  0  1.040424  0
H  H71  1  0.01705953  0.83970118  0.37357028  1  0.104255  0  0.098556  0.107108  0  1.040401  0
H  H72  1  0.30140375  0.05033883  0.52580231  1  0.114191  0  0.095797  0.105355  0  1.070017  0
H  H73  1  0.69858072  0.94969797  0.47424874  1  0.113924  0  0.095753  0.105047  0  1.070301  0
H  H74  1  0.42194726  0.15299187  0.64337131  1  0.102855  0  0.101733  0.08316  0  1.009067  0
H  H75  1  0.57805671  0.84703526  0.35667307  1  0.102783  0  0.101742  0.083165  0  1.009024  0
H  H76  1  0.11099034  0.99348500  0.45262316  1  0.09357  0  0.094166  0.09348  0  1.051108  0
H  H77  1  0.88901339  0.00660505  0.54742246  1  0.093409  0  0.094069  0.093301  0  1.051149  0
C  C78  1  0.79970389  0.44279343  0.72741592  1  0.52714  0  0.126291  0.266759  0  4.367928  0
C  C79  1  0.20030400  0.55720519  0.27257665  1  0.52579  0  0.12632  0.266874  0  4.367847  0
C  C80  1  0.59370976  0.12020511  0.52738403  1  0.562743  0  0.150843  0.267448  0  4.28444  0
C  C81  1  0.40621908  0.87978291  0.47261090  1  0.561994  0  0.150949  0.267606  0  4.2839  0
C  C82  1  0.39896218  0.45630378  0.61841526  1  0.463968  0  0.036521  0.082467  0  3.9478  0
C  C83  1  0.60104025  0.54368605  0.38157238  1  0.46447  0  0.036541  0.082527  0  3.94754  0
C  C84  1  0.29380255  0.41991300  0.57160277  1  -0.087595  0  -0.084224  -0.166816  0  3.924469  0
C  C85  1  0.70619967  0.58008302  0.42838647  1  -0.087244  0  -0.084254  -0.16695  0  3.924508  0
C  C86  1  0.26176944  0.48323938  0.50946542  1  0.054255  0  0.005185  0.140765  0  4.011265  0
C  C87  1  0.73823852  0.51676814  0.49052552  1  0.054555  0  0.005049  0.14054  0  4.011308  0
C  C88  1  0.34267546  0.57995761  0.49708008  1  -0.066403  0  -0.079028  -0.157056  0  3.905203  0
C  C89  1  0.65733660  0.42004627  0.50291652  1  -0.067166  0  -0.078985  -0.156839  0  3.904982  0
C  C90  1  0.44696678  0.60982701  0.54597723  1  0.514138  0  0.035351  0.089396  0  3.952592  0
C  C91  1  0.55304609  0.39016803  0.45401760  1  0.514138  0  0.0353  0.089354  0  3.952473  0
C  C92  1  0.15116405  0.45463330  0.45911466  1  -0.070435  0  -0.074648  -0.094889  0  3.927146  0
C  C93  1  0.84885016  0.54538229  0.54086916  1  -0.070953  0  -0.07475  -0.095143  0  3.927226  0
C  C94  1  0.06510125  0.36539420  0.46536665  1  0.017335  0  -0.083701  -0.112505  0  3.93367  0
C  C95  1  0.93489933  0.63461969  0.53461296  1  0.019127  0  -0.08375  -0.112507  0  3.934025  0
C  C96  1  0.95486170  0.33587948  0.41489086  1  -0.044961  0  0.008525  0.148041  0  4.012534  0
C  C97  1  0.04514662  0.66413977  0.58508608  1  -0.046331  0  0.008404  0.147739  0  4.012533  0
C  C98  1  0.87455306  0.23847645  0.42739084  1  0.023369  0  -0.084859  -0.171135  0  3.919424  0
C  C99  1  0.12546064  0.76154261  0.57259837  1  0.023585  0  -0.084706  -0.170753  0  3.919282  0
C  C100  1  0.77104205  0.20551282  0.37822854  1  0.407254  0  0.037952  0.094047  0  3.934823  0
C  C101  1  0.22896701  0.79449645  0.62176374  1  0.406864  0  0.037894  0.093934  0  3.934811  0
C  C102  1  0.81561096  0.36144056  0.30706927  1  0.44623  0  0.03867  0.084187  0  3.954884  0
C  C103  1  0.18439484  0.63855556  0.69291270  1  0.448688  0  0.038564  0.084033  0  3.954693  0
C  C104  1  0.92171604  0.39872958  0.35265287  1  0.0216  0  -0.078428  -0.155748  0  3.905783  0
C  C105  1  0.07828755  0.60127112  0.64731959  1  0.02149  0  -0.078318  -0.155645  0  3.905872  0
C  C106  1  0.26169345  0.79009560  0.90082627  1  0.484393  0  0.045406  0.084011  0  3.963794  0
C  C107  1  0.73831758  0.20987461  0.09916949  1  0.48425  0  0.045554  0.084086  0  3.964043  0
C  C108  1  0.17589482  0.81864789  0.95115757  1  -0.01942  0  -0.076693  -0.171343  0  3.932582  0
C  C109  1  0.82411285  0.18131611  0.04883871  1  -0.021195  0  -0.076592  -0.171122  0  3.932437  0
C  C110  1  0.12258330  0.92478803  0.94788667  1  -0.006565  0  0.010153  0.144798  0  4.023875  0
C  C111  1  0.87742169  0.07517601  0.05210719  1  -0.005879  0  0.010102  0.144855  0  4.024044  0
C  C112  1  0.16179422  0.99782333  0.89238677  1  -0.03077  0  -0.076205  -0.166402  0  3.921437  0
C  C113  1  0.83821056  0.00214681  0.10761442  1  -0.031465  0  -0.076078  -0.166218  0  3.921231  0
C  C114  1  0.24747367  0.96258835  0.84397088  1  0.468477  0  0.044468  0.088158  0  3.929532  0
C  C115  1  0.75252951  0.03738362  0.15602636  1  0.468758  0  0.04443  0.088005  0  3.929359  0
C  C116  1  0.03277247  0.95337030  0.00061776  1  0.004172  0  -0.073202  -0.105731  0  3.942277  0
C  C117  1  0.96722697  0.04658395  0.99937913  1  -0.09336  0  -0.073403  -0.106191  0  3.942581  0
C  C118  1  0.76289963  0.82030034  0.87605701  1  -0.081983  0  -0.058861  0.025912  0  3.944999  0
C  C119  1  0.23710212  0.17968324  0.12393415  1  -0.082023  0  -0.058857  0.02588  0  3.945213  0
C  C120  1  0.69793730  0.92197588  0.88982350  1  -0.171601  0  -0.068958  0.008258  0  3.947933  0
C  C121  1  0.30206030  0.07800233  0.11017108  1  -0.171502  0  -0.068957  0.008267  0  3.948007  0
C  C122  1  0.74072755  0.00891862  0.84145562  1  -0.099387  0  -0.058386  0.026376  0  3.939024  0
C  C123  1  0.25926814  0.99106666  0.15854111  1  -0.099886  0  -0.058385  0.026436  0  3.938858  0
C  C124  1  0.82866431  0.95890161  0.79625340  1  -0.119447  0  -0.0589  0.026228  0  3.935039  0
C  C125  1  0.17133325  0.04109259  0.20373950  1  -0.119823  0  -0.058937  0.026234  0  3.93498  0
C  C126  1  0.84207172  0.84240877  0.81733848  1  -0.163481  0  -0.057165  0.028491  0  3.934388  0
C  C127  1  0.15792474  0.15758369  0.18265194  1  -0.162591  0  -0.057122  0.028548  0  3.934357  0
C  C128  1  0.75787048  0.71469587  0.91971942  1  -0.071402  0  -0.237445  -0.368823  0  3.957459  0
C  C129  1  0.24212979  0.28528245  0.08026783  1  -0.071728  0  -0.237556  -0.36904  0  3.95724  0
C  C130  1  0.60362578  0.93526368  0.94535051  1  -0.032484  0  -0.24328  -0.390016  0  3.976678  0
C  C131  1  0.39637251  0.06471277  0.05464397  1  -0.03242  0  -0.243183  -0.38992  0  3.976612  0
C  C132  1  0.70759897  0.13243160  0.84171486  1  -0.035091  0  -0.242774  -0.380131  0  3.965587  0
C  C133  1  0.29239403  0.86755362  0.15828575  1  -0.035457  0  -0.242762  -0.380111  0  3.965539  0
C  C134  1  0.90094022  0.01916291  0.74067882  1  -0.08229  0  -0.245967  -0.390373  0  3.95704  0
C  C135  1  0.09905245  0.98083574  0.25931304  1  -0.082521  0  -0.245941  -0.390452  0  3.956918  0
C  C136  1  0.92806513  0.76182836  0.78567698  1  -0.038425  0  -0.245495  -0.384837  0  3.947087  0
C  C137  1  0.07193033  0.23816328  0.21430875  1  -0.038534  0  -0.245439  -0.384745  0  3.947187  0
C  C138  1  0.15486820  0.20865498  0.69109032  1  0.456258  0  0.028385  0.074177  0  4.030817  0
C  C139  1  0.84514832  0.79141281  0.30896112  1  0.45765  0  0.028561  0.07433  0  4.030207  0
C  C140  1  0.07943263  0.15285082  0.62794132  1  -0.085809  0  -0.091734  -0.187919  0  3.942309  0
C  C141  1  0.92057759  0.84723294  0.37210986  1  -0.086326  0  -0.091933  -0.187924  0  3.941665  0
C  C142  1  0.12997861  0.08905611  0.56721894  1  -0.022542  0  -0.000596  0.135981  0  4.015288  0
C  C143  1  0.87002080  0.91101085  0.43282991  1  -0.021999  0  -0.000349  0.136484  0  4.014689  0
C  C144  1  0.25643723  0.09342281  0.57251412  1  -0.067267  0  -0.088131  -0.172927  0  3.901116  0
C  C145  1  0.74355994  0.90662372  0.42753711  1  -0.068458  0  -0.088086  -0.172594  0  3.901264  0
C  C146  1  0.32392982  0.15132681  0.63841150  1  0.456919  0  0.034187  0.096654  0  3.983726  0
C  C147  1  0.67607821  0.84871268  0.36163628  1  0.457198  0  0.034162  0.096401  0  3.983864  0
C  C148  1  0.05935292  0.01903617  0.50140211  1  -0.003217  0  -0.083911  -0.120495  0  3.949183  0
C  C149  1  0.94064611  0.98106017  0.49863803  1  -0.101096  0  -0.083964  -0.120667  0  3.948898  0
S  S150  1  0.71238979  0.78003422  0.64630566  1  -0.619999  0  -0.385202  -0.498552  0  2.820191  0
S  S151  1  0.28759232  0.21996631  0.35367954  1  -0.619849  0  -0.385291  -0.498762  0  2.820305  0
S  S152  1  0.52860314  0.67681408  0.79535363  1  -0.638174  0  -0.408481  -0.520146  0  2.758304  0
S  S153  1  0.47140000  0.32317391  0.20463907  1  -0.638841  0  -0.408549  -0.520232  0  2.758327  0
S  S154  1  0.50126770  0.96737400  0.73275208  1  -0.624999  0  -0.39067  -0.494792  0  2.887572  0
S  S155  1  0.49872122  0.03261482  0.26724517  1  -0.625192  0  -0.390737  -0.495006  0  2.887505  0
S  S156  1  0.90883888  0.36584755  0.75017443  1  0.005812  0  -0.231021  -0.424409  0  2.256807  0
S  S157  1  0.09116554  0.63414405  0.24981344  1  0.005522  0  -0.230945  -0.424303  0  2.256763  0
S  S158  1  0.68438776  0.11555418  0.60385139  1  0.064074  0  -0.147707  -0.301752  0  2.499275  0
S  S159  1  0.31554861  0.88444530  0.39614762  1  0.063925  0  -0.147735  -0.301851  0  2.499681  0
N  N160  1  0.72181240  0.50076299  0.70979275  1  -1.328711  0  -0.449309  -0.484511  0  3.387909  0
N  N161  1  0.27820337  0.49922587  0.29020004  1  -1.327094  0  -0.449444  -0.484763  0  3.387868  0
N  N162  1  0.52773813  0.12055611  0.47115236  1  -1.328687  0  -0.44212  -0.444327  0  3.477698  0
N  N163  1  0.47220099  0.87941950  0.52884213  1  -1.327901  0  -0.442175  -0.444375  0  3.476566  0
N  N164  1  0.47481225  0.55116831  0.60682277  1  -1.238942  0  -0.360563  -0.225477  0  3.655827  0
N  N165  1  0.52519546  0.44882060  0.39316735  1  -1.239383  0  -0.36049  -0.22551  0  3.655587  0
N  N166  1  0.74102079  0.26518866  0.31809957  1  -1.241338  0  -0.363708  -0.208463  0  3.638714  0
N  N167  1  0.25899157  0.73481003  0.68188863  1  -1.241674  0  -0.363585  -0.208249  0  3.63835  0
N  N168  1  0.29744799  0.85991187  0.84737201  1  -1.226106  0  -0.346784  -0.205506  0  3.5846  0
N  N169  1  0.70255497  0.14006636  0.15262168  1  -1.226582  0  -0.3468  -0.205649  0  3.58468  0
N  N170  1  0.27525742  0.20698643  0.69839344  1  -1.192488  0  -0.34444  -0.30537  0  3.314749  0
N  N171  1  0.72476402  0.79306100  0.30165614  1  -1.192125  0  -0.344565  -0.305224  0  3.314458  0
