# generated using pymatgen
data_Zn2H14C21(NO3)3
_symmetry_space_group_name_H-M   'P 1'
_cell_length_a   7.43558665
_cell_length_b   14.34599938
_cell_length_c   21.60119027
_cell_angle_alpha   101.76158560
_cell_angle_beta   89.99209487
_cell_angle_gamma   105.04804348
_symmetry_Int_Tables_number   1
_chemical_formula_structural   Zn2H14C21(NO3)3
_chemical_formula_sum   'Zn8 H56 C84 N12 O36'
_cell_volume   2175.08593864
_cell_formula_units_Z   4
loop_
 _symmetry_equiv_pos_site_id
 _symmetry_equiv_pos_as_xyz
  1  'x, y, z'
loop_
 _atom_site_type_symbol
 _atom_site_label
 _atom_site_symmetry_multiplicity
 _atom_site_fract_x
 _atom_site_fract_y
 _atom_site_fract_z
 _atom_site_occupancy
 _atom_site_pbe_bader_charge
 _atom_site_pbe_bader_spin_density
 _atom_site_pbe_cm5_charge
 _atom_site_pbe_ddec_charge
 _atom_site_pbe_ddec_spin_density
 _atom_site_pbe_ddec_sum_bond_order
 _atom_site_pbe_magmom
Zn  Zn0  1  0.89128069  0.67301900  0.80094278  1  1.342088  0  0.710246  0.919156  0  2.285089  0
Zn  Zn1  1  0.21808192  0.32709144  0.69905710  1  1.337049  0  0.710268  0.918814  0  2.285872  0
Zn  Zn2  1  0.10871285  0.32697979  0.19905752  1  1.342025  0  0.710246  0.919157  0  2.285086  0
Zn  Zn3  1  0.78192067  0.67290662  0.30094310  1  1.337099  0  0.710281  0.918806  0  2.285824  0
Zn  Zn4  1  0.47940599  0.70326421  0.87216981  1  1.316686  0  0.68626  0.93283  0  2.286048  0
Zn  Zn5  1  0.77614502  0.29684522  0.62769588  1  1.311428  0  0.686279  0.932524  0  2.288911  0
Zn  Zn6  1  0.52060898  0.29673975  0.12783074  1  1.31677  0  0.686262  0.932879  0  2.286041  0
Zn  Zn7  1  0.22385122  0.70315358  0.37230396  1  1.311578  0  0.686314  0.932569  0  2.288916  0
H  H8  1  0.02305187  0.83458582  0.75845795  1  0.636989  0  0.302303  0.373741  0  0.953312  0
H  H9  1  0.18809137  0.16544458  0.74152085  1  0.638349  0  0.302168  0.373323  0  0.953966  0
H  H10  1  0.97694035  0.16541299  0.24153911  1  0.637037  0  0.302314  0.373738  0  0.953338  0
H  H11  1  0.81191915  0.83455050  0.25848078  1  0.638405  0  0.302178  0.373318  0  0.953972  0
H  H12  1  0.13706300  0.84935068  0.82672539  1  0.6526  0  0.294728  0.399677  0  0.930878  0
H  H13  1  0.28735997  0.15074420  0.67326556  1  0.653003  0  0.294679  0.398725  0  0.932283  0
H  H14  1  0.86293914  0.15065184  0.17327033  1  0.652574  0  0.294701  0.399631  0  0.930986  0
H  H15  1  0.71265302  0.84925313  0.32673361  1  0.652792  0  0.294687  0.398733  0  0.932304  0
H  H16  1  0.66861017  0.67456054  0.50336750  1  0.131453  0  0.107539  0.112247  0  1.045986  0
H  H17  1  0.99335904  0.32536552  0.99651266  1  0.120907  0  0.107225  0.111529  0  1.046535  0
H  H18  1  0.33138201  0.32543013  0.49663122  1  0.131821  0  0.10753  0.112113  0  1.046115  0
H  H19  1  0.00664235  0.67463551  0.00348517  1  0.120875  0  0.107192  0.111468  0  1.046542  0
H  H20  1  0.52264799  0.57293267  0.40438886  1  0.126661  0  0.114521  0.130109  0  1.015687  0
H  H21  1  0.94889153  0.42682918  0.09550797  1  0.125221  0  0.114301  0.129953  0  1.015691  0
H  H22  1  0.47734749  0.42705653  0.59560826  1  0.126578  0  0.114502  0.13011  0  1.015737  0
H  H23  1  0.05111219  0.57317112  0.90448884  1  0.125101  0  0.114329  0.129959  0  1.015705  0
H  H24  1  0.62051444  0.51892827  0.68133075  1  0.212379  0  0.150106  0.136169  0  1.001046  0
H  H25  1  0.10144024  0.48108400  0.81858657  1  0.208524  0  0.149966  0.135734  0  1.000833  0
H  H26  1  0.37948594  0.48106536  0.31866791  1  0.212481  0  0.150052  0.136145  0  1.001173  0
H  H27  1  0.89855759  0.51891261  0.18141018  1  0.208557  0  0.14996  0.135715  0  1.000807  0
H  H28  1  0.79784534  0.76118142  0.59021586  1  0.187278  0  0.139119  0.106969  0  1.034635  0
H  H29  1  0.03692897  0.23900829  0.90982192  1  0.192024  0  0.139281  0.106859  0  1.035453  0
H  H30  1  0.20214122  0.23881147  0.40978316  1  0.187639  0  0.139103  0.106876  0  1.034552  0
H  H31  1  0.96306838  0.76099273  0.09017684  1  0.192201  0  0.13925  0.106793  0  1.035449  0
H  H32  1  0.43281760  0.94735876  0.03889213  1  0.057639  0  0.103526  0.105271  0  1.011131  0
H  H33  1  0.48528238  0.05297631  0.46130136  1  0.084861  0  0.103894  0.105592  0  1.011617  0
H  H34  1  0.56718553  0.05265112  0.96110785  1  0.05776  0  0.103492  0.105193  0  1.011215  0
H  H35  1  0.51470065  0.94702030  0.53869540  1  0.084658  0  0.103835  0.105559  0  1.011552  0
H  H36  1  0.28270924  0.02666201  0.12929051  1  0.101438  0  0.108471  0.11423  0  0.978908  0
H  H37  1  0.25603376  0.97352480  0.37084109  1  0.098995  0  0.108856  0.114828  0  0.977497  0
H  H38  1  0.71729238  0.97333680  0.87070748  1  0.101454  0  0.108453  0.114201  0  0.978879  0
H  H39  1  0.74394021  0.02647251  0.62915993  1  0.098963  0  0.108809  0.11479  0  0.977449  0
H  H40  1  0.93670710  0.99630228  0.12704662  1  0.083397  0  0.100008  0.104892  0  1.015665  0
H  H41  1  0.94028578  0.00365946  0.37299500  1  0.088638  0  0.100181  0.105723  0  1.015579  0
H  H42  1  0.06330164  0.00370538  0.87295398  1  0.083253  0  0.099989  0.104912  0  1.015639  0
H  H43  1  0.05969310  0.99634228  0.62700617  1  0.088437  0  0.100078  0.105564  0  1.015578  0
H  H44  1  0.74407565  0.88699992  0.03166579  1  0.054992  0  0.104372  0.10586  0  1.015643  0
H  H45  1  0.85660724  0.11278260  0.46835579  1  0.075682  0  0.104089  0.10571  0  1.015282  0
H  H46  1  0.25593594  0.11301074  0.96832966  1  0.054923  0  0.104336  0.105816  0  1.015761  0
H  H47  1  0.14337850  0.88722208  0.53164810  1  0.075683  0  0.104113  0.105707  0  1.015325  0
H  H48  1  0.03325627  0.54058781  0.54669049  1  0.080401  0  0.102256  0.10508  0  1.021495  0
H  H49  1  0.49216549  0.45934716  0.95315186  1  0.08031  0  0.102422  0.105456  0  1.020808  0
H  H50  1  0.96674730  0.45940951  0.45330914  1  0.080763  0  0.102267  0.105076  0  1.021532  0
H  H51  1  0.50782819  0.54065458  0.04684931  1  0.08032  0  0.10238  0.10543  0  1.020796  0
H  H52  1  0.18027038  0.70264827  0.51768888  1  0.081336  0  0.103908  0.111396  0  1.013311  0
H  H53  1  0.47835149  0.29747507  0.98216384  1  0.085566  0  0.10381  0.111494  0  1.013298  0
H  H54  1  0.81973393  0.29735053  0.48231049  1  0.081329  0  0.103902  0.111365  0  1.013369  0
H  H55  1  0.52164830  0.70252814  0.01783892  1  0.085648  0  0.103816  0.111523  0  1.013238  0
H  H56  1  0.36990855  0.84134829  0.59987254  1  0.080529  0  0.100345  0.095786  0  1.027103  0
H  H57  1  0.52987321  0.15899682  0.90001204  1  0.08099  0  0.100737  0.097013  0  1.027492  0
H  H58  1  0.63009038  0.15865050  0.40012823  1  0.080501  0  0.100345  0.095776  0  1.027047  0
H  H59  1  0.47013562  0.84100564  0.09999247  1  0.081061  0  0.100724  0.096995  0  1.027444  0
H  H60  1  0.41181744  0.81802007  0.70941003  1  0.077837  0  0.108498  0.115922  0  0.981767  0
H  H61  1  0.59455828  0.18234345  0.79040093  1  0.082657  0  0.108875  0.117033  0  0.980283  0
H  H62  1  0.58817476  0.18197872  0.29059073  1  0.077826  0  0.108504  0.115903  0  0.981785  0
H  H63  1  0.40545324  0.81765901  0.20960265  1  0.082607  0  0.108861  0.117046  0  0.980341  0
C  C64  1  0.58474225  0.55871853  0.55704937  1  0.195886  0  0.09777  0.161647  0  4.007371  0
C  C65  1  0.02612598  0.44135749  0.94294516  1  0.272556  0  0.098279  0.162219  0  4.008854  0
C  C66  1  0.41525335  0.44127362  0.44295001  1  0.196235  0  0.097841  0.161632  0  4.007282  0
C  C67  1  0.97387700  0.55864134  0.05705097  1  0.273074  0  0.098212  0.16231  0  4.009016  0
C  C68  1  0.59658344  0.59807036  0.50267859  1  -0.008787  0  -0.082872  -0.135106  0  3.955956  0
C  C69  1  0.99815858  0.40189508  0.99726509  1  -0.011461  0  -0.082857  -0.134151  0  3.956263  0
C  C70  1  0.40340299  0.40191957  0.49732048  1  -0.009041  0  -0.082759  -0.134786  0  3.955869  0
C  C71  1  0.00184220  0.59810742  0.00273433  1  -0.011488  0  -0.082798  -0.134059  0  3.956134  0
C  C72  1  0.51187650  0.53951019  0.44557566  1  0.08401  0  -0.079052  -0.127791  0  3.939001  0
C  C73  1  0.97190925  0.46036670  0.05437844  1  0.025352  0  -0.078796  -0.127497  0  3.93943  0
C  C74  1  0.48811261  0.46047975  0.55442248  1  0.083631  0  -0.079163  -0.127957  0  3.938961  0
C  C75  1  0.02809251  0.53963506  0.94562042  1  0.025585  0  -0.078855  -0.127508  0  3.939294  0
C  C76  1  0.68586830  0.59103745  0.67155183  1  1.000475  0  0.178285  0.129064  0  3.82564  0
C  C77  1  0.09471387  0.40900972  0.82839670  1  1.002773  0  0.178387  0.129888  0  3.826689  0
C  C78  1  0.31413551  0.40895766  0.32844657  1  1.000639  0  0.178237  0.128978  0  3.82574  0
C  C79  1  0.90528372  0.59098909  0.17160129  1  1.002729  0  0.178404  0.13002  0  3.826571  0
C  C80  1  0.77767066  0.71607518  0.62551538  1  0.960791  0  0.16335  0.097403  0  3.906446  0
C  C81  1  0.06170615  0.28406139  0.87449456  1  0.954554  0  0.163697  0.098274  0  3.907979  0
C  C82  1  0.22232533  0.28391773  0.37448040  1  0.960804  0  0.163437  0.097645  0  3.906136  0
C  C83  1  0.93829143  0.71593740  0.12550620  1  0.954422  0  0.163706  0.098419  0  3.90799  0
C  C84  1  0.97860772  0.85222205  0.98382929  1  -0.036994  0  -0.022587  -0.088155  0  3.981245  0
C  C85  1  0.12589454  0.14776223  0.51625001  1  0.009131  0  -0.02226  -0.086789  0  3.982859  0
C  C86  1  0.02140262  0.14778341  0.01616869  1  -0.037111  0  -0.022593  -0.087993  0  3.981181  0
C  C87  1  0.87409742  0.85223878  0.48375152  1  0.009373  0  -0.022286  -0.086741  0  3.982711  0
C  C88  1  0.17376699  0.86836479  0.98547750  1  -0.03982  0  -0.004602  -0.028034  0  3.930412  0
C  C89  1  0.30499487  0.13177622  0.51464631  1  -0.068976  0  -0.004713  -0.029155  0  3.93289  0
C  C90  1  0.82624163  0.13163993  0.01452131  1  -0.039868  0  -0.004661  -0.028118  0  3.930582  0
C  C91  1  0.69499918  0.86822627  0.48535311  1  -0.068635  0  -0.00468  -0.029097  0  3.932656  0
C  C92  1  0.28108721  0.93153695  0.03821438  1  -0.037345  0  -0.08863  -0.12171  0  3.979162  0
C  C93  1  0.34929628  0.06865007  0.46193635  1  -0.099593  0  -0.089079  -0.122044  0  3.980517  0
C  C94  1  0.71892399  0.06847293  0.96178560  1  -0.037308  0  -0.088536  -0.121623  0  3.979167  0
C  C95  1  0.65068762  0.93135096  0.53806194  1  -0.099326  0  -0.089091  -0.122138  0  3.98049  0
C  C96  1  0.19629951  0.97640753  0.08922633  1  0.004544  0  -0.078065  -0.047251  0  3.971234  0
C  C97  1  0.21976314  0.02371200  0.41090213  1  -0.007855  0  -0.077956  -0.046119  0  3.97086  0
C  C98  1  0.80370911  0.02359720  0.91077108  1  0.004673  0  -0.078134  -0.0472  0  3.971149  0
C  C99  1  0.78021709  0.97628975  0.58909719  1  -0.007914  0  -0.077883  -0.046017  0  3.97068  0
C  C100  1  0.00238254  0.95966042  0.08778415  1  -0.105321  0  -0.09258  -0.089767  0  3.998577  0
C  C101  1  0.04252298  0.04032444  0.41229105  1  0.006246  0  -0.093167  -0.092667  0  3.99982  0
C  C102  1  0.99762145  0.04034579  0.91221301  1  -0.105322  0  -0.092477  -0.089813  0  3.998581  0
C  C103  1  0.95745837  0.95967952  0.58770904  1  0.006138  0  -0.093003  -0.092414  0  3.999573  0
C  C104  1  0.89483113  0.89896667  0.03484452  1  0.028077  0  -0.082387  -0.091673  0  3.985731  0
C  C105  1  0.99546689  0.10093904  0.46521635  1  -0.066662  0  -0.082301  -0.091212  0  3.984264  0
C  C106  1  0.10517531  0.10104175  0.96515295  1  0.02826  0  -0.082365  -0.091651  0  3.985794  0
C  C107  1  0.00452252  0.89906492  0.53478466  1  -0.066738  0  -0.082363  -0.091294  0  3.984222  0
C  C108  1  0.86089401  0.78665251  0.92791734  1  1.559296  0  0.219636  0.595834  0  4.17291  0
C  C109  1  0.07350912  0.21326811  0.57211649  1  1.554281  0  0.220503  0.596561  0  4.175377  0
C  C110  1  0.13911572  0.21335442  0.07208177  1  1.558531  0  0.219589  0.595741  0  4.173256  0
C  C111  1  0.92648674  0.78672993  0.42788510  1  1.554515  0  0.220477  0.596374  0  4.175148  0
C  C112  1  0.27147809  0.82274391  0.93105374  1  1.601253  0  0.213265  0.599561  0  4.203565  0
C  C113  1  0.44846814  0.17752266  0.56902102  1  1.599396  0  0.212923  0.598809  0  4.202726  0
C  C114  1  0.72853392  0.17725415  0.06894553  1  1.601271  0  0.213225  0.599481  0  4.203802  0
C  C115  1  0.55152945  0.82247616  0.43097650  1  1.598597  0  0.212948  0.598849  0  4.202662  0
C  C116  1  0.24634741  0.66714862  0.68968172  1  -0.042941  0  -0.014641  -0.056518  0  3.952379  0
C  C117  1  0.57913101  0.33303551  0.81014626  1  -0.010521  0  -0.01397  -0.057373  0  3.953221  0
C  C118  1  0.75365324  0.33285091  0.31031822  1  -0.042965  0  -0.01466  -0.056603  0  3.952408  0
C  C119  1  0.42088210  0.66696474  0.18985702  1  -0.010511  0  -0.013988  -0.057286  0  3.953081  0
C  C120  1  0.14134323  0.58820067  0.64304319  1  -0.014942  0  -0.017334  -0.064636  0  3.953699  0
C  C121  1  0.55267054  0.41187148  0.85677106  1  -0.037876  0  -0.016556  -0.061168  0  3.950381  0
C  C122  1  0.85865764  0.41179665  0.35695691  1  -0.014992  0  -0.017252  -0.064466  0  3.953589  0
C  C123  1  0.44733658  0.58813024  0.14323289  1  -0.038022  0  -0.016558  -0.061061  0  3.950199  0
C  C124  1  0.11517260  0.60274827  0.58186048  1  -0.081026  0  -0.085236  -0.093891  0  3.971841  0
C  C125  1  0.51221374  0.39729054  0.91796741  1  -0.080068  0  -0.086346  -0.096406  0  3.973708  0
C  C126  1  0.88483074  0.39725127  0.41813946  1  -0.081343  0  -0.085327  -0.093958  0  3.971934  0
C  C127  1  0.48778726  0.60270971  0.08203633  1  -0.079801  0  -0.086396  -0.096535  0  3.973667  0
C  C128  1  0.19616512  0.69320747  0.56596208  1  0.040662  0  -0.086784  -0.072063  0  3.983021  0
C  C129  1  0.50347181  0.30693763  0.93388295  1  -0.036101  0  -0.087139  -0.072533  0  3.98459  0
C  C130  1  0.80383822  0.30679206  0.43403786  1  0.040652  0  -0.086801  -0.072102  0  3.983114  0
C  C131  1  0.49652516  0.69306262  0.06611986  1  -0.036195  0  -0.08712  -0.072563  0  3.984575  0
C  C132  1  0.30344639  0.77075278  0.61191538  1  -0.11239  0  -0.087796  -0.072784  0  3.999621  0
C  C133  1  0.53353479  0.22949850  0.88793458  1  0.037567  0  -0.08712  -0.072587  0  3.999626  0
C  C134  1  0.69655426  0.22924675  0.38808503  1  -0.112363  0  -0.087789  -0.072748  0  3.999489  0
C  C135  1  0.46646180  0.77050100  0.11206999  1  0.037491  0  -0.087042  -0.072391  0  3.999459  0
C  C136  1  0.32794617  0.75783545  0.67330509  1  0.015788  0  -0.085846  -0.102354  0  3.977935  0
C  C137  1  0.57063723  0.24243156  0.82652381  1  -0.05231  0  -0.087338  -0.10514  0  3.977945  0
C  C138  1  0.67205216  0.24216482  0.32669496  1  0.0158  0  -0.085843  -0.102312  0  3.977907  0
C  C139  1  0.42936683  0.75756943  0.17347911  1  -0.052256  0  -0.087313  -0.10526  0  3.977984  0
C  C140  1  0.27168296  0.66093999  0.75747633  1  1.57039  0  0.223971  0.605643  0  4.158511  0
C  C141  1  0.61070536  0.33928406  0.74237432  1  1.562466  0  0.224326  0.607398  0  4.156852  0
C  C142  1  0.72831843  0.33906103  0.24252381  1  1.570364  0  0.224009  0.60576  0  4.158588  0
C  C143  1  0.38930115  0.66071913  0.25763029  1  1.562187  0  0.224307  0.607346  0  4.156741  0
C  C144  1  0.07225941  0.48554668  0.65435759  1  1.615983  0  0.222064  0.609003  0  4.169167  0
C  C145  1  0.58599600  0.51451894  0.84549827  1  1.573434  0  0.221756  0.608281  0  4.169976  0
C  C146  1  0.92774489  0.51445212  0.34564271  1  1.615977  0  0.222051  0.608902  0  4.16934  0
C  C147  1  0.41399706  0.48548426  0.15450680  1  1.573384  0  0.221776  0.608293  0  4.170167  0
N  N148  1  0.79085625  0.66662378  0.71256315  1  -0.792173  0  -0.242563  -0.200551  0  3.564924  0
N  N149  1  0.12399287  0.33341088  0.78739155  1  -0.787667  0  -0.243144  -0.200579  0  3.565672  0
N  N150  1  0.20913741  0.33336986  0.28743505  1  -0.792203  0  -0.242595  -0.20061  0  3.564783  0
N  N151  1  0.87600263  0.66658644  0.21260809  1  -0.787712  0  -0.243139  -0.200563  0  3.565546  0
N  N152  1  0.84964403  0.74594548  0.68393928  1  -0.712671  0  -0.218311  -0.197938  0  3.247458  0
N  N153  1  0.10357980  0.25413985  0.81605021  1  -0.710365  0  -0.218534  -0.197988  0  3.24688  0
N  N154  1  0.15034694  0.25404815  0.31605984  1  -0.713016  0  -0.218317  -0.197989  0  3.247019  0
N  N155  1  0.89641643  0.74585894  0.18395055  1  -0.710318  0  -0.218576  -0.198038  0  3.246941  0
N  N156  1  0.67399750  0.61899619  0.61525867  1  -1.253254  0  -0.206362  -0.011236  0  3.749861  0
N  N157  1  0.05509461  0.38111041  0.88472384  1  -1.259504  0  -0.206195  -0.013003  0  3.752505  0
N  N158  1  0.32600679  0.38099449  0.38473958  1  -1.253486  0  -0.2063  -0.011141  0  3.749543  0
N  N159  1  0.94490629  0.61888693  0.11527302  1  -1.259933  0  -0.206206  -0.013347  0  3.752736  0
O  O160  1  0.92555678  0.71925314  0.89512608  1  -1.178039  0  -0.30897  -0.542842  0  2.397906  0
O  O161  1  0.20545008  0.28081636  0.60490048  1  -1.18353  0  -0.309781  -0.543644  0  2.39967  0
O  O162  1  0.07445452  0.28075158  0.10487364  1  -1.177627  0  -0.308927  -0.542807  0  2.398132  0
O  O163  1  0.79454676  0.71918095  0.39510054  1  -1.183567  0  -0.30972  -0.543553  0  2.399649  0
O  O164  1  0.70403204  0.80178027  0.91690652  1  -1.17149  0  -0.307318  -0.54503  0  2.394259  0
O  O165  1  0.90141654  0.19798084  0.58307345  1  -1.164786  0  -0.307739  -0.545864  0  2.395956  0
O  O166  1  0.29598172  0.19822667  0.08309166  1  -1.171181  0  -0.307345  -0.545022  0  2.394305  0
O  O167  1  0.09858126  0.80201570  0.41693209  1  -1.165081  0  -0.307779  -0.545783  0  2.395716  0
O  O168  1  0.32230424  0.74680373  0.93933943  1  -1.147932  0  -0.317013  -0.544513  0  2.334768  0
O  O169  1  0.57515634  0.25350398  0.56066132  1  -1.148161  0  -0.316443  -0.543525  0  2.334297  0
O  O170  1  0.67770656  0.25319727  0.06066210  1  -1.147977  0  -0.316989  -0.544522  0  2.334792  0
O  O171  1  0.42484125  0.74649483  0.43933713  1  -1.147446  0  -0.31647  -0.54355  0  2.334237  0
O  O172  1  0.30668486  0.86208163  0.88381532  1  -1.187213  0  -0.32482  -0.569385  0  2.136335  0
O  O173  1  0.44462181  0.13824224  0.61627125  1  -1.184523  0  -0.324862  -0.568763  0  2.135816  0
O  O174  1  0.69333194  0.13791793  0.11618231  1  -1.187253  0  -0.32478  -0.569307  0  2.136551  0
O  O175  1  0.55538079  0.86175584  0.38372618  1  -1.184618  0  -0.324878  -0.568825  0  2.135858  0
O  O176  1  0.13294254  0.62967062  0.78949080  1  -1.201465  0  -0.317127  -0.565811  0  2.348176  0
O  O177  1  0.50315504  0.37043355  0.71035009  1  -1.180116  0  -0.317826  -0.567397  0  2.348538  0
O  O178  1  0.86705249  0.37033113  0.21050945  1  -1.201404  0  -0.317103  -0.565823  0  2.348339  0
O  O179  1  0.49684570  0.62956888  0.28965812  1  -1.180084  0  -0.317818  -0.567439  0  2.348491  0
O  O180  1  0.43924285  0.69331466  0.78088152  1  -1.148909  0  -0.3051  -0.536595  0  2.365467  0
O  O181  1  0.74606125  0.30709656  0.71899287  1  -1.151137  0  -0.304532  -0.536143  0  2.364888  0
O  O182  1  0.56075474  0.30668414  0.21911878  1  -1.148934  0  -0.305118  -0.536676  0  2.365498  0
O  O183  1  0.25394124  0.69290666  0.28100851  1  -1.15109  0  -0.304513  -0.536122  0  2.364991  0
O  O184  1  0.17062948  0.45992734  0.69245638  1  -1.189622  0  -0.311958  -0.553459  0  2.347579  0
O  O185  1  0.71027588  0.54034065  0.80752075  1  -1.18225  0  -0.311482  -0.553302  0  2.348515  0
O  O186  1  0.82937924  0.54007221  0.30754171  1  -1.189571  0  -0.311948  -0.553437  0  2.347576  0
O  O187  1  0.28971023  0.45966479  0.19248047  1  -1.182359  0  -0.311435  -0.553301  0  2.348837  0
O  O188  1  0.92313847  0.43199528  0.62248831  1  -1.177339  0  -0.317391  -0.556702  0  2.339746  0
O  O189  1  0.49009341  0.56791250  0.87729434  1  -1.174752  0  -0.317511  -0.557199  0  2.340911  0
O  O190  1  0.07686314  0.56800351  0.37751292  1  -1.177368  0  -0.317379  -0.556678  0  2.339953  0
O  O191  1  0.50990220  0.43208772  0.12271171  1  -1.174525  0  -0.317568  -0.557253  0  2.340788  0
O  O192  1  0.01345066  0.82858935  0.80284257  1  -1.260872  0  -0.569179  -0.751213  0  2.130528  0
O  O193  1  0.18444492  0.17143190  0.69713806  1  -1.264219  0  -0.569223  -0.749965  0  2.131406  0
O  O194  1  0.98654902  0.17141094  0.19715515  1  -1.260879  0  -0.569182  -0.751192  0  2.130542  0
O  O195  1  0.81556563  0.82857133  0.30286332  1  -1.264066  0  -0.569258  -0.74995  0  2.131324  0
