# generated using pymatgen
data_CdH9C12(NO)4
_symmetry_space_group_name_H-M   'P 1'
_cell_length_a   7.50557547
_cell_length_b   10.70866597
_cell_length_c   17.53932879
_cell_angle_alpha   90.00011962
_cell_angle_beta   95.24538652
_cell_angle_gamma   89.99980431
_symmetry_Int_Tables_number   1
_chemical_formula_structural   CdH9C12(NO)4
_chemical_formula_sum   'Cd4 H36 C48 N16 O16'
_cell_volume   1403.81481273
_cell_formula_units_Z   4
loop_
 _symmetry_equiv_pos_site_id
 _symmetry_equiv_pos_as_xyz
  1  'x, y, z'
loop_
 _atom_site_type_symbol
 _atom_site_label
 _atom_site_symmetry_multiplicity
 _atom_site_fract_x
 _atom_site_fract_y
 _atom_site_fract_z
 _atom_site_occupancy
 _atom_site_hle17_bader_spin_density
 _atom_site_hle17_ddec_charge
 _atom_site_hle17_ddec_spin_density
 _atom_site_hle17_ddec_sum_bond_order
 _atom_site_hle17_magmom
 _atom_site_hse06_10hf_bader_spin_density
 _atom_site_hse06_10hf_ddec_charge
 _atom_site_hse06_10hf_ddec_spin_density
 _atom_site_hse06_10hf_ddec_sum_bond_order
 _atom_site_hse06_10hf_magmom
 _atom_site_hse06_bader_spin_density
 _atom_site_hse06_ddec_charge
 _atom_site_hse06_ddec_spin_density
 _atom_site_hse06_ddec_sum_bond_order
 _atom_site_hse06_magmom
 _atom_site_pbe_bader_spin_density
 _atom_site_pbe_cm5_charge
 _atom_site_pbe_ddec_charge
 _atom_site_pbe_ddec_spin_density
 _atom_site_pbe_ddec_sum_bond_order
 _atom_site_pbe_magmom
Cd  Cd0  1  0.75000248  0.53929029  0.50000003  1  0  1.190247  0  1.709624  0  0  0.990457  0  2.172938  0  0  1.047656  0  2.117212  0  0  0.79244  0.949473  0  2.211225  0
Cd  Cd1  1  0.25000272  0.46071061  0.49999833  1  0  1.190252  0  1.70969  0  0  0.990461  0  2.173014  0  0  1.04766  0  2.117287  0  0  0.792455  0.949475  0  2.2113  0
Cd  Cd2  1  0.74999979  0.93521550  0.00000166  1  0  1.149001  0  1.617536  0  0  0.954853  0  2.047637  0  0  1.017544  0  1.994823  0  0  0.771791  0.911055  0  2.082833  0
Cd  Cd3  1  0.24999996  0.06478446  0.99999988  1  0  1.14901  0  1.617503  0  0  0.954859  0  2.047612  0  0  1.017552  0  1.994799  0  0  0.771794  0.91106  0  2.082808  0
H  H4  1  0.07014116  0.72924402  0.62892062  1  0  0.13208  0  0.972021  0  0  0.13717  0  1.040872  0  0  0.141584  0  1.035186  0  0  0.139438  0.133806  0  1.045107  0
H  H5  1  0.42985892  0.72924035  0.37107957  1  0  0.132006  0  0.972087  0  0  0.137106  0  1.040926  0  0  0.14152  0  1.035242  0  0  0.139428  0.133723  0  1.045187  0
H  H6  1  0.92985727  0.27075501  0.37108029  1  0  0.132067  0  0.972123  0  0  0.13716  0  1.040966  0  0  0.141573  0  1.035283  0  0  0.13944  0.133808  0  1.045187  0
H  H7  1  0.57015289  0.27075775  0.62892193  1  0  0.131983  0  0.972105  0  0  0.137083  0  1.040958  0  0  0.141497  0  1.035274  0  0  0.139414  0.133725  0  1.045189  0
H  H8  1  0.87389484  0.97693333  0.75412663  1  0  0.102715  0  0.92712  0  0  0.114597  0  0.993312  0  0  0.11704  0  0.990726  0  0  0.120249  0.112727  0  0.995309  0
H  H9  1  0.62609876  0.97692902  0.24587234  1  0  0.102635  0  0.927094  0  0  0.114613  0  0.993201  0  0  0.117064  0  0.99059  0  0  0.120247  0.112734  0  0.995213  0
H  H10  1  0.12609825  0.02306757  0.24587347  1  0  0.1026  0  0.927152  0  0  0.114572  0  0.993262  0  0  0.117022  0  0.990651  0  0  0.12025  0.112697  0  0.995269  0
H  H11  1  0.37390374  0.02307001  0.75412703  1  0  0.102604  0  0.927079  0  0  0.114571  0  0.993214  0  0  0.117023  0  0.990602  0  0  0.120254  0.112695  0  0.995217  0
H  H12  1  0.08110763  0.93008151  0.72033408  1  0  0.089129  0  0.921024  0  0  0.101224  0  0.987236  0  0  0.102641  0  0.985842  0  0  0.116978  0.100164  0  0.988245  0
H  H13  1  0.41888619  0.93007661  0.27966552  1  0  0.08913  0  0.920991  0  0  0.101196  0  0.987269  0  0  0.102612  0  0.985878  0  0  0.116954  0.100138  0  0.988276  0
H  H14  1  0.91888413  0.06992032  0.27966596  1  0  0.089107  0  0.92097  0  0  0.101169  0  0.987249  0  0  0.102583  0  0.985859  0  0  0.11695  0.100112  0  0.988258  0
H  H15  1  0.58111893  0.06992148  0.72033568  1  0  0.08909  0  0.920998  0  0  0.101179  0  0.987271  0  0  0.102596  0  0.985877  0  0  0.116962  0.10012  0  0.988278  0
H  H16  1  0.09450151  0.74767797  0.80891210  1  0  0.092757  0  0.940449  0  0  0.109576  0  1.001552  0  0  0.111146  0  1.001086  0  0  0.100133  0.108614  0  1.001635  0
H  H17  1  0.40549317  0.74767374  0.19108673  1  0  0.092706  0  0.940518  0  0  0.109513  0  1.001579  0  0  0.11108  0  1.001113  0  0  0.10013  0.108557  0  1.00166  0
H  H18  1  0.90549424  0.25232479  0.19108869  1  0  0.092739  0  0.940414  0  0  0.109563  0  1.001501  0  0  0.111134  0  1.001033  0  0  0.100123  0.108605  0  1.001584  0
H  H19  1  0.59450387  0.25232529  0.80891582  1  0  0.092721  0  0.940447  0  0  0.109553  0  1.001522  0  0  0.111125  0  1.001053  0  0  0.100106  0.108594  0  1.001608  0
H  H20  1  0.88164312  0.78855426  0.83966973  1  0  0.107264  0  0.959496  0  0  0.116777  0  1.027908  0  0  0.118938  0  1.027833  0  0  0.099664  0.115352  0  1.027883  0
H  H21  1  0.61835001  0.78854967  0.16032954  1  0  0.107267  0  0.959562  0  0  0.116758  0  1.027946  0  0  0.118916  0  1.027871  0  0  0.099685  0.115331  0  1.02792  0
H  H22  1  0.11835394  0.21144851  0.16033225  1  0  0.107297  0  0.959499  0  0  0.116813  0  1.0279  0  0  0.118974  0  1.027824  0  0  0.099689  0.115388  0  1.027872  0
H  H23  1  0.38164712  0.21144562  0.83967016  1  0  0.107298  0  0.959513  0  0  0.116798  0  1.027924  0  0  0.118959  0  1.027849  0  0  0.099679  0.115374  0  1.027897  0
H  H24  1  0.99533863  0.84447308  0.15835109  1  0  0.089233  0  0.946176  0  0  0.095808  0  1.012659  0  0  0.098303  0  1.010316  0  0  0.119501  0.094008  0  1.014176  0
H  H25  1  0.50466085  0.84447671  0.84165082  1  0  0.089216  0  0.946162  0  0  0.095821  0  1.012583  0  0  0.098315  0  1.01024  0  0  0.119503  0.09402  0  1.014101  0
H  H26  1  0.00466249  0.15552501  0.84164936  1  0  0.089221  0  0.946171  0  0  0.095848  0  1.012579  0  0  0.098342  0  1.010238  0  0  0.119506  0.094049  0  1.014099  0
H  H27  1  0.49534027  0.15552512  0.15834963  1  0  0.089236  0  0.94615  0  0  0.095844  0  1.012577  0  0  0.098338  0  1.010234  0  0  0.119506  0.094045  0  1.014096  0
H  H28  1  0.09414472  0.65063034  0.22897348  1  0  0.116484  0  0.968228  0  0  0.125668  0  1.02787  0  0  0.128907  0  1.026803  0  0  0.106019  0.123182  0  1.02894  0
H  H29  1  0.40585168  0.65063557  0.77102758  1  0  0.116527  0  0.968248  0  0  0.125712  0  1.027885  0  0  0.128957  0  1.026811  0  0  0.106015  0.123224  0  1.028957  0
H  H30  1  0.90585641  0.34936682  0.77102697  1  0  0.116507  0  0.968228  0  0  0.125694  0  1.027866  0  0  0.128926  0  1.026806  0  0  0.106028  0.123208  0  1.028937  0
H  H31  1  0.59414948  0.34936720  0.22897174  1  0  0.116453  0  0.968305  0  0  0.125677  0  1.027901  0  0  0.128895  0  1.026855  0  0  0.106014  0.123188  0  1.028977  0
H  H32  1  0.00705500  0.44244382  0.16970160  1  0  0.0936  0  0.949396  0  0  0.107431  0  1.00647  0  0  0.109695  0  1.005438  0  0  0.106793  0.105929  0  1.006966  0
H  H33  1  0.49294246  0.44244624  0.83029639  1  0  0.093606  0  0.949406  0  0  0.107442  0  1.006472  0  0  0.109707  0  1.005444  0  0  0.106796  0.105941  0  1.006966  0
H  H34  1  0.99294215  0.55755428  0.83029754  1  0  0.093585  0  0.949421  0  0  0.107399  0  1.006513  0  0  0.109667  0  1.005482  0  0  0.106765  0.105897  0  1.007011  0
H  H35  1  0.50705604  0.55755560  0.16970224  1  0  0.093605  0  0.94938  0  0  0.107432  0  1.00646  0  0  0.109697  0  1.005426  0  0  0.106793  0.10593  0  1.006956  0
H  H36  1  0.84635197  0.32237912  0.05977007  1  0  0.108764  0  0.960163  0  0  0.119533  0  1.022161  0  0  0.121984  0  1.021759  0  0  0.105358  0.117849  0  1.022302  0
H  H37  1  0.65364061  0.32237899  0.94022972  1  0  0.10875  0  0.9602  0  0  0.119517  0  1.022203  0  0  0.121967  0  1.021802  0  0  0.105367  0.117832  0  1.022344  0
H  H38  1  0.15364245  0.67762178  0.94023065  1  0  0.108745  0  0.960211  0  0  0.119514  0  1.022216  0  0  0.121964  0  1.021815  0  0  0.105368  0.117829  0  1.022357  0
H  H39  1  0.34635516  0.67762097  0.05977050  1  0  0.108758  0  0.960145  0  0  0.119535  0  1.022139  0  0  0.121986  0  1.021737  0  0  0.105355  0.11785  0  1.022281  0
C  C40  1  0.64320443  0.71958481  0.63213500  1  0  0.171249  0  3.770803  0  0  0.155433  0  4.045285  0  0  0.159988  0  4.061257  0  0  0.202656  0.152303  0  4.034531  0
C  C41  1  0.85679433  0.71958784  0.36786558  1  0  0.170959  0  3.771153  0  0  0.155206  0  4.045557  0  0  0.159752  0  4.061544  0  0  0.202574  0.152077  0  4.034803  0
C  C42  1  0.35679272  0.28041328  0.36786413  1  0  0.170895  0  3.771247  0  0  0.155135  0  4.045673  0  0  0.159688  0  4.061648  0  0  0.202565  0.152009  0  4.034919  0
C  C43  1  0.14321493  0.28041213  0.63213182  1  0  0.170849  0  3.771224  0  0  0.155138  0  4.045596  0  0  0.159709  0  4.061542  0  0  0.202537  0.152008  0  4.034842  0
C  C44  1  0.46048286  0.66939946  0.60708445  1  0  0.621669  0  3.958478  0  0  0.572619  0  4.254601  0  0  0.607008  0  4.245046  0  0  0.210256  0.54918  0  4.260379  0
C  C45  1  0.03952016  0.66940614  0.39291636  1  0  0.621786  0  3.95847  0  0  0.572727  0  4.254599  0  0  0.607118  0  4.245041  0  0  0.2103  0.549286  0  4.260377  0
C  C46  1  0.53951302  0.33060050  0.39291235  1  0  0.621779  0  3.958509  0  0  0.572701  0  4.254648  0  0  0.607093  0  4.245087  0  0  0.210202  0.54925  0  4.260448  0
C  C47  1  0.96049445  0.33059663  0.60708128  1  0  0.621829  0  3.958634  0  0  0.572732  0  4.254793  0  0  0.607118  0  4.245234  0  0  0.21026  0.549293  0  4.26057  0
C  C48  1  0.92796865  0.73951600  0.63664032  1  0  0.177419  0  3.603426  0  0  0.102811  0  3.858016  0  0  0.116353  0  3.869428  0  0  0.164503  0.09418  0  3.850052  0
C  C49  1  0.57203134  0.73951409  0.36336091  1  0  0.177557  0  3.60316  0  0  0.102969  0  3.857777  0  0  0.11651  0  3.869188  0  0  0.164545  0.094352  0  3.849825  0
C  C50  1  0.07202841  0.26048210  0.36336166  1  0  0.177379  0  3.603382  0  0  0.102786  0  3.857976  0  0  0.116323  0  3.869394  0  0  0.164505  0.094147  0  3.850005  0
C  C51  1  0.42797917  0.26048494  0.63663940  1  0  0.177514  0  3.6033  0  0  0.102864  0  3.857947  0  0  0.116403  0  3.869367  0  0  0.164491  0.094227  0  3.849982  0
C  C52  1  0.96001831  0.89702876  0.74435369  1  0  0.00665  0  3.614509  0  0  -0.073034  0  3.879349  0  0  -0.068547  0  3.887882  0  0  -0.046221  -0.075921  0  3.873665  0
C  C53  1  0.53997566  0.89702376  0.25564520  1  0  0.006662  0  3.614354  0  0  -0.073144  0  3.879272  0  0  -0.068658  0  3.887808  0  0  -0.046198  -0.076021  0  3.87357  0
C  C54  1  0.03997478  0.10297213  0.25564641  1  0  0.006793  0  3.614271  0  0  -0.072961  0  3.879162  0  0  -0.068472  0  3.887701  0  0  -0.046176  -0.075846  0  3.873472  0
C  C55  1  0.46002815  0.10297434  0.74435481  1  0  0.00688  0  3.614262  0  0  -0.072956  0  3.879231  0  0  -0.068465  0  3.887765  0  0  -0.046181  -0.075841  0  3.873542  0
C  C56  1  0.00437792  0.82592220  0.81923398  1  0  -0.272172  0  3.662384  0  0  -0.315349  0  3.92284  0  0  -0.32105  0  3.929343  0  0  -0.164223  -0.311252  0  3.917946  0
C  C57  1  0.49561641  0.82591679  0.18076437  1  0  -0.272266  0  3.662526  0  0  -0.315281  0  3.92277  0  0  -0.320973  0  3.929259  0  0  -0.164281  -0.311193  0  3.917873  0
C  C58  1  0.99561785  0.17408056  0.18076624  1  0  -0.272269  0  3.662299  0  0  -0.315404  0  3.922727  0  0  -0.321106  0  3.929224  0  0  -0.164247  -0.311309  0  3.917829  0
C  C59  1  0.50438339  0.17408038  0.81923546  1  0  -0.272289  0  3.662346  0  0  -0.315407  0  3.922792  0  0  -0.32111  0  3.929293  0  0  -0.16425  -0.311315  0  3.917896  0
C  C60  1  0.10025552  0.90807529  0.88067336  1  0  0.693537  0  3.860835  0  0  0.649061  0  4.153917  0  0  0.68329  0  4.147438  0  0  0.198295  0.625818  0  4.157332  0
C  C61  1  0.39973841  0.90807082  0.11932565  1  0  0.693621  0  3.86075  0  0  0.649159  0  4.153727  0  0  0.683387  0  4.147246  0  0  0.198322  0.625916  0  4.157147  0
C  C62  1  0.89974294  0.09192841  0.11932641  1  0  0.693586  0  3.860725  0  0  0.649068  0  4.153851  0  0  0.683297  0  4.147372  0  0  0.198328  0.625825  0  4.157267  0
C  C63  1  0.60025870  0.09192728  0.88067463  1  0  0.693579  0  3.860906  0  0  0.649066  0  4.154014  0  0  0.683295  0  4.147537  0  0  0.198287  0.625824  0  4.15743  0
C  C64  1  0.95841232  0.75311624  0.13473559  1  0  0.158905  0  3.67324  0  0  0.123788  0  3.935305  0  0  0.13257  0  3.950937  0  0  0.060383  0.117974  0  3.924664  0
C  C65  1  0.54158357  0.75312079  0.86526604  1  0  0.158741  0  3.673474  0  0  0.123653  0  3.935471  0  0  0.132436  0  3.951104  0  0  0.0603  0.117837  0  3.924824  0
C  C66  1  0.04158611  0.24688279  0.86526531  1  0  0.15875  0  3.673416  0  0  0.123629  0  3.935446  0  0  0.132412  0  3.951079  0  0  0.060337  0.11781  0  3.924799  0
C  C67  1  0.45841487  0.24688104  0.13473429  1  0  0.158698  0  3.67333  0  0  0.123577  0  3.935379  0  0  0.132362  0  3.951004  0  0  0.060294  0.117759  0  3.924734  0
C  C68  1  0.01487240  0.64328956  0.17378788  1  0  -0.126322  0  3.732803  0  0  -0.139533  0  3.988272  0  0  -0.147051  0  4.010124  0  0  -0.086287  -0.134603  0  3.973798  0
C  C69  1  0.48512135  0.64329385  0.82621306  1  0  -0.12641  0  3.732961  0  0  -0.13965  0  3.98842  0  0  -0.147173  0  4.01027  0  0  -0.086351  -0.134717  0  3.973942  0
C  C70  1  0.98512737  0.35670854  0.82621309  1  0  -0.126417  0  3.733031  0  0  -0.139656  0  3.988517  0  0  -0.147168  0  4.010376  0  0  -0.086379  -0.134724  0  3.97404  0
C  C71  1  0.51487711  0.35670798  0.17378671  1  0  -0.126299  0  3.732972  0  0  -0.139561  0  3.988416  0  0  -0.147061  0  4.010281  0  0  -0.086333  -0.134629  0  3.973942  0
C  C72  1  0.96448117  0.52957019  0.14151442  1  0  -0.053153  0  3.711381  0  0  -0.076993  0  3.957529  0  0  -0.075176  0  3.97718  0  0  -0.067488  -0.078051  0  3.944004  0
C  C73  1  0.53551450  0.52957380  0.85848463  1  0  -0.053094  0  3.711253  0  0  -0.076952  0  3.957406  0  0  -0.075139  0  3.977065  0  0  -0.06744  -0.078005  0  3.943874  0
C  C74  1  0.03551728  0.47042884  0.85848591  1  0  -0.053048  0  3.711391  0  0  -0.076887  0  3.957507  0  0  -0.075076  0  3.977161  0  0  -0.067449  -0.077945  0  3.943985  0
C  C75  1  0.46448397  0.47042803  0.14151514  1  0  -0.053115  0  3.7113  0  0  -0.076936  0  3.957484  0  0  -0.075118  0  3.977127  0  0  -0.067459  -0.077992  0  3.943954  0
C  C76  1  0.85820968  0.52534651  0.07075428  1  0  0.019104  0  3.804544  0  0  0.03578  0  4.036488  0  0  0.033246  0  4.061182  0  0  -0.004356  0.037387  0  4.019895  0
C  C77  1  0.64178601  0.52534824  0.92924477  1  0  0.019111  0  3.804431  0  0  0.03582  0  4.03633  0  0  0.033287  0  4.06102  0  0  -0.004356  0.037422  0  4.019746  0
C  C78  1  0.14178475  0.47465252  0.92924587  1  0  0.019109  0  3.804552  0  0  0.035858  0  4.036402  0  0  0.03332  0  4.061087  0  0  -0.004313  0.03746  0  4.019817  0
C  C79  1  0.35820843  0.47465359  0.07075539  1  0  0.019119  0  3.804371  0  0  0.03571  0  4.036422  0  0  0.033187  0  4.061122  0  0  -0.004356  0.037317  0  4.01983  0
C  C80  1  0.80550497  0.64141233  0.03606130  1  0  0.129161  0  3.738487  0  0  0.123171  0  3.975493  0  0  0.127818  0  3.996796  0  0  0.118781  0.120023  0  3.961101  0
C  C81  1  0.69449417  0.64141312  0.96393862  1  0  0.129046  0  3.738539  0  0  0.123051  0  3.975524  0  0  0.127697  0  3.996826  0  0  0.118749  0.119905  0  3.961134  0
C  C82  1  0.19449210  0.35858764  0.96394011  1  0  0.129037  0  3.73853  0  0  0.122992  0  3.975552  0  0  0.127668  0  3.996836  0  0  0.118723  0.119845  0  3.96116  0
C  C83  1  0.30550293  0.35858778  0.03606222  1  0  0.129165  0  3.7384  0  0  0.123231  0  3.975381  0  0  0.127838  0  3.996727  0  0  0.118769  0.120084  0  3.960989  0
C  C84  1  0.80275756  0.41085980  0.03379983  1  0  -0.09489  0  3.726346  0  0  -0.120081  0  3.986014  0  0  -0.123064  0  4.009001  0  0  -0.086602  -0.118269  0  3.970731  0
C  C85  1  0.69723865  0.41086059  0.96619910  1  0  -0.094908  0  3.726432  0  0  -0.120112  0  3.986096  0  0  -0.123095  0  4.009081  0  0  -0.086611  -0.118299  0  3.970815  0
C  C86  1  0.19723821  0.58914017  0.96620039  1  0  -0.094893  0  3.726439  0  0  -0.120103  0  3.98608  0  0  -0.123087  0  4.009065  0  0  -0.086617  -0.118291  0  3.970799  0
C  C87  1  0.30275580  0.58914031  0.03380049  1  0  -0.0949  0  3.726353  0  0  -0.12008  0  3.986059  0  0  -0.123062  0  4.009042  0  0  -0.086598  -0.118269  0  3.970776  0
N  N88  1  0.85649929  0.75218989  0.06854185  1  0  -0.341631  0  3.23392  0  0  -0.274312  0  3.495173  0  0  -0.293107  0  3.512863  0  0  -0.315632  -0.261784  0  3.482984  0
N  N89  1  0.64349797  0.75218976  0.93145928  1  0  -0.341418  0  3.233986  0  0  -0.274116  0  3.495207  0  0  -0.29291  0  3.512898  0  0  -0.31553  -0.261589  0  3.483019  0
N  N90  1  0.14349779  0.24781007  0.93145957  1  0  -0.34144  0  3.233893  0  0  -0.27413  0  3.495156  0  0  -0.292929  0  3.51284  0  0  -0.315528  -0.261602  0  3.482968  0
N  N91  1  0.35649914  0.24781114  0.06854100  1  0  -0.341471  0  3.2339  0  0  -0.274144  0  3.49508  0  0  -0.292935  0  3.512792  0  0  -0.315526  -0.261616  0  3.482892  0
N  N92  1  0.79201839  0.67696209  0.60043311  1  0  -0.434277  0  3.222312  0  0  -0.365747  0  3.509909  0  0  -0.388208  0  3.524485  0  0  -0.349508  -0.350382  0  3.499552  0
N  N93  1  0.70798187  0.67696185  0.39956862  1  0  -0.434189  0  3.222293  0  0  -0.36566  0  3.509845  0  0  -0.388118  0  3.524424  0  0  -0.34943  -0.350293  0  3.49948  0
N  N94  1  0.20798004  0.32303787  0.39956779  1  0  -0.434118  0  3.222248  0  0  -0.365595  0  3.509811  0  0  -0.388057  0  3.524393  0  0  -0.349455  -0.350228  0  3.499451  0
N  N95  1  0.29203267  0.32303812  0.60043129  1  0  -0.434197  0  3.222249  0  0  -0.365682  0  3.509817  0  0  -0.388148  0  3.524392  0  0  -0.349508  -0.350316  0  3.499461  0
N  N96  1  0.86155939  0.81706551  0.68778391  1  0  0.051764  0  3.539624  0  0  0.171933  0  3.732261  0  0  0.162124  0  3.754531  0  0  -0.124126  0.177835  0  3.717912  0
N  N97  1  0.63843627  0.81706233  0.31221552  1  0  0.051893  0  3.539194  0  0  0.171964  0  3.732035  0  0  0.162157  0  3.754298  0  0  -0.124145  0.177863  0  3.717679  0
N  N98  1  0.13843502  0.18293445  0.31221682  1  0  0.051865  0  3.539417  0  0  0.171982  0  3.732144  0  0  0.162187  0  3.754387  0  0  -0.124131  0.177883  0  3.717797  0
N  N99  1  0.36157293  0.18293763  0.68778359  1  0  0.051788  0  3.539644  0  0  0.171988  0  3.732334  0  0  0.162179  0  3.754604  0  0  -0.124103  0.177889  0  3.717982  0
N  N100  1  0.68103842  0.80545363  0.68615819  1  0  -0.247372  0  2.81329  0  0  -0.259776  0  3.071967  0  0  -0.264655  0  3.085374  0  0  -0.201874  -0.256259  0  3.062993  0
N  N101  1  0.81895864  0.80545376  0.31384129  1  0  -0.247335  0  2.813314  0  0  -0.259734  0  3.07201  0  0  -0.264612  0  3.08542  0  0  -0.201865  -0.256216  0  3.063038  0
N  N102  1  0.31895603  0.19454446  0.31384140  1  0  -0.247288  0  2.813381  0  0  -0.259698  0  3.072068  0  0  -0.264582  0  3.085478  0  0  -0.201833  -0.25618  0  3.063095  0
N  N103  1  0.18105060  0.19454620  0.68615668  1  0  -0.24724  0  2.813545  0  0  -0.259673  0  3.072184  0  0  -0.264558  0  3.085588  0  0  -0.201825  -0.256157  0  3.063211  0
O  O104  1  0.45991302  0.59923469  0.54688704  1  0  -0.681099  0  2.106008  0  0  -0.598771  0  2.377057  0  0  -0.63171  0  2.361204  0  0  -0.337679  -0.57544  0  2.387015  0
O  O105  1  0.04009303  0.59923784  0.45311268  1  0  -0.681109  0  2.10587  0  0  -0.598826  0  2.376957  0  0  -0.631765  0  2.361101  0  0  -0.337709  -0.575493  0  2.386913  0
O  O106  1  0.54009095  0.40076714  0.45310784  1  0  -0.681117  0  2.105936  0  0  -0.59881  0  2.377016  0  0  -0.631748  0  2.361159  0  0  -0.337682  -0.575474  0  2.386982  0
O  O107  1  0.95992019  0.40076586  0.54688661  1  0  -0.681036  0  2.105879  0  0  -0.598735  0  2.376969  0  0  -0.631673  0  2.361117  0  0  -0.337636  -0.575404  0  2.386928  0
O  O108  1  0.33062617  0.69451299  0.64369427  1  0  -0.579055  0  1.927545  0  0  -0.544122  0  2.142452  0  0  -0.564902  0  2.131111  0  0  -0.316481  -0.529587  0  2.149883  0
O  O109  1  0.16937402  0.69452203  0.35630759  1  0  -0.579048  0  1.927664  0  0  -0.544109  0  2.142568  0  0  -0.564888  0  2.131222  0  0  -0.31648  -0.529568  0  2.149998  0
O  O110  1  0.66937378  0.30548417  0.35630100  1  0  -0.579056  0  1.9275  0  0  -0.544114  0  2.142406  0  0  -0.564893  0  2.13106  0  0  -0.316444  -0.529578  0  2.149848  0
O  O111  1  0.83063654  0.30547981  0.64369101  1  0  -0.579112  0  1.927712  0  0  -0.544164  0  2.142631  0  0  -0.564943  0  2.131289  0  0  -0.316477  -0.52963  0  2.150063  0
O  O112  1  0.05524251  0.90058246  0.94937559  1  0  -0.6679  0  2.014133  0  0  -0.596606  0  2.268501  0  0  -0.628342  0  2.258329  0  0  -0.333015  -0.574297  0  2.274258  0
O  O113  1  0.44475948  0.90058139  0.05062376  1  0  -0.66794  0  2.01404  0  0  -0.596689  0  2.268425  0  0  -0.628426  0  2.258251  0  0  -0.33304  -0.574379  0  2.274179  0
O  O114  1  0.94475726  0.09941937  0.05062537  1  0  -0.667863  0  2.014161  0  0  -0.59656  0  2.268552  0  0  -0.628294  0  2.258376  0  0  -0.333013  -0.574254  0  2.27431  0
O  O115  1  0.55524030  0.09941671  0.94937663  1  0  -0.667906  0  2.014164  0  0  -0.596606  0  2.268554  0  0  -0.628342  0  2.258381  0  0  -0.333002  -0.574297  0  2.27431  0
O  O116  1  0.22318394  0.97927539  0.86209591  1  0  -0.633177  0  1.943578  0  0  -0.570657  0  2.174402  0  0  -0.599375  0  2.168023  0  0  -0.317608  -0.550694  0  2.17803  0
O  O117  1  0.27680840  0.97926567  0.13790083  1  0  -0.633177  0  1.94364  0  0  -0.570655  0  2.174421  0  0  -0.599378  0  2.168048  0  0  -0.317604  -0.550693  0  2.178053  0
O  O118  1  0.77681053  0.02072831  0.13790311  1  0  -0.633219  0  1.943473  0  0  -0.570682  0  2.174295  0  0  -0.5994  0  2.167917  0  0  -0.317649  -0.550718  0  2.177924  0
O  O119  1  0.72318605  0.02072589  0.86209875  1  0  -0.633208  0  1.943661  0  0  -0.570645  0  2.174446  0  0  -0.59936  0  2.16807  0  0  -0.317596  -0.550682  0  2.178073  0
