# generated using pymatgen
data_NaP2H38C23NO6
_symmetry_space_group_name_H-M   'P 1'
_cell_length_a   8.15456825
_cell_length_b   12.08683650
_cell_length_c   14.67670000
_cell_angle_alpha   90.00000000
_cell_angle_beta   90.00000000
_cell_angle_gamma   106.04929041
_symmetry_Int_Tables_number   1
_chemical_formula_structural   NaP2H38C23NO6
_chemical_formula_sum   'Na2 P4 H76 C46 N2 O12'
_cell_volume   1390.19706353
_cell_formula_units_Z   2
loop_
 _symmetry_equiv_pos_site_id
 _symmetry_equiv_pos_as_xyz
  1  'x, y, z'
loop_
 _atom_site_type_symbol
 _atom_site_label
 _atom_site_symmetry_multiplicity
 _atom_site_fract_x
 _atom_site_fract_y
 _atom_site_fract_z
 _atom_site_occupancy
 _atom_site_hle17_bader_spin_density
 _atom_site_hle17_ddec_charge
 _atom_site_hle17_ddec_spin_density
 _atom_site_hle17_ddec_sum_bond_order
 _atom_site_hle17_magmom
 _atom_site_hse06_10hf_bader_spin_density
 _atom_site_hse06_10hf_ddec_charge
 _atom_site_hse06_10hf_ddec_spin_density
 _atom_site_hse06_10hf_ddec_sum_bond_order
 _atom_site_hse06_10hf_magmom
 _atom_site_hse06_bader_spin_density
 _atom_site_hse06_ddec_charge
 _atom_site_hse06_ddec_spin_density
 _atom_site_hse06_ddec_sum_bond_order
 _atom_site_hse06_magmom
 _atom_site_pbe_bader_charge
 _atom_site_pbe_bader_spin_density
 _atom_site_pbe_cm5_charge
 _atom_site_pbe_ddec_charge
 _atom_site_pbe_ddec_spin_density
 _atom_site_pbe_ddec_sum_bond_order
 _atom_site_pbe_magmom
Na  Na0  1  0.70941370  0.37589504  0.37994645  1  0  0.881245  0  0.420282  0  0  0.820171  0  0.585439  0  0  0.833449  0  0.562634  0  0.88743  0  0.709875  0.810647  0  0.601462  0
Na  Na1  1  0.29058859  0.62410474  0.87994372  1  0  0.881248  0  0.420302  0  0  0.820195  0  0.585431  0  0  0.833472  0  0.562624  0  0.88746  0  0.709909  0.810672  0  0.601452  0
P  P2  1  0.49782436  0.45393310  0.66051769  1  0  -0.17121  0  2.559926  0  0  -0.204661  0  2.895555  0  0  -0.217016  0  2.900005  0  0.714211  0  -0.090646  -0.196517  0  2.892619  0
P  P3  1  0.50217390  0.54606582  0.16051905  1  0  -0.171269  0  2.559852  0  0  -0.204738  0  2.89549  0  0  -0.217085  0  2.899931  0  0.714128  0  -0.090677  -0.196591  0  2.89255  0
P  P4  1  0.65645752  0.67456987  0.58854511  1  0  0.040367  0  2.960626  0  0  -0.00709  0  3.326259  0  0  -0.003201  0  3.324998  0  0.863601  0  0.005646  -0.009344  0  3.327064  0
P  P5  1  0.34353794  0.32542818  0.08854783  1  0  0.040246  0  2.960466  0  0  -0.007211  0  3.326141  0  0  -0.003321  0  3.324879  0  0.863354  0  0.005571  -0.009464  0  3.326948  0
H  H6  1  0.16336416  0.04505782  0.60014172  1  0  0.081059  0  0.971787  0  0  0.093798  0  1.033182  0  0  0.096555  0  1.031789  0  0.016233  0  0.092859  0.091778  0  1.034311  0
H  H7  1  0.83663726  0.95494282  0.10014308  1  0  0.08107  0  0.971824  0  0  0.093811  0  1.033209  0  0  0.096568  0  1.031817  0  0.01624  0  0.092864  0.09179  0  1.034339  0
H  H8  1  0.12522897  0.09956918  0.76043525  1  0  0.081618  0  0.955593  0  0  0.097535  0  1.007854  0  0  0.100224  0  1.006709  0  0.026324  0  0.094918  0.09556  0  1.008762  0
H  H9  1  0.87477264  0.90043490  0.26043729  1  0  0.081653  0  0.955546  0  0  0.09754  0  1.007844  0  0  0.100231  0  1.006694  0  0.026318  0  0.094928  0.095566  0  1.00875  0
H  H10  1  0.83263121  0.05155589  0.82745099  1  0  0.08086  0  0.998388  0  0  0.093319  0  1.062766  0  0  0.095347  0  1.062517  0  0.041543  0  0.092974  0.091785  0  1.063144  0
H  H11  1  0.16737058  0.94845163  0.32745168  1  0  0.080907  0  0.99846  0  0  0.093358  0  1.062837  0  0  0.095386  0  1.062587  0  0.041527  0  0.092979  0.091831  0  1.063205  0
H  H12  1  0.09063406  0.59828375  0.21800405  1  0  0.056195  0  0.917508  0  0  0.072353  0  0.979157  0  0  0.072538  0  0.978951  0  0.064961  0  0.101206  0.072117  0  0.979449  0
H  H13  1  0.90936911  0.40171517  0.71800200  1  0  0.056196  0  0.91743  0  0  0.072363  0  0.979102  0  0  0.072548  0  0.978892  0  0.065009  0  0.101238  0.072142  0  0.979381  0
H  H14  1  0.87456528  0.51890527  0.19402114  1  0  0.051099  0  0.943229  0  0  0.06315  0  1.013341  0  0  0.063276  0  1.013929  0  0.04915  0  0.099158  0.062963  0  1.01308  0
H  H15  1  0.12543491  0.48109537  0.69401023  1  0  0.051128  0  0.943214  0  0  0.063203  0  1.013287  0  0  0.063327  0  1.013875  0  0.049195  0  0.099168  0.063016  0  1.013031  0
H  H16  1  0.28555686  0.56662843  0.54477301  1  0  0.087128  0  1.010992  0  0  0.103941  0  1.081881  0  0  0.10393  0  1.084835  0  0.025429  0  0.080301  0.103876  0  1.079868  0
H  H17  1  0.71444385  0.43337049  0.04477437  1  0  0.087113  0  1.01102  0  0  0.103929  0  1.081892  0  0  0.103918  0  1.084848  0  0.025428  0  0.080293  0.103864  0  1.079879  0
H  H18  1  0.12677709  0.61737078  0.48875292  1  0  0.109714  0  0.949731  0  0  0.132422  0  1.007397  0  0  0.134595  0  1.006527  0  0.04342  0  0.090396  0.130839  0  1.00805  0
H  H19  1  0.87322521  0.38262900  0.98875428  1  0  0.10969  0  0.949707  0  0  0.132366  0  1.007405  0  0  0.134541  0  1.006535  0  0.043477  0  0.090394  0.130784  0  1.008058  0
H  H20  1  0.21006436  0.67573295  0.59640655  1  0  0.110389  0  0.953567  0  0  0.132616  0  1.011035  0  0  0.134235  0  1.011203  0  0.037789  0  0.08953  0.131383  0  1.011033  0
H  H21  1  0.78993232  0.32426511  0.09640655  1  0  0.110364  0  0.953571  0  0  0.132573  0  1.011062  0  0  0.134193  0  1.011229  0  0.037814  0  0.089493  0.131341  0  1.011061  0
H  H22  1  0.47452143  0.84553096  0.75188496  1  0  0.12154  0  0.959491  0  0  0.137334  0  1.026956  0  0  0.140031  0  1.025717  0  0.054473  0  0.096363  0.135345  0  1.02791  0
H  H23  1  0.52548105  0.15447226  0.25188292  1  0  0.121484  0  0.95952  0  0  0.137286  0  1.026977  0  0  0.139982  0  1.02574  0  0.054411  0  0.09633  0.135297  0  1.027931  0
H  H24  1  0.44746085  0.97099346  0.70005246  1  0  0.09912  0  0.950467  0  0  0.119315  0  1.015961  0  0  0.120812  0  1.015367  0  0.037737  0  0.087071  0.118245  0  1.016341  0
H  H25  1  0.55253514  0.02900891  0.20004974  1  0  0.099137  0  0.950475  0  0  0.119337  0  1.015956  0  0  0.120833  0  1.015365  0  0.037475  0  0.087087  0.118265  0  1.016337  0
H  H26  1  0.52975339  0.97720313  0.81352143  1  0  0.101632  0  0.968248  0  0  0.123676  0  1.028804  0  0  0.125635  0  1.027559  0  0.033654  0  0.086865  0.122221  0  1.029705  0
H  H27  1  0.47024857  0.02280181  0.31352007  1  0  0.101686  0  0.968283  0  0  0.123707  0  1.028846  0  0  0.125666  0  1.027604  0  0.033719  0  0.086881  0.122251  0  1.029747  0
H  H28  1  0.04419055  0.97922453  0.45461786  1  0  0.095942  0  0.98159  0  0  0.118823  0  1.043307  0  0  0.120254  0  1.042947  0  0.057378  0  0.08567  0.117716  0  1.043661  0
H  H29  1  0.95580298  0.02077181  0.95462059  1  0  0.095917  0  0.981571  0  0  0.118808  0  1.043286  0  0  0.120237  0  1.042929  0  0.057309  0  0.085651  0.117701  0  1.04364  0
H  H30  1  0.82027422  0.95127883  0.43692656  1  0  0.106567  0  0.940702  0  0  0.126403  0  1.003453  0  0  0.128491  0  1.002287  0  0.029997  0  0.089486  0.124857  0  1.004331  0
H  H31  1  0.17971510  0.04871923  0.93692383  1  0  0.106629  0  0.940728  0  0  0.126469  0  1.003463  0  0  0.128558  0  1.002295  0  0.029956  0  0.089549  0.124922  0  1.004343  0
H  H32  1  0.90584516  0.83902169  0.47222945  1  0  0.093358  0  0.984644  0  0  0.111173  0  1.057387  0  0  0.111954  0  1.058322  0  0.02082  0  0.083745  0.110556  0  1.056754  0
H  H33  1  0.09414627  0.16097550  0.97222741  1  0  0.093394  0  0.984679  0  0  0.11121  0  1.057408  0  0  0.111988  0  1.058345  0  0.020843  0  0.083771  0.110592  0  1.056776  0
H  H34  1  0.26729944  0.87260026  0.52298337  1  0  0.09966  0  0.953745  0  0  0.119846  0  1.018799  0  0  0.121285  0  1.018687  0  0.009786  0  0.085457  0.118776  0  1.018903  0
H  H35  1  0.73269391  0.12739866  0.02298473  1  0  0.099644  0  0.953781  0  0  0.119847  0  1.018808  0  0  0.121285  0  1.018696  0  0.009785  0  0.085466  0.118779  0  1.018911  0
H  H36  1  0.19864704  0.80933354  0.41490390  1  0  0.087112  0  0.980942  0  0  0.11157  0  1.042197  0  0  0.11204  0  1.043418  0  0.005906  0  0.082713  0.111137  0  1.041438  0
H  H37  1  0.80135174  0.19066366  0.91490526  1  0  0.087109  0  0.980874  0  0  0.111558  0  1.042161  0  0  0.112026  0  1.04339  0  0.005937  0  0.082715  0.111129  0  1.0414  0
H  H38  1  0.40473764  0.90897504  0.42745236  1  0  0.096451  0  0.970573  0  0  0.114789  0  1.037296  0  0  0.116484  0  1.036679  0  0.020088  0  0.084255  0.113546  0  1.037731  0
H  H39  1  0.59525940  0.09102388  0.92745304  1  0  0.096451  0  0.970576  0  0  0.114805  0  1.037298  0  0  0.116488  0  1.036693  0  0.020071  0  0.084253  0.113561  0  1.037732  0
H  H40  1  0.33698260  0.26086408  0.49087465  1  0  0.070584  0  0.968194  0  0  0.086802  0  1.039458  0  0  0.087721  0  1.038957  0  0.035546  0  0.093187  0.08604  0  1.039898  0
H  H41  1  0.66302285  0.73913742  0.99087261  1  0  0.070514  0  0.968263  0  0  0.086752  0  1.0395  0  0  0.087672  0  1.038999  0  0.035523  0  0.093187  0.08599  0  1.039939  0
H  H42  1  0.28318254  0.10942477  0.46592422  1  0  0.061758  0  0.968717  0  0  0.08147  0  1.0353  0  0  0.081385  0  1.035676  0  0.00894  0  0.087598  0.081406  0  1.03515  0
H  H43  1  0.71682255  0.89057587  0.96592354  1  0  0.06174  0  0.968696  0  0  0.081449  0  1.035288  0  0  0.081365  0  1.035662  0  0.008893  0  0.087584  0.081385  0  1.035137  0
H  H44  1  0.33357499  0.21283960  0.37484925  1  0  0.096708  0  0.954489  0  0  0.112973  0  1.020325  0  0  0.114036  0  1.019888  0  0.076722  0  0.105  0.112105  0  1.020776  0
H  H45  1  0.66643361  0.78716362  0.87484721  1  0  0.096689  0  0.954479  0  0  0.11296  0  1.020313  0  0  0.114026  0  1.019869  0  0.076698  0  0.104989  0.112092  0  1.020765  0
H  H46  1  0.05475452  0.21469484  0.29642835  1  0  0.068349  0  0.950664  0  0  0.084173  0  1.022125  0  0  0.084677  0  1.02237  0  0.030842  0  0.09041  0.083688  0  1.022082  0
H  H47  1  0.94524935  0.78530580  0.79642835  1  0  0.068347  0  0.950599  0  0  0.084168  0  1.022055  0  0  0.084672  0  1.0223  0  0.030885  0  0.090373  0.083682  0  1.022011  0
H  H48  1  0.94769481  0.19600383  0.18914606  1  0  0.071971  0  0.964101  0  0  0.08443  0  1.039135  0  0  0.084393  0  1.040638  0  0.071245  0  0.089266  0.084339  0  1.038197  0
H  H49  1  0.05230731  0.80399854  0.68914538  1  0  0.072015  0  0.964055  0  0  0.084449  0  1.039109  0  0  0.084413  0  1.040612  0  0.071221  0  0.089281  0.084357  0  1.038172  0
H  H50  1  0.82835181  0.15009716  0.29171953  1  0  0.089784  0  0.93912  0  0  0.110179  0  0.998727  0  0  0.110309  0  0.999102  0  0.040599  0  0.105077  0.109996  0  0.998531  0
H  H51  1  0.17165049  0.84990262  0.79171885  1  0  0.089806  0  0.939162  0  0  0.110227  0  0.998714  0  0  0.110354  0  0.999098  0  0.040604  0  0.105087  0.110044  0  0.998517  0
H  H52  1  0.53200920  0.09975686  0.56529669  1  0  0.059192  0  0.931591  0  0  0.071477  0  0.999204  0  0  0.071482  0  0.999396  0  0.062458  0  0.100874  0.071401  0  0.999126  0
H  H53  1  0.46798871  0.90024120  0.06529329  1  0  0.059184  0  0.931573  0  0  0.071492  0  0.999203  0  0  0.071495  0  0.999393  0  0.062445  0  0.100885  0.071414  0  0.999125  0
H  H54  1  0.56104130  0.25117464  0.58451423  1  0  0.046788  0  0.950544  0  0  0.058918  0  1.022628  0  0  0.0601  0  1.020883  0  0.055941  0  0.09337  0.05797  0  1.023966  0
H  H55  1  0.43895538  0.74882341  0.08450946  1  0  0.046816  0  0.950521  0  0  0.058991  0  1.022606  0  0  0.060174  0  1.020854  0  0.055997  0  0.093399  0.05804  0  1.023942  0
H  H56  1  0.07713086  0.40093003  0.17247065  1  0  0.044485  0  0.964792  0  0  0.054797  0  1.039046  0  0  0.053838  0  1.041054  0  0.043989  0  0.095569  0.055356  0  1.037782  0
H  H57  1  0.92287214  0.59907147  0.67246793  1  0  0.044495  0  0.964734  0  0  0.054795  0  1.038989  0  0  0.053838  0  1.040994  0  0.044051  0  0.095581  0.055353  0  1.037725  0
H  H58  1  0.14958658  0.42666493  0.28725599  1  0  0.05337  0  0.921549  0  0  0.066226  0  0.986788  0  0  0.066564  0  0.986842  0  0.025431  0  0.099352  0.065899  0  0.986874  0
H  H59  1  0.85041868  0.57333313  0.78725327  1  0  0.053356  0  0.921619  0  0  0.066225  0  0.986841  0  0  0.066561  0  0.986895  0  0.025524  0  0.099364  0.065898  0  0.986925  0
H  H60  1  0.52522758  0.75676953  0.35376345  1  0  0.094692  0  0.949437  0  0  0.116788  0  1.009146  0  0  0.118031  0  1.009324  0  -0.001043  0  0.081759  0.115891  0  1.009035  0
H  H61  1  0.47477332  0.24323284  0.85376345  1  0  0.094663  0  0.949445  0  0  0.116784  0  1.009123  0  0  0.118029  0  1.009294  0  -0.001008  0  0.081747  0.115889  0  1.009003  0
H  H62  1  0.31847590  0.65846845  0.34761425  1  0  0.102531  0  0.957105  0  0  0.12403  0  1.019949  0  0  0.125934  0  1.019726  0  0.043814  0  0.085454  0.122603  0  1.020218  0
H  H63  1  0.68152552  0.34153219  0.84761493  1  0  0.102523  0  0.957109  0  0  0.124037  0  1.019932  0  0  0.125939  0  1.01971  0  0.043797  0  0.085443  0.12261  0  1.0202  0
H  H64  1  0.48588691  0.61673801  0.40247195  1  0  0.113214  0  0.984282  0  0  0.130908  0  1.048042  0  0  0.132985  0  1.047844  0  0.069876  0  0.087413  0.129385  0  1.048237  0
H  H65  1  0.51411644  0.38326435  0.90247263  1  0  0.113197  0  0.984293  0  0  0.130891  0  1.048057  0  0  0.132967  0  1.047861  0  0.069856  0  0.087406  0.129362  0  1.048265  0
H  H66  1  0.06915309  0.26971500  0.45018022  1  0  0.065328  0  0.958852  0  0  0.084899  0  1.024634  0  0  0.085112  0  1.024905  0  0.028442  0  0.093113  0.084619  0  1.024569  0
H  H67  1  0.93084481  0.73028306  0.95017477  1  0  0.065275  0  0.958922  0  0  0.084855  0  1.024703  0  0  0.085061  0  1.024983  0  0.028375  0  0.093098  0.084576  0  1.024636  0
H  H68  1  0.10781405  0.33109721  0.56207526  1  0  0.063103  0  0.954327  0  0  0.076316  0  1.030459  0  0  0.076822  0  1.030615  0  0.032583  0  0.086663  0.075845  0  1.030464  0
H  H69  1  0.89218947  0.66890257  0.06207117  1  0  0.063148  0  0.954295  0  0  0.076394  0  1.030374  0  0  0.076904  0  1.030533  0  0.032661  0  0.086687  0.075921  0  1.030382  0
H  H70  1  0.09795786  0.42096405  0.46589628  1  0  0.096585  0  0.946146  0  0  0.114924  0  1.006724  0  0  0.115716  0  1.006238  0  0.087878  0  0.107763  0.114245  0  1.00719  0
H  H71  1  0.90204250  0.57903401  0.96589220  1  0  0.096583  0  0.946153  0  0  0.114893  0  1.006749  0  0  0.115679  0  1.006277  0  0.087837  0  0.107758  0.114215  0  1.007212  0
H  H72  1  0.82979976  0.19047254  0.60668406  1  0  0.0537  0  0.936567  0  0  0.067906  0  1.001522  0  0  0.066805  0  1.003822  0  0.060494  0  0.099062  0.068593  0  1.000027  0
H  H73  1  0.17019779  0.80952466  0.10667725  1  0  0.053736  0  0.936603  0  0  0.06791  0  1.001571  0  0  0.066811  0  1.003865  0  0.060609  0  0.099073  0.068597  0  1.000075  0
H  H74  1  0.81646197  0.14235336  0.49125008  1  0  0.051715  0  0.931312  0  0  0.067617  0  0.994387  0  0  0.067528  0  0.994538  0  0.045451  0  0.101022  0.067589  0  0.994363  0
H  H75  1  0.18353752  0.85764556  0.99124463  1  0  0.051786  0  0.931332  0  0  0.067689  0  0.994371  0  0  0.067599  0  0.994522  0  0.045391  0  0.101073  0.067659  0  0.994347  0
H  H76  1  0.77423573  0.64958482  0.29021510  1  0  0.065396  0  0.977022  0  0  0.078311  0  1.054719  0  0  0.07978  0  1.053473  0  0.057263  0  0.086659  0.077165  0  1.055697  0
H  H77  1  0.22576355  0.35040463  0.79021033  1  0  0.06533  0  0.977015  0  0  0.078235  0  1.054734  0  0  0.079704  0  1.053486  0  0.057131  0  0.086646  0.077086  0  1.055724  0
H  H78  1  0.99052650  0.72682913  0.31630748  1  0  0.067147  0  0.95943  0  0  0.084166  0  1.027871  0  0  0.084488  0  1.028218  0  0.009337  0  0.088654  0.083866  0  1.027661  0
H  H79  1  0.00947317  0.27317324  0.81630339  1  0  0.067131  0  0.959407  0  0  0.084156  0  1.02784  0  0  0.08448  0  1.02818  0  0.009356  0  0.088655  0.083855  0  1.027637  0
H  H80  1  0.84530747  0.66252760  0.40651918  1  0  0.0853  0  0.961068  0  0  0.100123  0  1.031111  0  0  0.100828  0  1.030469  0  0.064552  0  0.098878  0.099486  0  1.031695  0
H  H81  1  0.15469780  0.33747046  0.90651373  1  0  0.085269  0  0.961077  0  0  0.100108  0  1.031108  0  0  0.100815  0  1.030464  0  0.064391  0  0.09888  0.099472  0  1.031691  0
C  C82  1  0.53648199  0.77484327  0.54256406  1  0  0.125003  0  3.513328  0  0  0.136032  0  3.76545  0  0  0.145911  0  3.778466  0  0.324002  0  0.152604  0.128765  0  3.756999  0
C  C83  1  0.46351575  0.22515737  0.04256406  1  0  0.125047  0  3.513265  0  0  0.135998  0  3.765501  0  0  0.145877  0  3.778518  0  0.323995  0  0.152581  0.128731  0  3.757051  0
C  C84  1  0.38016839  0.73649015  0.48116130  1  0  0.201819  0  3.611507  0  0  0.236866  0  3.837254  0  0  0.236047  0  3.857266  0  0.074037  0  -0.011709  0.237524  0  3.823546  0
C  C85  1  0.61983058  0.26351049  0.98116130  1  0  0.201844  0  3.611426  0  0  0.236931  0  3.837137  0  0  0.236114  0  3.857143  0  0.074034  0  -0.011672  0.237588  0  3.823429  0
C  C86  1  0.57176021  0.51920314  0.55188973  1  0  0.178798  0  3.789464  0  0  0.191518  0  4.082589  0  0  0.210157  0  4.090902  0  0.103744  0  0.107988  0.178892  0  4.076459  0
C  C87  1  0.42822754  0.48079406  0.05189109  1  0  0.178843  0  3.789533  0  0  0.191593  0  4.082612  0  0  0.210232  0  4.090918  0  0.103777  0  0.108053  0.178967  0  4.07648  0
C  C88  1  0.03635658  0.02159225  0.63063086  1  0  -0.141366  0  3.805264  0  0  -0.161838  0  4.053628  0  0  -0.164006  0  4.074302  0  -0.0001  0  -0.105651  -0.160318  0  4.039609  0
C  C89  1  0.96364204  0.97840753  0.13063086  1  0  -0.141396  0  3.805295  0  0  -0.161862  0  4.053661  0  0  -0.164031  0  4.074339  0  -0.000135  0  -0.105653  -0.160342  0  4.039645  0
C  C90  1  0.01510917  0.05284294  0.72045419  1  0  -0.09176  0  3.851679  0  0  -0.106121  0  4.1077  0  0  -0.107105  0  4.128267  0  -0.080281  0  -0.110713  -0.105329  0  4.093631  0
C  C91  1  0.98488892  0.94715856  0.22045555  1  0  -0.091778  0  3.851713  0  0  -0.106114  0  4.107733  0  0  -0.107099  0  4.128295  0  -0.080332  0  -0.110764  -0.105324  0  4.093668  0
C  C92  1  0.53112270  0.60325287  0.69258689  1  0  0.194497  0  3.762089  0  0  0.205471  0  4.060168  0  0  0.223713  0  4.069629  0  0.177232  0  0.118077  0.193024  0  4.053137  0
C  C93  1  0.46887714  0.39674691  0.19259166  1  0  0.194579  0  3.762036  0  0  0.205564  0  4.060092  0  0  0.223801  0  4.069566  0  0.177529  0  0.11814  0.193116  0  4.053063  0
C  C94  1  0.85148451  0.02544564  0.75812069  1  0  -0.147353  0  3.802609  0  0  -0.169865  0  4.051059  0  0  -0.172228  0  4.07249  0  -0.0226  0  -0.107837  -0.16822  0  4.036618  0
C  C95  1  0.14851113  0.97455586  0.25812410  1  0  -0.147487  0  3.802667  0  0  -0.170011  0  4.051116  0  0  -0.172376  0  4.072549  0  -0.022532  0  -0.107846  -0.16837  0  4.036676  0
C  C96  1  0.89720055  0.96122654  0.57803048  1  0  0.049204  0  3.782001  0  0  0.072844  0  4.021698  0  0  0.071803  0  4.046149  0  0.053548  0  -0.018347  0.073509  0  4.005168  0
C  C97  1  0.10279700  0.03877066  0.07803117  1  0  0.049396  0  3.782002  0  0  0.072952  0  4.021709  0  0  0.071912  0  4.04616  0  0.053542  0  -0.018278  0.073618  0  4.005179  0
C  C98  1  0.98259132  0.52655007  0.24137034  1  0  0.052527  0  3.663793  0  0  -0.005091  0  3.93075  0  0  0.001069  0  3.936428  0  0.396811  0  -0.075207  -0.009228  0  3.926852  0
C  C99  1  0.01741588  0.47344971  0.74136625  1  0  0.052474  0  3.663739  0  0  -0.005166  0  3.930759  0  0  0.000988  0  3.936446  0  0.396632  0  -0.075302  -0.009315  0  3.92686  0
C  C100  1  0.24249938  0.64317455  0.53089114  1  0  -0.34507  0  3.636675  0  0  -0.420934  0  3.864264  0  0  -0.424712  0  3.875112  0  -0.083288  0  -0.245164  -0.418078  0  3.856804  0
C  C101  1  0.75750046  0.35682523  0.03089318  1  0  -0.345  0  3.636652  0  0  -0.420812  0  3.864233  0  0  -0.42459  0  3.87508  0  -0.083373  0  -0.245134  -0.417958  0  3.856773  0
C  C102  1  0.53108943  0.93899808  0.74593062  1  0  -0.328766  0  3.739698  0  0  -0.409689  0  3.977461  0  0  -0.412063  0  3.985755  0  -0.07543  0  -0.243436  -0.407756  0  3.971733  0
C  C103  1  0.46891059  0.06100514  0.24593062  1  0  -0.328766  0  3.739819  0  0  -0.409689  0  3.977592  0  0  -0.412066  0  3.985889  0  -0.075115  0  -0.243425  -0.407754  0  3.971863  0
C  C104  1  0.91850362  0.93152719  0.48036480  1  0  -0.326592  0  3.761281  0  0  -0.411095  0  4.001876  0  0  -0.413305  0  4.011842  0  -0.076491  0  -0.244529  -0.409249  0  3.995036  0
C  C105  1  0.08149096  0.06847173  0.98036480  1  0  -0.326743  0  3.761303  0  0  -0.411257  0  4.00193  0  0  -0.413462  0  4.011897  0  -0.076395  0  -0.244624  -0.409409  0  3.99509  0
C  C106  1  0.30892355  0.83842079  0.46046386  1  0  -0.33606  0  3.687681  0  0  -0.421059  0  3.928828  0  0  -0.423596  0  3.93966  0  -0.034669  0  -0.245942  -0.418994  0  3.921236  0
C  C107  1  0.69107226  0.16157813  0.96046455  1  0  -0.336059  0  3.687655  0  0  -0.421104  0  3.928818  0  0  -0.423629  0  3.939664  0  -0.034644  0  -0.245966  -0.419037  0  3.92122  0
C  C108  1  0.36303645  0.19521783  0.44531468  1  0  -0.090844  0  3.689434  0  0  -0.184771  0  3.95475  0  0  -0.17932  0  3.959459  0  0.413285  0  -0.149764  -0.188226  0  3.95142  0
C  C109  1  0.63696777  0.80478368  0.94531400  1  0  -0.090687  0  3.689468  0  0  -0.184626  0  3.954735  0  0  -0.179175  0  3.959444  0  0.413299  0  -0.14972  -0.188081  0  3.951404  0
C  C110  1  0.93519255  0.21572190  0.26164874  1  0  -0.080046  0  3.683537  0  0  -0.172133  0  3.951792  0  0  -0.167032  0  3.957679  0  0.39218  0  -0.14612  -0.175356  0  3.947588  0
C  C111  1  0.06481132  0.78427875  0.76164805  1  0  -0.080185  0  3.683576  0  0  -0.17222  0  3.951805  0  0  -0.167122  0  3.957693  0  0.392146  0  -0.146127  -0.175439  0  3.947599  0
C  C112  1  0.70860775  0.96598990  0.70800861  1  0  0.071171  0  3.745991  0  0  0.094571  0  3.982534  0  0  0.094265  0  4.006211  0  -0.045867  0  -0.01461  0.09471  0  3.966553  0
C  C113  1  0.29139788  0.03401504  0.20800793  1  0  0.071178  0  3.745868  0  0  0.094581  0  3.982322  0  0  0.094279  0  4.005992  0  -0.04536  0  -0.014685  0.09472  0  3.966345  0
C  C114  1  0.59446411  0.18718648  0.53948435  1  0  0.05359  0  3.662154  0  0  -0.002823  0  3.929528  0  0  0.003217  0  3.935162  0  0.394193  0  -0.075207  -0.006836  0  3.925577  0
C  C115  1  0.40553818  0.81281330  0.03947958  1  0  0.053619  0  3.662192  0  0  -0.002963  0  3.929747  0  0  0.003084  0  3.935373  0  0.394099  0  -0.075263  -0.006968  0  3.925787  0
C  C116  1  0.03813012  0.41760653  0.24205373  1  0  0.048185  0  3.689789  0  0  -0.009073  0  3.962006  0  0  -0.003269  0  3.968971  0  0.472619  0  -0.076044  -0.012938  0  3.957203  0
C  C117  1  0.96187358  0.58239669  0.74205032  1  0  0.048087  0  3.689775  0  0  -0.009119  0  3.96202  0  0  -0.00331  0  3.968967  0  0.472519  0  -0.076109  -0.012985  0  3.957222  0
C  C118  1  0.73329480  0.93117766  0.61833655  1  0  0.086128  0  3.808378  0  0  0.080178  0  4.053985  0  0  0.083908  0  4.076522  0  0.324848  0  0.084615  0.07754  0  4.038872  0
C  C119  1  0.26670084  0.06882384  0.11833518  1  0  0.086  0  3.808487  0  0  0.080206  0  4.05387  0  0  0.083937  0  4.076408  0  0.324164  0  0.084657  0.077568  0  4.038759  0
C  C120  1  0.43151166  0.68914492  0.39130050  1  0  -0.351305  0  3.65653  0  0  -0.427292  0  3.885609  0  0  -0.431395  0  3.896048  0  -0.087977  0  -0.246648  -0.424232  0  3.878439  0
C  C121  1  0.56849046  0.31085744  0.89130050  1  0  -0.351292  0  3.656535  0  0  -0.427297  0  3.885591  0  0  -0.431398  0  3.896031  0  -0.087971  0  -0.246615  -0.424238  0  3.878421  0
C  C122  1  0.04493739  0.33577104  0.49605633  1  0  -0.07776  0  3.677436  0  0  -0.167405  0  3.938025  0  0  -0.161773  0  3.942322  0  0.385592  0  -0.145232  -0.171026  0  3.935077  0
C  C123  1  0.95506210  0.66422788  0.99605088  1  0  -0.07775  0  3.677421  0  0  -0.1674  0  3.938031  0  0  -0.161771  0  3.942333  0  0.385616  0  -0.145223  -0.171021  0  3.935084  0
C  C124  1  0.78441073  0.20497527  0.53798402  1  0  0.056196  0  3.670301  0  0  -0.000971  0  3.938858  0  0  0.005185  0  3.94564  0  0.426531  0  -0.075561  -0.005089  0  3.934153  0
C  C125  1  0.21559034  0.79502451  0.03797720  1  0  0.056011  0  3.67045  0  0  -0.001065  0  3.938967  0  0  0.00509  0  3.945744  0  0.426274  0  -0.075663  -0.005183  0  3.934262  0
C  C126  1  0.88302717  0.65284591  0.33589976  1  0  -0.085338  0  3.681493  0  0  -0.176115  0  3.944896  0  0  -0.170702  0  3.949201  0  0.387925  0  -0.148418  -0.179555  0  3.941895  0
C  C127  1  0.11697897  0.34715129  0.83589295  1  0  -0.085115  0  3.681365  0  0  -0.175878  0  3.944727  0  0  -0.170464  0  3.949031  0  0.388139  0  -0.148348  -0.179322  0  3.94172  0
N  N128  1  0.58852201  0.88105775  0.56581452  1  0  -0.308434  0  3.157862  0  0  -0.263118  0  3.418772  0  0  -0.279018  0  3.437412  0  -1.238954  0  -0.290272  -0.252183  0  3.406065  0
N  N129  1  0.41147695  0.11894289  0.06581316  1  0  -0.308373  0  3.157776  0  0  -0.263071  0  3.418646  0  0  -0.278971  0  3.437288  0  -1.238769  0  -0.290249  -0.252135  0  3.405939  0
O  O130  1  0.93184084  0.54818708  0.33169037  1  0  -0.315236  0  2.286855  0  0  -0.241781  0  2.543104  0  0  -0.256243  0  2.543213  0  -1.062194  0  -0.281097  -0.23158  0  2.542627  0
O  O131  1  0.06817513  0.45181614  0.83168355  1  0  -0.315318  0  2.28697  0  0  -0.241898  0  2.543282  0  0  -0.256359  0  2.543381  0  -1.062053  0  -0.281115  -0.231697  0  2.542814  0
O  O132  1  0.58032020  0.47665829  0.47581405  1  0  -0.498864  0  2.069949  0  0  -0.448214  0  2.289713  0  0  -0.468367  0  2.286419  0  -1.160165  0  -0.349139  -0.434265  0  2.291501  0
O  O133  1  0.41965825  0.52333718  0.97581881  1  0  -0.498815  0  2.070043  0  0  -0.448204  0  2.28985  0  0  -0.468368  0  2.286576  0  -1.160097  0  -0.34917  -0.434258  0  2.291637  0
O  O134  1  0.49228522  0.64868862  0.76153972  1  0  -0.475166  0  2.07274  0  0  -0.424832  0  2.292418  0  0  -0.445994  0  2.290327  0  -1.155189  0  -0.323206  -0.40992  0  2.293303  0
O  O135  1  0.50771497  0.35131202  0.26153972  1  0  -0.475143  0  2.072882  0  0  -0.424809  0  2.292557  0  0  -0.44597  0  2.290472  0  -1.155275  0  -0.323191  -0.409897  0  2.293444  0
O  O136  1  0.53937578  0.19971603  0.44838554  1  0  -0.312331  0  2.306318  0  0  -0.239206  0  2.56498  0  0  -0.254061  0  2.56586  0  -1.061051  0  -0.286845  -0.22871  0  2.56392  0
O  O137  1  0.46063089  0.80028547  0.94838213  1  0  -0.312372  0  2.306444  0  0  -0.239197  0  2.565141  0  0  -0.254053  0  2.56602  0  -1.060916  0  -0.28683  -0.228701  0  2.56408  0
O  O138  1  0.89931463  0.32412908  0.27239093  1  0  -0.321548  0  2.308931  0  0  -0.249153  0  2.56879  0  0  -0.263582  0  2.568941  0  -1.074469  0  -0.289413  -0.238976  0  2.5683  0
O  O139  1  0.10068592  0.67587242  0.77238821  1  0  -0.321386  0  2.309052  0  0  -0.249083  0  2.568936  0  0  -0.263512  0  2.569089  0  -1.074506  0  -0.289356  -0.238908  0  2.568443  0
O  O140  1  0.86614655  0.31936744  0.50715215  1  0  -0.314825  0  2.282552  0  0  -0.24284  0  2.537565  0  0  -0.256973  0  2.536997  0  -1.058159  0  -0.281161  -0.232892  0  2.537559  0
O  O141  1  0.13385382  0.68063061  0.00714534  1  0  -0.314809  0  2.282471  0  0  -0.242836  0  2.53746  0  0  -0.256968  0  2.536888  0  -1.057937  0  -0.281161  -0.232889  0  2.537453  0
