# generated using pymatgen
data_AlH6C17N2(ClO3)3
_symmetry_space_group_name_H-M   'P 1'
_cell_length_a   6.70839881
_cell_length_b   22.05552008
_cell_length_c   26.46099237
_cell_angle_alpha   104.57708224
_cell_angle_beta   91.17736034
_cell_angle_gamma   88.70376551
_symmetry_Int_Tables_number   1
_chemical_formula_structural   AlH6C17N2(ClO3)3
_chemical_formula_sum   'Al4 H24 C68 N8 Cl12 O36'
_cell_volume   3787.65172176
_cell_formula_units_Z   4
loop_
 _symmetry_equiv_pos_site_id
 _symmetry_equiv_pos_as_xyz
  1  'x, y, z'
loop_
 _atom_site_type_symbol
 _atom_site_label
 _atom_site_symmetry_multiplicity
 _atom_site_fract_x
 _atom_site_fract_y
 _atom_site_fract_z
 _atom_site_occupancy
 _atom_site_pbe_bader_charge
 _atom_site_pbe_bader_spin_density
 _atom_site_pbe_cm5_charge
 _atom_site_pbe_ddec_charge
 _atom_site_pbe_ddec_spin_density
 _atom_site_pbe_ddec_sum_bond_order
 _atom_site_pbe_magmom
Al  Al0  1  0.95819839  0.50065191  0.49991096  1  2.501147  0  0.395767  1.650443  0  2.548279  0
Al  Al1  1  0.51378618  0.99853791  0.99816624  1  2.502849  0  0.399105  1.649432  0  2.55045  0
Al  Al2  1  0.45754260  0.49916199  0.49870950  1  2.502743  0  0.395386  1.646855  0  2.551616  0
Al  Al3  1  0.01428340  0.99986028  0.00100913  1  2.502243  0  0.400807  1.64866  0  2.548408  0
H  H4  1  0.00334102  0.67312734  0.74369545  1  0.075919  0  0.109066  0.107907  0  0.999279  0
H  H5  1  0.51660212  0.81784552  0.75720443  1  0.067147  0  0.108027  0.111405  0  0.998834  0
H  H6  1  0.41212207  0.28559811  0.27414157  1  0.060961  0  0.103188  0.102093  0  1.013408  0
H  H7  1  0.01091258  0.17371092  0.24372097  1  0.064323  0  0.109051  0.109023  0  0.991386  0
H  H8  1  0.98857710  0.59496524  0.65908554  1  0.121706  0  0.112061  0.115179  0  0.999869  0
H  H9  1  0.52615490  0.89667892  0.84164054  1  0.154906  0  0.10555  0.111338  0  1.038325  0
H  H10  1  0.40594375  0.37046219  0.35615818  1  0.1724  0  0.11026  0.102533  0  1.11422  0
H  H11  1  0.02037129  0.09768191  0.15733607  1  0.128704  0  0.106314  0.108624  0  1.025108  0
H  H12  1  0.45853207  0.77085607  0.68320965  1  0.093112  0  0.116075  0.123757  0  1.00757  0
H  H13  1  0.95711822  0.75202379  0.80025245  1  0.0799  0  0.114707  0.124076  0  0.997165  0
H  H14  1  0.05025371  0.26754867  0.29384775  1  0.072075  0  0.112347  0.119144  0  1.00868  0
H  H15  1  0.46111500  0.25185716  0.19688399  1  0.103308  0  0.115225  0.122887  0  1.008232  0
H  H16  1  0.39251127  0.60509549  0.28139661  1  0.122221  0  0.111621  0.134187  0  0.988084  0
H  H17  1  0.27501697  0.90844311  0.22953719  1  0.077012  0  0.113026  0.132545  0  0.977903  0
H  H18  1  0.67160691  0.40316074  0.72775884  1  0.10794  0  0.112904  0.131836  0  0.97796  0
H  H19  1  0.74864726  0.08788641  0.76878487  1  0.091109  0  0.113001  0.133825  0  0.977135  0
H  H20  1  0.48621637  0.74897162  0.31717383  1  0.136548  0  0.120451  0.139152  0  0.989087  0
H  H21  1  0.97928622  0.74575722  0.17780278  1  0.170888  0  0.121499  0.141466  0  0.993473  0
H  H22  1  0.03458766  0.24659246  0.68936830  1  0.174705  0  0.11445  0.128531  0  1.031848  0
H  H23  1  0.45684463  0.24556511  0.80316372  1  0.172025  0  0.118615  0.135619  0  1.010511  0
H  H24  1  0.69839266  0.57740644  0.49248644  1  0.637518  0  0.345821  0.429783  0  0.860715  0
H  H25  1  0.76885989  0.91747318  0.97350501  1  0.656776  0  0.345057  0.428039  0  0.869204  0
H  H26  1  0.21164725  0.41682030  0.47859004  1  0.65219  0  0.342439  0.425537  0  0.87257  0
H  H27  1  0.26198689  0.08204853  0.00846227  1  0.624002  0  0.349719  0.436874  0  0.850491  0
C  C28  1  0.72576672  0.43773243  0.56122353  1  1.674258  0  0.264902  0.652388  0  4.145008  0
C  C29  1  0.76254851  0.06648466  0.94045590  1  1.647219  0  0.265084  0.658074  0  4.136475  0
C  C30  1  0.19167445  0.56299434  0.43730448  1  1.645129  0  0.270303  0.672245  0  4.091361  0
C  C31  1  0.27143856  0.93310209  0.05888016  1  1.637936  0  0.266374  0.65573  0  4.13545  0
C  C32  1  0.70262566  0.41466757  0.42219903  1  1.602099  0  0.270221  0.646101  0  4.096669  0
C  C33  1  0.75399130  0.07999308  0.07922105  1  1.63434  0  0.274836  0.653523  0  4.102015  0
C  C34  1  0.21701029  0.58477252  0.57552456  1  1.635574  0  0.274126  0.649478  0  4.118112  0
C  C35  1  0.26539958  0.91760561  0.91961631  1  1.602379  0  0.273457  0.653419  0  4.088451  0
C  C36  1  0.09911002  0.67871077  0.71249712  1  -0.039049  0  -0.074815  -0.109136  0  3.943144  0
C  C37  1  0.39458930  0.82017079  0.78418036  1  -0.042453  0  -0.083609  -0.12962  0  3.945871  0
C  C38  1  0.55025997  0.29892619  0.29608301  1  -0.029356  0  -0.084035  -0.123934  0  3.946384  0
C  C39  1  0.89280839  0.17523427  0.21513367  1  -0.018781  0  -0.073784  -0.108739  0  3.929004  0
C  C40  1  0.09095239  0.63391918  0.66495978  1  0.032947  0  -0.067693  -0.068431  0  3.949677  0
C  C41  1  0.40236879  0.86464592  0.83175999  1  0.030171  0  -0.069007  -0.050412  0  3.956708  0
C  C42  1  0.54349296  0.34582423  0.34211462  1  -0.010205  0  -0.078346  -0.061967  0  3.97186  0
C  C43  1  0.89855415  0.13191487  0.16675077  1  0.036616  0  -0.065908  -0.052925  0  3.943452  0
C  C44  1  0.21702227  0.63693553  0.62426749  1  -0.019638  0  0.009584  -0.051673  0  3.916507  0
C  C45  1  0.25406234  0.86896778  0.86898258  1  0.028211  0  -0.002811  -0.08315  0  3.925173  0
C  C46  1  0.71478063  0.36507914  0.37202313  1  0.060251  0  -0.005979  -0.084544  0  3.935801  0
C  C47  1  0.74758447  0.13026822  0.12918447  1  0.014459  0  0.006319  -0.063527  0  3.908495  0
C  C48  1  0.34892344  0.68689936  0.63311474  1  0.21331  0  0.087162  0.063159  0  3.921455  0
C  C49  1  0.09721592  0.82683592  0.85558308  1  0.184076  0  0.087418  0.073604  0  3.949726  0
C  C50  1  0.89348270  0.33547591  0.35254635  1  0.172605  0  0.090196  0.074224  0  3.970029  0
C  C51  1  0.58972430  0.17385258  0.14249495  1  0.164123  0  0.086436  0.063743  0  3.923128  0
C  C52  1  0.35560680  0.73262244  0.67994915  1  0.063049  0  -0.073978  -0.167109  0  3.936368  0
C  C53  1  0.08482915  0.78277528  0.80796817  1  -0.017417  0  -0.081945  -0.188804  0  3.943335  0
C  C54  1  0.90507404  0.28781959  0.30703180  1  0.009854  0  -0.080101  -0.185131  0  3.933699  0
C  C55  1  0.58419955  0.21800227  0.19016813  1  0.037879  0  -0.075584  -0.172042  0  3.945458  0
C  C56  1  0.22964078  0.72953028  0.72094162  1  -0.0182  0  0.000681  0.076312  0  3.98669  0
C  C57  1  0.23616431  0.77799834  0.77109192  1  0.011641  0  0.00434  0.094417  0  3.983523  0
C  C58  1  0.73063982  0.26847883  0.27751795  1  -0.007514  0  0.006757  0.096725  0  3.98116  0
C  C59  1  0.73690030  0.21989158  0.22757196  1  0.007641  0  0.00147  0.08118  0  3.989985  0
C  C60  1  0.30426445  0.58393926  0.35272387  1  0.037662  0  0.023329  0.148711  0  4.03901  0
C  C61  1  0.28267298  0.92197700  0.15184001  1  0.079777  0  0.021228  0.146733  0  4.040717  0
C  C62  1  0.69438595  0.42138095  0.65200400  1  0.027269  0  0.021258  0.148325  0  4.045221  0
C  C63  1  0.75481190  0.07606601  0.84718929  1  0.064904  0  0.020777  0.146902  0  4.039187  0
C  C64  1  0.30265619  0.61992827  0.31630879  1  0.047338  0  -0.09303  -0.193228  0  3.965923  0
C  C65  1  0.28011186  0.88575309  0.18794957  1  0.056877  0  -0.093025  -0.190607  0  3.969558  0
C  C66  1  0.69613351  0.38286189  0.68631978  1  -0.022265  0  -0.092956  -0.191186  0  3.970141  0
C  C67  1  0.75506465  0.11126701  0.81025483  1  -0.008315  0  -0.093737  -0.194015  0  3.96942  0
C  C68  1  0.18777842  0.67496544  0.32467604  1  0.063891  0  -0.009461  0.038021  0  4.020374  0
C  C69  1  0.28186865  0.82037686  0.17084959  1  0.057523  0  -0.008196  0.03977  0  4.018909  0
C  C70  1  0.72967952  0.31823971  0.66791411  1  0.114563  0  -0.008059  0.039177  0  4.014122  0
C  C71  1  0.76345652  0.17655271  0.82645925  1  0.059127  0  -0.009467  0.037714  0  4.023182  0
C  C72  1  0.07662310  0.69479346  0.37047964  1  0.098989  0  0.008852  0.038891  0  4.029385  0
C  C73  1  0.29057572  0.79151119  0.11713566  1  0.146977  0  0.011551  0.040377  0  4.009339  0
C  C74  1  0.76555260  0.29261186  0.61454955  1  0.162022  0  0.013322  0.043146  0  4.004361  0
C  C75  1  0.77075532  0.20641812  0.87998891  1  0.158135  0  0.011518  0.042576  0  4.013314  0
C  C76  1  0.07635008  0.65798582  0.40679498  1  0.145371  0  0.020857  0.089094  0  3.999447  0
C  C77  1  0.29102588  0.82859849  0.08101795  1  0.153231  0  0.019868  0.084066  0  4.025739  0
C  C78  1  0.76602905  0.33215532  0.58035633  1  0.058498  0  0.019647  0.084549  0  4.015098  0
C  C79  1  0.77027116  0.17039735  0.91688620  1  0.089262  0  0.018968  0.084848  0  4.01965  0
C  C80  1  0.19036421  0.60196520  0.39813192  1  0.079134  0  -0.012678  -0.13632  0  3.906286  0
C  C81  1  0.28370549  0.89412401  0.09817563  1  -0.008666  0  -0.010505  -0.127219  0  3.928044  0
C  C82  1  0.72875248  0.39660748  0.59882873  1  0.108085  0  -0.009184  -0.125159  0  3.932243  0
C  C83  1  0.76026089  0.10492044  0.90064594  1  0.129269  0  -0.011226  -0.128331  0  3.926727  0
C  C84  1  0.37219932  0.74836499  0.28715813  1  0.076414  0  -0.065933  -0.147811  0  3.907718  0
C  C85  1  0.09263670  0.74693683  0.20798766  1  0.045209  0  -0.066612  -0.147045  0  3.936641  0
C  C86  1  0.90558149  0.24605222  0.71346838  1  0.00817  0  -0.070394  -0.150012  0  3.942421  0
C  C87  1  0.58536821  0.24596479  0.77882126  1  0.054582  0  -0.069338  -0.151901  0  3.936243  0
C  C88  1  0.40199484  0.78170381  0.24976070  1  0.165158  0  0.090091  0.047496  0  3.883324  0
C  C89  1  0.06283383  0.71313003  0.24498241  1  0.176911  0  0.087902  0.042832  0  3.867137  0
C  C90  1  0.91760830  0.21447602  0.75285229  1  0.186779  0  0.08889  0.044609  0  3.876859  0
C  C91  1  0.57282562  0.27712532  0.73915405  1  0.153494  0  0.090273  0.046431  0  3.878874  0
C  C92  1  0.26351575  0.78247711  0.20949538  1  0.047804  0  0.012906  0.058001  0  3.966723  0
C  C93  1  0.20068969  0.71309320  0.28580851  1  0.03307  0  0.016313  0.067661  0  3.948637  0
C  C94  1  0.75944585  0.21332356  0.78650245  1  0.030514  0  0.013414  0.062734  0  3.961042  0
C  C95  1  0.73216814  0.27911891  0.70598871  1  0.111469  0  0.013266  0.061209  0  3.956872  0
N  N96  1  0.59286886  0.81477173  0.25295025  1  0.391996  0  0.058765  0.514079  0  4.199343  0
N  N97  1  0.87824607  0.67623234  0.23848140  1  0.405894  0  0.058833  0.516534  0  4.187664  0
N  N98  1  0.11157166  0.18445403  0.75974475  1  0.385916  0  0.057756  0.513619  0  4.199005  0
N  N99  1  0.37719730  0.30549041  0.73115477  1  0.357213  0  0.05734  0.511883  0  4.204746  0
N  N100  1  0.48179751  0.69457256  0.59138612  1  0.395034  0  0.062536  0.522694  0  4.196531  0
N  N101  1  0.94098728  0.82469998  0.89362952  1  0.391348  0  0.06098  0.517704  0  4.234095  0
N  N102  1  0.08091942  0.35995578  0.37830498  1  0.371624  0  0.057488  0.515458  0  4.217893  0
N  N103  1  0.42339586  0.17778783  0.10585815  1  0.400193  0  0.063909  0.523983  0  4.194571  0
Cl  Cl104  1  0.44754813  0.51596529  0.33942660  1  -0.178124  0  0.013151  -0.039974  0  1.513301  0
Cl  Cl105  1  0.28670390  0.00281823  0.17409331  1  -0.190511  0  0.005953  -0.06301  0  1.464816  0
Cl  Cl106  1  0.64872715  0.50098927  0.67544676  1  -0.207399  0  0.00374  -0.063443  0  1.438741  0
Cl  Cl107  1  0.75197679  0.99513953  0.82626683  1  -0.215772  0  0.00884  -0.059172  0  1.476514  0
Cl  Cl108  1  0.94248382  0.76399964  0.38129793  1  -0.170115  0  0.00332  -0.050916  0  1.58123  0
Cl  Cl109  1  0.30542250  0.71125210  0.09556038  1  -0.168189  0  0.009693  -0.044082  0  1.53698  0
Cl  Cl110  1  0.80119595  0.21321894  0.59053401  1  -0.163027  0  0.008771  -0.045406  0  1.535295  0
Cl  Cl111  1  0.78814313  0.28654124  0.90004528  1  -0.181411  0  0.002308  -0.05249  0  1.526415  0
Cl  Cl112  1  0.94133871  0.68321707  0.46301703  1  -0.16387  0  0.022258  -0.028425  0  1.570769  0
Cl  Cl113  1  0.29654230  0.79427861  0.01526769  1  -0.151116  0  0.022917  -0.018775  0  1.598564  0
Cl  Cl114  1  0.81145786  0.30216032  0.51498413  1  -0.172966  0  0.016936  -0.03054  0  1.533976  0
Cl  Cl115  1  0.78722453  0.20562732  0.98244283  1  -0.13875  0  0.020652  -0.022969  0  1.569812  0
O  O116  1  0.53119940  0.43753752  0.43585819  1  -1.242413  0  -0.225396  -0.581471  0  2.396096  0
O  O117  1  0.92372689  0.06581097  0.05874063  1  -1.244237  0  -0.223466  -0.57003  0  2.327116  0
O  O118  1  0.04873562  0.57012669  0.55373509  1  -1.250891  0  -0.223385  -0.570857  0  2.337971  0
O  O119  1  0.43524288  0.94065265  0.93389150  1  -1.242878  0  -0.224028  -0.572933  0  2.349409  0
O  O120  1  0.89105053  0.46026339  0.55369104  1  -1.2362  0  -0.224734  -0.566259  0  2.329495  0
O  O121  1  0.59544207  0.05601333  0.95776956  1  -1.23678  0  -0.226248  -0.57455  0  2.320401  0
O  O122  1  0.35975888  0.55469791  0.45763069  1  -1.246138  0  -0.226922  -0.587151  0  2.366732  0
O  O123  1  0.09872014  0.95329136  0.05047015  1  -1.233012  0  -0.225818  -0.569742  0  2.318613  0
O  O124  1  0.86513336  0.42898658  0.44763015  1  -1.256299  0  -0.234748  -0.607535  0  2.427185  0
O  O125  1  0.58904047  0.05514061  0.06261447  1  -1.256968  0  -0.230303  -0.588159  0  2.392902  0
O  O126  1  0.38474524  0.55894766  0.56184099  1  -1.244674  0  -0.229214  -0.58129  0  2.364385  0
O  O127  1  0.10287084  0.93204614  0.94411035  1  -1.254066  0  -0.232117  -0.596791  0  2.384801  0
O  O128  1  0.02499189  0.54244713  0.44677330  1  -1.243781  0  -0.23208  -0.593009  0  2.358175  0
O  O129  1  0.43280898  0.94124920  0.03779137  1  -1.235902  0  -0.225124  -0.573153  0  2.346389  0
O  O130  1  0.55834928  0.44482999  0.54032812  1  -1.241354  0  -0.223031  -0.567147  0  2.334541  0
O  O131  1  0.93379865  0.04865237  0.95257748  1  -1.244001  0  -0.228392  -0.582292  0  2.343333  0
O  O132  1  0.70451306  0.53763098  0.50198951  1  -1.436078  0  -0.448214  -0.983682  0  2.166832  0
O  O133  1  0.76675534  0.96117895  0.99294345  1  -1.456937  0  -0.448371  -0.985647  0  2.169283  0
O  O134  1  0.20973057  0.46152168  0.49503106  1  -1.453478  0  -0.449268  -0.984521  0  2.172951  0
O  O135  1  0.26247280  0.03715021  0.00503285  1  -1.421338  0  -0.44836  -0.991601  0  2.177853  0
O  O136  1  0.66473028  0.83708064  0.29708206  1  -0.442321  0  -0.133976  -0.330228  0  1.883196  0
O  O137  1  0.67030098  0.81690117  0.21131073  1  -0.447419  0  -0.116769  -0.314046  0  1.92998  0
O  O138  1  0.81485298  0.66085751  0.27708632  1  -0.442727  0  -0.120194  -0.323884  0  1.959523  0
O  O139  1  0.79677772  0.66343164  0.19467400  1  -0.457924  0  -0.134587  -0.329484  0  1.880311  0
O  O140  1  0.21312268  0.16417026  0.72015964  1  -0.448613  0  -0.133144  -0.327314  0  1.882255  0
O  O141  1  0.16360329  0.18297863  0.80465093  1  -0.440046  0  -0.112163  -0.308299  0  1.920581  0
O  O142  1  0.32412077  0.30368192  0.68564168  1  -0.434887  0  -0.113029  -0.307654  0  1.92214  0
O  O143  1  0.27536970  0.32748205  0.77038297  1  -0.428576  0  -0.131623  -0.326509  0  1.881545  0
O  O144  1  0.41455933  0.68123705  0.54609982  1  -0.457004  0  -0.117535  -0.317742  0  1.929313  0
O  O145  1  0.65065356  0.71496711  0.60486945  1  -0.444036  0  -0.138279  -0.335522  0  1.862917  0
O  O146  1  0.98555761  0.79786497  0.92808217  1  -0.41163  0  -0.119707  -0.315441  0  1.934253  0
O  O147  1  0.77566818  0.84806428  0.88741105  1  -0.454472  0  -0.110112  -0.318213  0  1.989671  0
O  O148  1  0.14084761  0.40735643  0.36686750  1  -0.425211  0  -0.09135  -0.280235  0  1.999716  0
O  O149  1  0.16739823  0.33150060  0.40745306  1  -0.445555  0  -0.113448  -0.313478  0  1.907541  0
O  O150  1  0.46290148  0.17323065  0.05960233  1  -0.438331  0  -0.115137  -0.322745  0  1.97484  0
O  O151  1  0.25438081  0.18716267  0.12479801  1  -0.459559  0  -0.129913  -0.333105  0  1.917435  0
