# generated using pymatgen
data_CuH22C26(NO)6
_symmetry_space_group_name_H-M   'P 1'
_cell_length_a   9.83341630
_cell_length_b   9.36722275
_cell_length_c   10.86185752
_cell_angle_alpha   100.46916031
_cell_angle_beta   119.96554730
_cell_angle_gamma   119.39703994
_symmetry_Int_Tables_number   1
_chemical_formula_structural   CuH22C26(NO)6
_chemical_formula_sum   'Cu1 H22 C26 N6 O6'
_cell_volume   622.77888572
_cell_formula_units_Z   1
loop_
 _symmetry_equiv_pos_site_id
 _symmetry_equiv_pos_as_xyz
  1  'x, y, z'
loop_
 _atom_site_type_symbol
 _atom_site_label
 _atom_site_symmetry_multiplicity
 _atom_site_fract_x
 _atom_site_fract_y
 _atom_site_fract_z
 _atom_site_occupancy
 _atom_site_hle17_ddec_charge
 _atom_site_hle17_ddec_spin_density
 _atom_site_hle17_ddec_sum_bond_order
 _atom_site_hle17_magmom
 _atom_site_hse06_10hf_ddec_charge
 _atom_site_hse06_10hf_ddec_spin_density
 _atom_site_hse06_10hf_ddec_sum_bond_order
 _atom_site_hse06_10hf_magmom
 _atom_site_hse06_ddec_charge
 _atom_site_hse06_ddec_spin_density
 _atom_site_hse06_ddec_sum_bond_order
 _atom_site_hse06_magmom
 _atom_site_pbe_cm5_charge
 _atom_site_pbe_ddec_charge
 _atom_site_pbe_ddec_spin_density
 _atom_site_pbe_ddec_sum_bond_order
 _atom_site_pbe_magmom
Cu  Cu0  1  0.49999793  0.00000068  0.99999912  1  0.816419  -0.668295  1.703924  -0.486  0.778908  -0.758504  2.086974  -0.602  0.875768  -0.826183  2.019148  -0.687  0.709094  0.718425  -0.713199  2.136637  -0.55
H  H1  1  0.43728229  0.98755834  0.69593156  1  0.082086  -0.000602  0.976135  -0.002  0.092001  -0.00058  1.035622  -0.001  0.094376  -0.000366  1.033434  -0.001  0.115348  0.090134  -0.000745  1.037363  -0.001
H  H2  1  0.56274619  0.01246497  0.30408513  1  0.082052  -0.000601  0.976106  -0.002  0.092037  -0.00058  1.035513  -0.001  0.094417  -0.000366  1.033316  -0.001  0.115334  0.090169  -0.000745  1.037259  -0.001
H  H3  1  0.32496068  0.10529591  0.51153431  1  0.109533  -0.000717  0.927209  -0.001  0.123612  -0.000651  0.976661  -0.001  0.126061  -0.00045  0.976592  0.0  0.11317  0.121828  -0.00078  0.976892  -0.001
H  H4  1  0.67506269  0.89472133  0.48847817  1  0.109532  -0.000715  0.92724  -0.001  0.123613  -0.000651  0.976697  -0.001  0.12608  -0.00045  0.976606  0.0  0.113169  0.12183  -0.00078  0.976924  -0.001
H  H5  1  0.20104064  0.26780104  0.55753927  1  0.100649  -0.000258  0.97827  -0.001  0.112871  9e-06  1.037457  0.0  0.114357  5.4e-05  1.038507  0.0  0.105811  0.111743  -3.3e-05  1.036864  0.0
H  H6  1  0.79897719  0.73221148  0.44246631  1  0.100666  -0.000262  0.978308  -0.001  0.112886  9e-06  1.037491  0.0  0.114376  5.4e-05  1.038542  0.0  0.105805  0.11175  -3.3e-05  1.036895  0.0
H  H7  1  0.28310113  0.15946955  0.94793830  1  0.108249  -0.000725  0.988688  -0.002  0.112233  -0.000696  1.055953  -0.001  0.11545  -0.00044  1.053023  -0.001  0.118162  0.10989  -0.000918  1.057991  -0.002
H  H8  1  0.71690256  0.84053562  0.05206080  1  0.108285  -0.000717  0.988669  -0.002  0.112305  -0.000696  1.055883  -0.001  0.115523  -0.00044  1.052955  -0.001  0.118189  0.109965  -0.000918  1.057921  -0.002
H  H9  1  0.17408322  0.40790964  0.73160915  1  0.299156  -0.000208  0.929978  0.0  0.281175  -0.000153  0.994408  0.0  0.288996  -0.000111  0.988448  0.0  0.305187  0.275636  -0.000192  0.998669  0.0
H  H10  1  0.82592374  0.59209862  0.26839467  1  0.299173  -0.00021  0.930036  0.0  0.281224  -0.000153  0.994432  0.0  0.289045  -0.000111  0.988469  0.0  0.305215  0.275685  -0.000192  0.998692  0.0
H  H11  1  0.16517158  0.57742123  0.87045284  1  0.286899  0.000181  0.934664  0.0  0.267347  0.000239  1.00553  0.0  0.274106  0.00024  1.000068  0.0  0.302901  0.262396  0.000227  1.009673  0.0
H  H12  1  0.83485960  0.42260237  0.12956967  1  0.286887  0.000181  0.934745  0.0  0.267281  0.000239  1.005648  0.0  0.274039  0.00024  1.00019  0.0  0.302892  0.262331  0.000227  1.009787  0.0
H  H13  1  0.18775011  0.71796651  0.08555722  1  0.071874  0.000111  0.927121  0.0  0.088271  8.9e-05  0.98844  0.0  0.088858  9.1e-05  0.987764  0.0  0.107838  0.087698  7.8e-05  0.989147  0.0
H  H14  1  0.81227848  0.28204722  0.91446793  1  0.071852  0.000109  0.927248  0.0  0.088335  8.9e-05  0.988457  0.0  0.088923  9.1e-05  0.987778  0.0  0.107876  0.087763  7.8e-05  0.989164  0.0
H  H15  1  0.20884859  0.56394119  0.15278778  1  0.062395  -6.4e-05  0.941411  0.0  0.07458  -2.8e-05  1.011787  0.0  0.074786  -2.9e-05  1.012629  0.0  0.101425  0.074413  -2.8e-05  1.011208  0.0
H  H16  1  0.79118256  0.43606762  0.84723206  1  0.06237  -6.5e-05  0.941601  0.0  0.07453  -2.8e-05  1.011997  0.0  0.074755  -2.9e-05  1.012806  0.0  0.101448  0.074362  -2.8e-05  1.011424  0.0
H  H17  1  0.06639966  0.44671181  0.41254274  1  0.115771  1.5e-05  0.987515  0.0  0.121552  1.2e-05  1.055047  0.0  0.125191  9e-06  1.052675  0.0  0.099353  0.118844  1e-05  1.056954  0.0
H  H18  1  0.93356839  0.55326142  0.58744178  1  0.115874  1.8e-05  0.987356  0.0  0.12156  1.2e-05  1.054977  0.0  0.125211  9e-06  1.052595  0.0  0.099388  0.11882  1e-05  1.056922  0.0
H  H19  1  0.06440168  0.26083723  0.21332164  1  0.111611  6.1e-05  0.928968  0.0  0.1242  1.6e-05  0.984065  0.0  0.127148  4.1e-05  0.982832  0.0  0.109307  0.122009  -1.5e-05  0.985146  0.0
H  H20  1  0.93556005  0.73912970  0.78666180  1  0.111515  6.2e-05  0.928997  0.0  0.124159  1.6e-05  0.984045  0.0  0.127109  4.1e-05  0.982806  0.0  0.109302  0.121965  -1.5e-05  0.985127  0.0
H  H21  1  0.74598379  0.80872791  0.82963572  1  0.128073  -0.000122  0.938918  0.0  0.13822  -0.000157  0.998103  0.0  0.14241  -0.000117  0.994184  0.0  0.113448  0.135168  -0.000185  1.000987  0.0
H  H22  1  0.25398595  0.19125369  0.17034734  1  0.127924  -0.000121  0.939099  0.0  0.138091  -0.000157  0.998246  0.0  0.142279  -0.000117  0.994331  0.0  0.113433  0.135044  -0.000185  1.001131  0.0
C  C23  1  0.37560452  0.05268220  0.70870908  1  0.087484  0.011096  3.719986  0.007  0.053849  0.002255  3.9837  0.001  0.062941  0.004112  4.00141  0.003  0.025228  0.048188  0.000864  3.971932  0.0
C  C24  1  0.62442202  0.94733819  0.29130441  1  0.0876  0.011089  3.720233  0.007  0.053952  0.002254  3.983881  0.001  0.063041  0.004114  4.001597  0.003  0.025254  0.048291  0.000864  3.972117  0.0
C  C25  1  0.31602460  0.12169436  0.60853013  1  -0.090639  -0.009673  3.764233  -0.01  -0.102657  -0.003812  4.016703  -0.005  -0.107002  -0.003411  4.035272  -0.004  -0.08216  -0.100046  -0.004143  4.004306  -0.005
C  C26  1  0.68399538  0.87832517  0.39147762  1  -0.090866  -0.00968  3.764451  -0.01  -0.102908  -0.003812  4.016951  -0.005  -0.107266  -0.003411  4.035517  -0.004  -0.08226  -0.100297  -0.004142  4.004552  -0.005
C  C27  1  0.24755718  0.21221850  0.63432476  1  -0.108576  0.013712  3.690481  0.009  -0.132224  0.004862  3.93786  0.003  -0.131546  0.005475  3.956431  0.003  -0.075189  -0.132489  0.004352  3.925342  0.002
C  C28  1  0.75246427  0.78779581  0.36568545  1  -0.108461  0.013743  3.690187  0.009  -0.132056  0.004863  3.937605  0.003  -0.13138  0.005478  3.956175  0.003  -0.075106  -0.132314  0.004352  3.925086  0.002
C  C29  1  0.23677405  0.23111477  0.76001874  1  0.234903  -0.008704  3.791306  -0.01  0.231743  -0.003655  4.037661  -0.005  0.236913  -0.003281  4.057765  -0.004  0.108158  0.227749  -0.003958  4.02422  -0.005
C  C30  1  0.76323846  0.76890241  0.23998446  1  0.235073  -0.008697  3.791151  -0.01  0.231746  -0.003654  4.037738  -0.005  0.236914  -0.003282  4.057847  -0.004  0.108175  0.227755  -0.003958  4.024295  -0.005
C  C31  1  0.29474294  0.15331761  0.85334622  1  0.01073  0.008966  3.627313  0.006  -0.02632  0.001361  3.889731  0.001  -0.0202  0.003115  3.908025  0.002  0.029851  -0.03004  5.7e-05  3.877747  0.0
C  C32  1  0.70526978  0.84669415  0.14665979  1  0.010539  0.008916  3.62781  0.006  -0.026477  0.001359  3.890268  0.001  -0.020348  0.003117  3.908538  0.002  0.029825  -0.0302  5.6e-05  3.878287  0.0
C  C33  1  0.14368559  0.35818915  0.89721829  1  0.708963  -8.6e-05  3.903286  0.0  0.643039  -1.8e-05  4.205462  0.0  0.677515  -4.7e-05  4.201528  0.0  0.320764  0.619685  -2.7e-05  4.207285  0.0
C  C34  1  0.85632516  0.64182921  0.10277977  1  0.708828  -8.3e-05  3.903804  0.0  0.642909  -1.8e-05  4.205917  0.0  0.677381  -4.6e-05  4.201987  0.0  0.320736  0.619557  -2.7e-05  4.20774  0.0
C  C35  1  0.11642828  0.56482721  0.04100886  1  0.038077  0.000107  3.66663  0.0  -0.023304  9.2e-05  3.935435  0.0  -0.01858  8.5e-05  3.946228  0.0  -0.064848  -0.026321  8.1e-05  3.927782  0.0
C  C36  1  0.88360076  0.43518937  0.95901147  1  0.037939  0.000113  3.667203  0.0  -0.023442  9.2e-05  3.935892  0.0  -0.018719  8.3e-05  3.946682  0.0  -0.065018  -0.026462  8.1e-05  3.928239  0.0
C  C37  1  0.40089692  0.73320772  0.75228208  1  0.63197  0.008015  3.886439  0.008  0.583292  0.002559  4.189557  0.003  0.620287  0.003024  4.182785  0.003  0.205489  0.558492  0.002065  4.193105  0.003
C  C38  1  0.59906561  0.26677559  0.24769727  1  0.631954  0.008004  3.886509  0.008  0.583285  0.00256  4.189577  0.003  0.620277  0.003023  4.182802  0.003  0.205514  0.558484  0.002065  4.193125  0.003
C  C39  1  0.40750312  0.63798656  0.63272036  1  -0.071164  -0.008986  3.794813  -0.009  -0.049669  -0.004026  4.034655  -0.004  -0.057842  -0.002804  4.056185  -0.003  -0.024105  -0.044431  -0.005003  4.019899  -0.005
C  C40  1  0.59246710  0.36199788  0.36725881  1  -0.07151  -0.008986  3.795076  -0.009  -0.049868  -0.004026  4.03469  -0.004  -0.058041  -0.002802  4.05622  -0.003  -0.024157  -0.044626  -0.005003  4.019926  -0.005
C  C41  1  0.21278123  0.48229380  0.45765186  1  -0.101193  0.000977  3.756756  0.0  -0.126805  -0.000524  4.012558  -0.001  -0.127438  -0.000264  4.032152  0.0  -0.098221  -0.126233  -0.00068  3.999411  -0.001
C  C42  1  0.78718132  0.51767998  0.54233224  1  -0.101184  0.00096  3.756909  0.0  -0.126756  -0.000524  4.012671  -0.001  -0.1274  -0.000265  4.032261  0.0  -0.098211  -0.126157  -0.000679  3.999536  -0.001
C  C43  1  0.21133469  0.37849147  0.34881195  1  -0.099869  -0.00286  3.715543  -0.003  -0.121554  -0.000353  3.97071  0.0  -0.124313  -0.000206  3.991105  0.0  -0.083973  -0.119593  -0.000702  3.956872  -0.001
C  C44  1  0.78862800  0.62147163  0.65116752  1  -0.099746  -0.002853  3.715714  -0.003  -0.121453  -0.000352  3.970836  0.0  -0.124211  -0.000204  3.991255  0.0  -0.083947  -0.119489  -0.000702  3.956977  -0.001
C  C45  1  0.40159780  0.42053925  0.41179019  1  0.053757  0.000374  3.784067  0.0  0.070542  4e-06  4.014167  0.0  0.069709  6.3e-05  4.038709  0.0  -0.004041  0.071054  4.5e-05  3.997402  0.0
C  C46  1  0.59836625  0.57943880  0.58819347  1  0.05408  0.000361  3.783914  0.0  0.070828  5e-06  4.014024  0.0  0.069967  6.1e-05  4.038606  0.0  -0.003934  0.071351  4.5e-05  3.997241  0.0
C  C47  1  0.59773534  0.68965178  0.69547050  1  -0.095179  0.000181  3.669114  0.0  -0.130685  0.000406  3.919071  0.0  -0.127976  0.000605  3.934145  0.0  -0.073842  -0.132177  -0.000162  3.908471  0.0
C  C48  1  0.40222954  0.31032782  0.30450919  1  -0.094746  0.000178  3.669102  0.0  -0.130315  0.000407  3.91899  0.0  -0.127608  0.000602  3.93405  0.0  -0.07379  -0.131816  -0.000162  3.908405  0.0
N  N49  1  0.36655144  0.06995970  0.82976625  1  -0.288575  -0.08157  3.322712  -0.103  -0.24016  -0.058328  3.621607  -0.079  -0.271866  -0.047388  3.648184  -0.07  -0.335344  -0.221119  -0.064536  3.605684  -0.083
N  N50  1  0.63346514  0.93005261  0.17024059  1  -0.288579  -0.081551  3.322946  -0.103  -0.240174  -0.058322  3.621849  -0.079  -0.271878  -0.047384  3.648433  -0.07  -0.335322  -0.221133  -0.064529  3.605929  -0.083
N  N51  1  0.17414652  0.32843559  0.78573250  1  -0.504541  -0.001468  3.332207  -0.002  -0.44631  -0.000723  3.570663  -0.001  -0.470101  -0.000628  3.579894  -0.001  -0.410749  -0.429753  -0.000799  3.564039  -0.001
N  N52  1  0.82586570  0.67157334  0.21427646  1  -0.504645  -0.001463  3.332073  -0.002  -0.4464  -0.000723  3.570587  -0.001  -0.470172  -0.000629  3.579783  -0.001  -0.410856  -0.429846  -0.0008  3.563967  -0.001
N  N53  1  0.13213065  0.49884497  0.92101734  1  -0.486169  -0.000144  3.290715  0.0  -0.427549  5.9e-05  3.546465  0.0  -0.449994  7.3e-05  3.555579  0.0  -0.439004  -0.411851  3.9e-05  3.539743  0.0
N  N54  1  0.86789525  0.50116846  0.07900291  1  -0.486254  -0.000147  3.290785  0.0  -0.427527  6.1e-05  3.546455  0.0  -0.449975  7.2e-05  3.555572  0.0  -0.439013  -0.411827  3.9e-05  3.53973  0.0
O  O55  1  0.12676676  0.26550551  0.96501393  1  -0.597407  -0.000218  1.888947  0.0  -0.552341  -9.4e-05  2.105887  0.0  -0.573843  -6.8e-05  2.09822  0.0  -0.312687  -0.537357  -0.000182  2.110514  0.0
O  O56  1  0.87322514  0.73447909  0.03498287  1  -0.597113  -0.000217  1.889663  0.0  -0.552095  -9.5e-05  2.106651  0.0  -0.573595  -6.7e-05  2.098981  0.0  -0.312568  -0.537114  -0.000182  2.111278  0.0
O  O57  1  0.56804829  0.91834782  0.87750703  1  -0.578454  -0.094398  2.074114  -0.126  -0.545216  -0.060397  2.353808  -0.088  -0.588097  -0.046721  2.345524  -0.073  -0.32038  -0.517044  -0.068709  2.359763  -0.095
O  O58  1  0.43193305  0.08164074  0.12248318  1  -0.578508  -0.094368  2.074419  -0.126  -0.545251  -0.060384  2.354039  -0.088  -0.588127  -0.046711  2.345754  -0.073  -0.320413  -0.517081  -0.068694  2.36  -0.095
O  O59  1  0.23596909  0.63142019  0.72992551  1  -0.628745  0.001151  1.996966  -0.001  -0.583337  0.001471  2.239111  0.0  -0.608343  0.002429  2.22703  0.001  -0.311462  -0.565836  0.00057  2.246841  -0.001
O  O60  1  0.76400210  0.36857523  0.27005144  1  -0.628623  0.001153  1.996565  -0.001  -0.583323  0.00147  2.238772  0.0  -0.608348  0.002428  2.226734  0.001  -0.311491  -0.565822  0.000568  2.246497  -0.001
