# generated using pymatgen
data_Zn4H32C81S2(N7O19)2
_symmetry_space_group_name_H-M   'P 1'
_cell_length_a   16.51293178
_cell_length_b   17.87011931
_cell_length_c   30.59408849
_cell_angle_alpha   90.33061047
_cell_angle_beta   89.97324015
_cell_angle_gamma   89.87249153
_symmetry_Int_Tables_number   1
_chemical_formula_structural   Zn4H32C81S2(N7O19)2
_chemical_formula_sum   'Zn4 H32 C81 S2 N14 O38'
_cell_volume   9027.77656312
_cell_formula_units_Z   1
loop_
 _symmetry_equiv_pos_site_id
 _symmetry_equiv_pos_as_xyz
  1  'x, y, z'
loop_
 _atom_site_type_symbol
 _atom_site_label
 _atom_site_symmetry_multiplicity
 _atom_site_fract_x
 _atom_site_fract_y
 _atom_site_fract_z
 _atom_site_occupancy
 _atom_site_pbe_bader_charge
 _atom_site_pbe_bader_spin_density
 _atom_site_pbe_cm5_charge
 _atom_site_pbe_ddec_charge
 _atom_site_pbe_ddec_spin_density
 _atom_site_pbe_ddec_sum_bond_order
 _atom_site_pbe_magmom
Zn  Zn0  1  0.58418101  0.50237356  0.50095887  1  1.265058  0  0.667517  0.815372  0  2.427443  0
Zn  Zn1  1  0.41528526  0.49899157  0.50135052  1  1.288527  0  0.67544  0.819945  0  2.432505  0
Zn  Zn2  1  0.41643290  0.50353550  0.91797634  1  1.265979  0  0.667273  0.814473  0  2.440801  0
Zn  Zn3  1  0.58471581  0.49927467  0.91618161  1  1.280828  0  0.668367  0.813237  0  2.449041  0
H  H4  1  0.28275433  0.56441922  0.55598595  1  0.165791  0  0.13921  0.117552  0  0.960548  0
H  H5  1  0.13039484  0.56483361  0.55641317  1  0.147507  0  0.135244  0.152525  0  0.949287  0
H  H6  1  0.28974320  0.42108519  0.44875135  1  0.197022  0  0.142266  0.128114  0  0.9787  0
H  H7  1  0.71012368  0.59104068  0.54811182  1  0.153437  0  0.141488  0.127068  0  0.974128  0
H  H8  1  0.71731088  0.41866505  0.45669440  1  0.163896  0  0.141022  0.11891  0  0.951293  0
H  H9  1  0.86991361  0.41559855  0.45793836  1  0.116683  0  0.135734  0.154537  0  0.949622  0
H  H10  1  0.62483992  0.74363870  0.50365620  1  0.115122  0  0.113552  0.119002  0  0.984013  0
H  H11  1  0.61827071  0.88359346  0.50411550  1  0.129813  0  0.120079  0.132901  0  0.967086  0
H  H12  1  0.36508782  0.73450478  0.49576950  1  0.153432  0  0.118273  0.134818  0  1.000596  0
H  H13  1  0.63898180  0.26363202  0.49945084  1  0.11546  0  0.117067  0.13164  0  1.005163  0
H  H14  1  0.37930335  0.26134512  0.50878700  1  0.110139  0  0.1153  0.121055  0  0.981542  0
H  H15  1  0.38141291  0.12119366  0.50701584  1  0.086703  0  0.12067  0.13232  0  0.966125  0
H  H16  1  0.62740836  0.49672549  0.76682632  1  0.104964  0  0.118041  0.143343  0  0.974672  0
H  H17  1  0.37632884  0.50818019  0.05903111  1  0.076537  0  0.112231  0.116659  0  0.987044  0
H  H18  1  0.38187179  0.50917900  0.14088135  1  0.122198  0  0.119888  0.131894  0  0.967053  0
H  H19  1  0.63638737  0.49803654  0.05435288  1  0.148152  0  0.118318  0.134215  0  1.002203  0
H  H20  1  0.36360618  0.49173889  0.36359634  1  0.148255  0  0.119599  0.135531  0  0.999819  0
H  H21  1  0.62343555  0.50579488  0.36064095  1  0.119898  0  0.112881  0.117569  0  0.986169  0
H  H22  1  0.61957564  0.50890286  0.27876674  1  0.120156  0  0.119869  0.13177  0  0.966337  0
H  H23  1  0.71859059  0.57942407  0.87069046  1  0.146866  0  0.140827  0.11766  0  0.950767  0
H  H24  1  0.87121029  0.58135701  0.87232615  1  0.129058  0  0.13411  0.151557  0  0.952387  0
H  H25  1  0.70965670  0.41853563  0.96786719  1  0.204045  0  0.143727  0.130236  0  0.972107  0
H  H26  1  0.28983345  0.58894717  0.87035507  1  0.188518  0  0.142051  0.127296  0  0.97441  0
H  H27  1  0.28394048  0.42036381  0.96303177  1  0.140543  0  0.141671  0.118958  0  0.950388  0
H  H28  1  0.13128488  0.41980719  0.96364009  1  0.115464  0  0.135982  0.154563  0  0.948534  0
H  H29  1  0.37442086  0.74474038  0.91501180  1  0.107102  0  0.114086  0.119677  0  0.983382  0
H  H30  1  0.38045661  0.88481246  0.91574473  1  0.123229  0  0.120738  0.133117  0  0.96629  0
H  H31  1  0.63449549  0.73544699  0.91878179  1  0.166467  0  0.117435  0.13253  0  1.005707  0
H  H32  1  0.36337554  0.26697656  0.91948842  1  0.145928  0  0.117464  0.132114  0  1.004865  0
H  H33  1  0.62344054  0.25899689  0.91564246  1  0.093538  0  0.113807  0.118937  0  0.985508  0
H  H34  1  0.61833618  0.11882626  0.91658959  1  0.118391  0  0.120702  0.132867  0  0.966575  0
H  H35  1  0.33194734  0.58983908  0.68355001  1  0.602107  0  0.332174  0.368694  0  0.882615  0
C  C36  1  0.49848616  0.64628875  0.49925196  1  1.606722  0  0.215912  0.592879  0  4.170888  0
C  C37  1  0.49716740  0.50395437  0.58589743  1  1.636451  0  0.207608  0.599734  0  4.223392  0
C  C38  1  0.50789801  0.35524586  0.50373456  1  1.555544  0  0.216856  0.591837  0  4.17062  0
C  C39  1  0.49588277  0.49593877  0.41616734  1  1.539009  0  0.21689  0.593887  0  4.173125  0
C  C40  1  0.50111678  0.64760499  0.91672660  1  1.541139  0  0.216513  0.591415  0  4.173194  0
C  C41  1  0.50187164  0.50096669  0.83156685  1  1.566712  0  0.206777  0.599905  0  4.218514  0
C  C42  1  0.49638325  0.35539386  0.91723917  1  1.551804  0  0.217174  0.592957  0  4.171126  0
C  C43  1  0.50315310  0.50134937  0.00257029  1  1.534731  0  0.216355  0.593981  0  4.171744  0
C  C44  1  0.24798148  0.53255179  0.53205654  1  0.446969  0  0.083826  0.13216  0  3.871622  0
C  C45  1  0.16403341  0.53203608  0.53239351  1  0.101158  0  -0.045502  -0.134537  0  3.841704  0
C  C46  1  0.12151243  0.48851876  0.50140722  1  0.105325  0  0.041251  0.14063  0  4.060093  0
C  C47  1  0.16886311  0.44704236  0.47134793  1  0.228974  0  0.09666  -0.012623  0  3.845981  0
C  C48  1  0.25285385  0.45160366  0.47244029  1  0.554965  0  0.080914  0.071779  0  3.876568  0
C  C49  1  0.03620552  0.49048447  0.50197272  1  0.224614  0  -0.006616  -0.042139  0  4.042385  0
C  C50  1  0.96379662  0.50062691  0.50710057  1  -0.43611  0  -0.012777  -0.056598  0  4.046377  0
C  C51  1  0.87858695  0.50334740  0.50679972  1  0.113401  0  0.040941  0.142979  0  4.064419  0
C  C52  1  0.83107135  0.55294919  0.53221192  1  0.249599  0  0.095733  -0.014059  0  3.853222  0
C  C53  1  0.74709933  0.55248445  0.52885259  1  0.606605  0  0.079913  0.070204  0  3.880298  0
C  C54  1  0.75221504  0.45641180  0.47750261  1  0.42683  0  0.07798  0.116818  0  3.887748  0
C  C55  1  0.83609411  0.45454942  0.47852669  1  0.094484  0  -0.049316  -0.141585  0  3.853497  0
C  C56  1  0.49545289  0.73015509  0.49978118  1  -0.046121  0  -0.008731  -0.017588  0  3.951133  0
C  C57  1  0.56677466  0.77259657  0.50226043  1  -0.058168  0  -0.067315  -0.06941  0  3.955168  0
C  C58  1  0.56324809  0.85011843  0.50273038  1  0.002203  0  -0.065929  -0.106467  0  3.902037  0
C  C59  1  0.48819433  0.88863791  0.50171214  1  0.131377  0  0.019858  0.108421  0  4.072203  0
C  C60  1  0.41714790  0.84439982  0.49957459  1  0.218347  0  0.083331  0.022261  0  3.868574  0
C  C61  1  0.42074383  0.76669686  0.49805908  1  -0.043442  0  -0.067147  -0.123132  0  3.941811  0
C  C62  1  0.49042385  0.96744348  0.50229984  1  0.086509  0  -0.028331  -0.069544  0  4.088337  0
C  C63  1  0.50700255  0.03403769  0.50280868  1  -0.315467  0  -0.027805  -0.06889  0  4.087935  0
C  C64  1  0.51122004  0.11274862  0.50356622  1  0.122578  0  0.020179  0.107774  0  4.073388  0
C  C65  1  0.58358188  0.15517213  0.50157449  1  0.159536  0  0.083659  0.028241  0  3.869952  0
C  C66  1  0.58233934  0.23294670  0.50142504  1  0.123478  0  -0.068269  -0.125051  0  3.944135  0
C  C67  1  0.50882773  0.27136593  0.50405247  1  0.05386  0  -0.007673  -0.013757  0  3.946674  0
C  C68  1  0.43629905  0.23076969  0.50649384  1  -0.092613  0  -0.064936  -0.067278  0  3.951026  0
C  C69  1  0.43744235  0.15319159  0.50580259  1  0.062088  0  -0.065603  -0.106159  0  3.904252  0
C  C70  1  0.42873371  0.49960970  0.66208942  1  -0.010339  0  -0.024923  -0.118391  0  4.026833  0
C  C71  1  0.56522350  0.49771201  0.75521667  1  0.054551  0  -0.092632  -0.14014  0  3.978245  0
C  C72  1  0.49513649  0.49877701  0.63410142  1  -0.127196  0  -0.011913  -0.111338  0  3.922753  0
C  C73  1  0.49985890  0.49934607  0.78335625  1  -0.14404  0  -0.023029  -0.101187  0  3.967084  0
C  C74  1  0.53956082  0.49754311  0.71120825  1  -0.175996  0  -0.024089  -0.003438  0  4.082069  0
C  C75  1  0.45456971  0.49930551  0.70643333  1  -0.168033  0  -0.027312  -0.05823  0  4.082172  0
C  C76  1  0.50582256  0.50280485  0.05149737  1  0.066009  0  -0.009712  -0.018482  0  3.956225  0
C  C77  1  0.43415270  0.50632506  0.07612949  1  -0.015023  0  -0.068388  -0.072197  0  3.962903  0
C  C78  1  0.43711456  0.50735064  0.12140112  1  -0.016244  0  -0.066568  -0.105547  0  3.903862  0
C  C79  1  0.51197133  0.50634145  0.14400039  1  0.166142  0  0.020876  0.109217  0  4.076836  0
C  C80  1  0.58337181  0.50354303  0.11832920  1  0.214566  0  0.084087  0.027646  0  3.872079  0
C  C81  1  0.58035409  0.50097397  0.07295800  1  -0.02533  0  -0.066979  -0.122708  0  3.941592  0
C  C82  1  0.50941079  0.50662988  0.18997939  1  0.08597  0  -0.028393  -0.070766  0  4.091223  0
C  C83  1  0.49290002  0.50614698  0.22889267  1  -0.320923  0  -0.026464  -0.065746  0  4.088215  0
C  C84  1  0.48958232  0.50461555  0.27485158  1  0.138622  0  0.020398  0.108197  0  4.076129  0
C  C85  1  0.41773220  0.50019030  0.30003731  1  0.203489  0  0.084557  0.023462  0  3.868434  0
C  C86  1  0.41991384  0.49605027  0.34535857  1  0.002745  0  -0.065545  -0.121701  0  3.937703  0
C  C87  1  0.49400851  0.49827572  0.36725102  1  0.061037  0  -0.007237  -0.014636  0  3.950243  0
C  C88  1  0.56605342  0.50359930  0.34313005  1  -0.076009  0  -0.068239  -0.071637  0  3.960239  0
C  C89  1  0.56397357  0.50585292  0.29786598  1  -0.000242  0  -0.065875  -0.106136  0  3.905218  0
C  C90  1  0.75308945  0.54354427  0.89263252  1  0.476912  0  0.078559  0.117627  0  3.890357  0
C  C91  1  0.83698661  0.54426539  0.89353140  1  0.029981  0  -0.049461  -0.141784  0  3.85683  0
C  C92  1  0.87899423  0.49591062  0.92204950  1  0.117161  0  0.041087  0.141205  0  4.062127  0
C  C93  1  0.83107903  0.45017358  0.94918351  1  0.279006  0  0.096927  -0.010666  0  3.843205  0
C  C94  1  0.74704735  0.45323343  0.94678432  1  0.534178  0  0.082204  0.072439  0  3.872577  0
C  C95  1  0.96428630  0.49691821  0.92157535  1  -0.423995  0  -0.007954  -0.045704  0  4.043012  0
C  C96  1  0.03666407  0.50565069  0.91572122  1  0.209595  0  -0.011171  -0.053058  0  4.042954  0
C  C97  1  0.12191983  0.50640011  0.91466944  1  0.117107  0  0.041387  0.143235  0  4.062134  0
C  C98  1  0.16901626  0.55405700  0.88824568  1  0.246549  0  0.096511  -0.012621  0  3.849079  0
C  C99  1  0.25308718  0.55196156  0.89040576  1  0.538704  0  0.081267  0.072144  0  3.876495  0
C  C100  1  0.24875266  0.45790676  0.94239466  1  0.405579  0  0.07954  0.118226  0  3.885782  0
C  C101  1  0.16481243  0.45751883  0.94247279  1  0.126318  0  -0.048032  -0.140638  0  3.851758  0
C  C102  1  0.50400605  0.73134834  0.91673360  1  0.118813  0  -0.008716  -0.01682  0  3.954384  0
C  C103  1  0.43236368  0.77374303  0.91582704  1  -0.060987  0  -0.065988  -0.068492  0  3.954437  0
C  C104  1  0.43558855  0.85121170  0.91610547  1  -0.00245  0  -0.065576  -0.105903  0  3.902574  0
C  C105  1  0.51057267  0.88954344  0.91675791  1  0.117749  0  0.020943  0.109978  0  4.07497  0
C  C106  1  0.58194306  0.84539202  0.91741017  1  0.235951  0  0.083063  0.023431  0  3.870538  0
C  C107  1  0.57865540  0.76771439  0.91776006  1  -0.087474  0  -0.067924  -0.123791  0  3.946428  0
C  C108  1  0.50800464  0.96823749  0.91719361  1  -0.369249  0  -0.027074  -0.067561  0  4.092144  0
C  C109  1  0.49109828  0.03478969  0.91745647  1  0.12165  0  -0.027723  -0.06986  0  4.092777  0
C  C110  1  0.48825093  0.11347269  0.91743573  1  0.165745  0  0.020923  0.109107  0  4.074971  0
C  C111  1  0.41664092  0.15728730  0.91836009  1  0.204551  0  0.0839  0.027928  0  3.872338  0
C  C112  1  0.41941731  0.23497957  0.91863885  1  -0.016527  0  -0.067521  -0.124137  0  3.944951  0
C  C113  1  0.49385949  0.27167350  0.91745717  1  0.064115  0  -0.007976  -0.014852  0  3.952218  0
C  C114  1  0.56573923  0.22963434  0.91655116  1  -0.012987  0  -0.067149  -0.070475  0  3.958323  0
C  C115  1  0.56301261  0.15215831  0.91688946  1  -0.02712  0  -0.06499  -0.104652  0  3.90353  0
C  C116  1  0.34175083  0.49980578  0.64841102  1  1.54042  0  0.23273  0.601819  0  4.108236  0
S  S117  1  0.58722622  0.49624289  0.66119140  1  0.287825  0  0.09197  0.138004  0  2.759317  0
S  S118  1  0.40677259  0.49951100  0.75668243  1  0.247799  0  0.072023  0.106047  0  2.774146  0
N  N119  1  0.29133648  0.49366171  0.50225553  1  -1.232268  0  -0.306461  -0.176198  0  3.496182  0
N  N120  1  0.70869197  0.50458005  0.50223824  1  -1.21192  0  -0.307823  -0.175573  0  3.500218  0
N  N121  1  0.70915478  0.49849286  0.91863656  1  -1.199582  0  -0.306852  -0.174298  0  3.500285  0
N  N122  1  0.29186281  0.50441602  0.91684948  1  -1.184539  0  -0.306647  -0.173231  0  3.497627  0
N  N123  1  0.13209453  0.39787407  0.43791559  1  0.412376  0  0.063964  0.518658  0  4.221955  0
N  N124  1  0.86788469  0.60661256  0.56304242  1  0.366577  0  0.062903  0.521165  0  4.222935  0
N  N125  1  0.33609997  0.87927392  0.49903008  1  0.377502  0  0.056795  0.519976  0  4.206583  0
N  N126  1  0.66350705  0.11834695  0.49924139  1  0.39445  0  0.057147  0.503224  0  4.230853  0
N  N127  1  0.66420947  0.50328335  0.13884897  1  0.385308  0  0.057368  0.507187  0  4.227934  0
N  N128  1  0.33731253  0.49983569  0.27902548  1  0.383221  0  0.057031  0.520719  0  4.205634  0
N  N129  1  0.86739504  0.39757112  0.98067809  1  0.386369  0  0.06528  0.519338  0  4.222608  0
N  N130  1  0.13174499  0.60739779  0.85764237  1  0.387045  0  0.063576  0.521803  0  4.218417  0
N  N131  1  0.66286989  0.88021650  0.91770181  1  0.40288  0  0.058133  0.513747  0  4.214074  0
N  N132  1  0.33599899  0.12201875  0.91923580  1  0.388247  0  0.057497  0.505307  0  4.228328  0
O  O133  1  0.56692381  0.61585198  0.50701957  1  -1.161387  0  -0.318177  -0.549399  0  2.315867  0
O  O134  1  0.43261763  0.61208610  0.49124379  1  -1.162916  0  -0.315958  -0.541384  0  2.308552  0
O  O135  1  0.43144544  0.52081408  0.56672924  1  -1.156354  0  -0.310191  -0.531783  0  2.340101  0
O  O136  1  0.56571073  0.49182862  0.56789752  1  -1.165155  0  -0.319909  -0.546746  0  2.309803  0
O  O137  1  0.44035494  0.38721815  0.51130934  1  -1.161458  0  -0.313229  -0.541728  0  2.311399  0
O  O138  1  0.57474318  0.38796220  0.49571104  1  -1.164853  0  -0.317533  -0.546189  0  2.318867  0
O  O139  1  0.56359959  0.50916069  0.43453605  1  -1.166345  0  -0.317008  -0.549808  0  2.312968  0
O  O140  1  0.42943022  0.48137576  0.43547756  1  -1.166196  0  -0.314903  -0.54328  0  2.324809  0
O  O141  1  0.43157750  0.61738995  0.91332125  1  -1.161765  0  -0.316051  -0.543977  0  2.31849  0
O  O142  1  0.56841787  0.61324045  0.92021517  1  -1.170633  0  -0.316047  -0.544794  0  2.323477  0
O  O143  1  0.57128699  0.50653146  0.84948873  1  -1.160608  0  -0.321139  -0.543392  0  2.29557  0
O  O144  1  0.43366574  0.49665595  0.85106280  1  -1.164917  0  -0.323079  -0.55068  0  2.315534  0
O  O145  1  0.56540024  0.38567709  0.91203298  1  -1.164912  0  -0.316291  -0.54465  0  2.315259  0
O  O146  1  0.42921626  0.38960310  0.92228242  1  -1.16546  0  -0.316759  -0.545945  0  2.327904  0
O  O147  1  0.43425392  0.51042948  0.98459725  1  -1.167777  0  -0.318258  -0.550154  0  2.311202  0
O  O148  1  0.57019162  0.49133360  0.98274768  1  -1.166744  0  -0.316121  -0.545784  0  2.329808  0
O  O149  1  0.05851151  0.38545751  0.44094568  1  -0.438349  0  -0.123898  -0.323369  0  1.900066  0
O  O150  1  0.17759044  0.37213371  0.40940734  1  -0.430707  0  -0.115581  -0.307374  0  1.861818  0
O  O151  1  0.93774014  0.59345330  0.57556077  1  -0.41895  0  -0.120938  -0.318641  0  1.895837  0
O  O152  1  0.82579960  0.66080761  0.57439222  1  -0.42051  0  -0.125251  -0.320403  0  1.852286  0
O  O153  1  0.33127059  0.94729517  0.50689410  1  -0.440319  0  -0.135664  -0.335702  0  1.909581  0
O  O154  1  0.27731242  0.83822114  0.49097184  1  -0.449612  0  -0.150565  -0.348232  0  1.860224  0
O  O155  1  0.66704845  0.05026557  0.50663961  1  -0.46643  0  -0.135394  -0.330112  0  1.919546  0
O  O156  1  0.72280766  0.15795523  0.49006686  1  -0.457321  0  -0.152218  -0.344157  0  1.867386  0
O  O157  1  0.66854561  0.51828521  0.17840583  1  -0.454219  0  -0.134936  -0.330928  0  1.915432  0
O  O158  1  0.72320518  0.48840286  0.11513663  1  -0.455298  0  -0.148361  -0.341172  0  1.871256  0
O  O159  1  0.33347222  0.51662148  0.23978393  1  -0.463175  0  -0.13691  -0.339222  0  1.909068  0
O  O160  1  0.27818936  0.48314542  0.30202049  1  -0.436452  0  -0.144813  -0.341322  0  1.864618  0
O  O161  1  0.94074444  0.38428889  0.97694653  1  -0.430382  0  -0.121567  -0.320502  0  1.899968  0
O  O162  1  0.82168253  0.37037058  0.00835713  1  -0.40562  0  -0.113522  -0.304755  0  1.859687  0
O  O163  1  0.06077225  0.59565917  0.84652005  1  -0.429816  0  -0.122061  -0.320758  0  1.892933  0
O  O164  1  0.17452690  0.65988014  0.84509184  1  -0.418435  0  -0.122773  -0.317657  0  1.853031  0
O  O165  1  0.66706046  0.94886673  0.91251131  1  -0.450473  0  -0.134794  -0.332036  0  1.913882  0
O  O166  1  0.72229246  0.83847545  0.92295622  1  -0.474954  0  -0.15185  -0.347257  0  1.863021  0
O  O167  1  0.33178257  0.05384285  0.91185075  1  -0.461831  0  -0.134124  -0.328711  0  1.917074  0
O  O168  1  0.27688382  0.16296003  0.92729710  1  -0.456884  0  -0.151504  -0.344255  0  1.866134  0
O  O169  1  0.29677831  0.55693240  0.66639011  1  -1.090154  0  -0.344621  -0.484814  0  2.173823  0
O  O170  1  0.30942331  0.45392652  0.62494632  1  -1.106877  0  -0.274797  -0.438869  0  2.057657  0
