# generated using pymatgen
data_AlH10(C3O)5
_symmetry_space_group_name_H-M   'P 1'
_cell_length_a   6.68420051
_cell_length_b   17.13795839
_cell_length_c   19.45201126
_cell_angle_alpha   108.75435251
_cell_angle_beta   89.99818411
_cell_angle_gamma   89.99760136
_symmetry_Int_Tables_number   1
_chemical_formula_structural   AlH10(C3O)5
_chemical_formula_sum   'Al4 H40 C60 O20'
_cell_volume   2109.98709647
_cell_formula_units_Z   4
loop_
 _symmetry_equiv_pos_site_id
 _symmetry_equiv_pos_as_xyz
  1  'x, y, z'
loop_
 _atom_site_type_symbol
 _atom_site_label
 _atom_site_symmetry_multiplicity
 _atom_site_fract_x
 _atom_site_fract_y
 _atom_site_fract_z
 _atom_site_occupancy
 _atom_site_pbe_bader_charge
 _atom_site_pbe_bader_spin_density
 _atom_site_pbe_cm5_charge
 _atom_site_pbe_ddec_charge
 _atom_site_pbe_ddec_spin_density
 _atom_site_pbe_ddec_sum_bond_order
 _atom_site_pbe_magmom
Al  Al0  1  0.89823706  0.49922627  0.50003916  1  2.502248  0  0.399115  1.643582  0  2.579741  0
Al  Al1  1  0.39822955  0.50077197  0.49995967  1  2.502277  0  0.398967  1.643461  0  2.579922  0
Al  Al2  1  0.37465359  0.00038903  0.00071392  1  2.501633  0  0.400925  1.644248  0  2.577666  0
Al  Al3  1  0.87465405  0.99960846  0.99928647  1  2.501788  0  0.401085  1.644236  0  2.577489  0
H  H4  1  0.42554327  0.65045590  0.72497538  1  0.059097  0  0.10657  0.106951  0  1.008769  0
H  H5  1  0.92552374  0.34952428  0.27500220  1  0.059645  0  0.106538  0.106688  0  1.008652  0
H  H6  1  0.41218290  0.76624247  0.84091571  1  0.098135  0  0.107319  0.108699  0  1.005389  0
H  H7  1  0.91213596  0.23373961  0.15905511  1  0.097505  0  0.107319  0.108689  0  1.005377  0
H  H8  1  0.64949468  0.80368509  0.79323852  1  0.072017  0  0.098576  0.073156  0  0.998504  0
H  H9  1  0.14945095  0.19636642  0.20681775  1  0.072025  0  0.098631  0.073443  0  0.99875  0
H  H10  1  0.77523105  0.77204644  0.63467158  1  0.044631  0  0.097516  0.11082  0  0.978519  0
H  H11  1  0.27527047  0.22795501  0.36535745  1  0.044099  0  0.097631  0.110876  0  0.978486  0
H  H12  1  0.41821627  0.68489450  0.40296469  1  0.087344  0  0.108032  0.115608  0  0.999317  0
H  H13  1  0.91818631  0.31508626  0.59702226  1  0.087358  0  0.108005  0.115647  0  0.999284  0
H  H14  1  0.83963889  0.81111466  0.09332029  1  0.072844  0  0.105224  0.110848  0  1.002563  0
H  H15  1  0.33958707  0.18888257  0.90667432  1  0.072578  0  0.105193  0.110829  0  1.00264  0
H  H16  1  0.68735960  0.70096958  0.13470007  1  0.06669  0  0.103561  0.106752  0  0.990069  0
H  H17  1  0.18726898  0.29900901  0.86528515  1  0.066441  0  0.103489  0.106687  0  0.989996  0
H  H18  1  0.69627302  0.61363281  0.21207154  1  0.040484  0  0.104185  0.106366  0  1.009579  0
H  H19  1  0.19614826  0.38632840  0.78789824  1  0.040047  0  0.104241  0.106436  0  1.009591  0
H  H20  1  0.57672453  0.87385791  0.27518429  1  0.073992  0  0.104489  0.110231  0  0.98821  0
H  H21  1  0.07670781  0.12613642  0.72480655  1  0.073895  0  0.10445  0.110115  0  0.988293  0
H  H22  1  0.41415334  0.91185486  0.17527141  1  0.066551  0  0.109083  0.115465  0  1.002721  0
H  H23  1  0.91415403  0.08814784  0.82472765  1  0.066477  0  0.109076  0.115447  0  1.00263  0
H  H24  1  0.81366836  0.92391126  0.71916131  1  0.003854  0  0.082849  0.109272  0  1.010552  0
H  H25  1  0.55914701  0.91252291  0.74182485  1  0.035881  0  0.088566  0.121632  0  0.995679  0
H  H26  1  0.73960267  0.95008108  0.81179865  1  0.075102  0  0.091537  0.130431  0  1.036911  0
H  H27  1  0.31365161  0.07609970  0.28084096  1  0.003654  0  0.082839  0.109157  0  1.010706  0
H  H28  1  0.05912181  0.08752392  0.25822026  1  0.035834  0  0.088531  0.121584  0  0.995317  0
H  H29  1  0.23951259  0.04994136  0.18820900  1  0.0757  0  0.091405  0.130298  0  1.036725  0
H  H30  1  0.65979679  0.69935479  0.67057298  1  0.052549  0  0.093735  0.105885  0  1.02702  0
H  H31  1  0.15984390  0.30067520  0.32947755  1  0.052117  0  0.093864  0.106  0  1.026625  0
H  H32  1  0.87888876  0.49762737  0.32310028  1  0.038171  0  0.095645  0.135569  0  1.035357  0
H  H33  1  0.69089072  0.57247070  0.33662587  1  0.080586  0  0.100135  0.148774  0  0.984817  0
H  H34  1  0.77774289  0.52020540  0.24736199  1  0.030856  0  0.08931  0.121676  0  1.013101  0
H  H35  1  0.37888362  0.50238346  0.67690659  1  0.0382  0  0.095554  0.135391  0  1.034949  0
H  H36  1  0.19088007  0.42752416  0.66336423  1  0.080736  0  0.100218  0.148873  0  0.984374  0
H  H37  1  0.27768816  0.47978780  0.75264257  1  0.030781  0  0.089252  0.121616  0  1.013085  0
H  H38  1  0.57893371  0.79035428  0.35803134  1  0.056842  0  0.105155  0.108643  0  0.985621  0
H  H39  1  0.07891202  0.20963161  0.64195399  1  0.056773  0  0.105195  0.108729  0  0.985529  0
H  H40  1  0.65139780  0.60737683  0.53985295  1  0.625404  0  0.351406  0.427254  0  0.863495  0
H  H41  1  0.15139272  0.39262744  0.46014344  1  0.625376  0  0.351463  0.42732  0  0.863478  0
H  H42  1  0.62428521  0.90036350  0.00517079  1  0.612941  0  0.354473  0.430928  0  0.851769  0
H  H43  1  0.12427743  0.09962550  0.99480278  1  0.612856  0  0.354416  0.430833  0  0.851863  0
C  C44  1  0.64697531  0.41849985  0.58155871  1  1.567922  0  0.265664  0.646902  0  4.087021  0
C  C45  1  0.14699291  0.58150006  0.41843666  1  1.568844  0  0.26575  0.646978  0  4.08741  0
C  C46  1  0.64712121  0.38960961  0.38490363  1  1.566606  0  0.271578  0.654041  0  4.092809  0
C  C47  1  0.14709536  0.61038718  0.61509281  1  1.56629  0  0.271584  0.653788  0  4.092834  0
C  C48  1  0.97548933  0.72972324  0.70577685  1  -0.036417  0  -0.00508  0.063462  0  3.914412  0
C  C49  1  0.47549538  0.27027689  0.29423610  1  -0.036326  0  -0.004966  0.063653  0  3.913948  0
C  C50  1  0.13960942  0.67713994  0.68603586  1  0.013034  0  -0.012111  -0.088189  0  3.986673  0
C  C51  1  0.63962854  0.32285841  0.31396779  1  0.01303  0  -0.012187  -0.088438  0  3.986688  0
C  C52  1  0.29674467  0.69163297  0.73705840  1  -0.030579  0  -0.083042  -0.102162  0  3.993103  0
C  C53  1  0.79671038  0.30836050  0.26292842  1  -0.031073  0  -0.082955  -0.101688  0  3.992528  0
C  C54  1  0.28936373  0.75665000  0.80226508  1  -0.04147  0  -0.083051  -0.103904  0  3.991531  0
C  C55  1  0.78931168  0.24333937  0.19771158  1  -0.04035  0  -0.083058  -0.10404  0  3.991584  0
C  C56  1  0.12532595  0.81130755  0.82076041  1  -0.056939  0  -0.009729  -0.073539  0  3.972971  0
C  C57  1  0.62525488  0.18870247  0.17922950  1  -0.057904  0  -0.009823  -0.073347  0  3.973009  0
C  C58  1  0.96737832  0.79447292  0.77132584  1  0.007527  0  -0.001403  0.018772  0  3.851027  0
C  C59  1  0.46733070  0.20553580  0.22868298  1  0.007022  0  -0.001331  0.018772  0  3.850824  0
C  C60  1  0.75666733  0.81954406  0.75706363  1  0.010648  0  -0.074706  0.054981  0  3.832128  0
C  C61  1  0.25663302  0.18048496  0.24295996  1  0.010933  0  -0.074892  0.054353  0  3.833108  0
C  C62  1  0.77166239  0.74871152  0.68115053  1  -0.040915  0  -0.154797  -0.250816  0  3.859275  0
C  C63  1  0.27168494  0.25129374  0.31888401  1  -0.040362  0  -0.155054  -0.250944  0  3.858751  0
C  C64  1  0.98313413  0.61197345  0.31158066  1  -0.010591  0  0.007421  0.121996  0  3.87646  0
C  C65  1  0.48309998  0.38801926  0.68841692  1  -0.010155  0  0.007432  0.122136  0  3.876471  0
C  C66  1  0.14147241  0.62412177  0.36226190  1  0.017857  0  -0.018015  -0.103247  0  3.962591  0
C  C67  1  0.64142193  0.37586951  0.63772705  1  0.017908  0  -0.018043  -0.103321  0  3.962168  0
C  C68  1  0.29726252  0.67929044  0.36401081  1  -0.042334  0  -0.083184  -0.148375  0  3.97489  0
C  C69  1  0.79722630  0.32069192  0.63597595  1  -0.042603  0  -0.083026  -0.148253  0  3.974896  0
C  C70  1  0.29888212  0.72754060  0.31808724  1  -0.040511  0  -0.012961  0.065128  0  4.066561  0
C  C71  1  0.79882923  0.27244151  0.68189894  1  -0.04031  0  -0.013001  0.064798  0  4.066751  0
C  C72  1  0.13685143  0.71901377  0.26822190  1  0.046808  0  0.001653  0.005589  0  3.92929  0
C  C73  1  0.63677479  0.28097276  0.73176333  1  0.046188  0  0.001679  0.005913  0  3.928969  0
C  C74  1  0.97991245  0.66095108  0.26493714  1  -0.019675  0  -0.010339  0.007044  0  3.980254  0
C  C75  1  0.47984070  0.33903841  0.73505616  1  -0.019158  0  -0.010412  0.0068  0  3.980663  0
C  C76  1  0.45596921  0.78513133  0.31988793  1  -0.005855  0  -0.087261  -0.123289  0  4.013555  0
C  C77  1  0.95594277  0.21484591  0.68009768  1  -0.006007  0  -0.087396  -0.123552  0  4.013738  0
C  C78  1  0.45462219  0.83130102  0.27434837  1  -0.089858  0  -0.092337  -0.138996  0  4.022115  0
C  C79  1  0.95458939  0.16868523  0.72563948  1  -0.089377  0  -0.092152  -0.138507  0  4.022102  0
C  C80  1  0.29432987  0.82442761  0.22372085  1  -0.038682  0  -0.008848  0.073479  0  4.046066  0
C  C81  1  0.79428690  0.17555287  0.77626704  1  -0.039165  0  -0.008957  0.073277  0  4.046264  0
C  C82  1  0.13354145  0.76849321  0.22179920  1  -0.053166  0  0.003684  0.001946  0  3.904658  0
C  C83  1  0.63349311  0.23148795  0.77818227  1  -0.052717  0  0.003629  0.001832  0  3.904724  0
C  C84  1  0.96969430  0.76256690  0.17306496  1  -0.031456  0  -0.009678  0.073938  0  4.053944  0
C  C85  1  0.46964654  0.23741895  0.82691932  1  -0.03145  0  -0.009498  0.074269  0  4.053897  0
C  C86  1  0.81379062  0.70470021  0.17114099  1  -0.010906  0  -0.090579  -0.132141  0  4.022948  0
C  C87  1  0.31372235  0.29528152  0.82884650  1  -0.011258  0  -0.09045  -0.132037  0  4.022191  0
C  C88  1  0.81970682  0.65582698  0.21438418  1  -0.029101  0  -0.090117  -0.123178  0  4.016034  0
C  C89  1  0.31963254  0.34415848  0.78559292  1  -0.028639  0  -0.090156  -0.123148  0  4.015807  0
C  C90  1  0.29047703  0.87060173  0.17587962  1  0.054994  0  -0.081694  -0.149463  0  3.939392  0
C  C91  1  0.79044548  0.12939151  0.82411275  1  0.055325  0  -0.081705  -0.149524  0  3.939559  0
C  C92  1  0.12671507  0.86614473  0.12981520  1  -0.059843  0  -0.020368  -0.046867  0  4.03478  0
C  C93  1  0.62668285  0.13385552  0.87018168  1  -0.060872  0  -0.020254  -0.046472  0  4.03466  0
C  C94  1  0.96636920  0.81352325  0.12924539  1  -0.035591  0  -0.08439  -0.150423  0  3.944438  0
C  C95  1  0.46632013  0.18646503  0.87074710  1  -0.034452  0  -0.084449  -0.150735  0  3.94464  0
C  C96  1  0.62463226  0.11769132  0.11065876  1  1.563114  0  0.264988  0.640664  0  4.108492  0
C  C97  1  0.12468290  0.88231054  0.88933763  1  1.561502  0  0.26502  0.640844  0  4.108764  0
C  C98  1  0.62485684  0.08247040  0.91913271  1  1.574575  0  0.268828  0.644175  0  4.093313  0
C  C99  1  0.12485328  0.91752716  0.08086149  1  1.574805  0  0.269009  0.64457  0  4.093292  0
C  C100  1  0.71535540  0.90662175  0.75722879  1  -0.06585  0  -0.244736  -0.388074  0  3.955946  0
C  C101  1  0.21531278  0.09341225  0.24279677  1  -0.065646  0  -0.244465  -0.387574  0  3.955644  0
C  C102  1  0.82478938  0.54723906  0.30409720  1  -0.064423  0  -0.241612  -0.415582  0  3.965378  0
C  C103  1  0.32477259  0.45274901  0.69590690  1  -0.064774  0  -0.241614  -0.415586  0  3.964841  0
O  O104  1  0.47891786  0.41537250  0.41417802  1  -1.260886  0  -0.229873  -0.586362  0  2.347806  0
O  O105  1  0.97893529  0.58461331  0.58583262  1  -1.261084  0  -0.2298  -0.586082  0  2.348171  0
O  O106  1  0.81831075  0.43349163  0.55964235  1  -1.254216  0  -0.240544  -0.598425  0  2.331066  0
O  O107  1  0.31836711  0.56649914  0.44034780  1  -1.254155  0  -0.24048  -0.598386  0  2.330644  0
O  O108  1  0.81837066  0.41528399  0.41179215  1  -1.262252  0  -0.235573  -0.600727  0  2.340886  0
O  O109  1  0.31840146  0.58472470  0.58819429  1  -1.261565  0  -0.235699  -0.60082  0  2.340448  0
O  O110  1  0.97940050  0.56596531  0.44217562  1  -1.256878  0  -0.23525  -0.587405  0  2.375412  0
O  O111  1  0.47932934  0.43404349  0.55782916  1  -1.255753  0  -0.235086  -0.587306  0  2.374617  0
O  O112  1  0.64862782  0.54995188  0.51001789  1  -1.429946  0  -0.449031  -0.991184  0  2.203899  0
O  O113  1  0.14861977  0.45005207  0.48997584  1  -1.429924  0  -0.449035  -0.991264  0  2.204042  0
O  O114  1  0.79446768  0.06029712  0.93648930  1  -1.265433  0  -0.236177  -0.600172  0  2.362726  0
O  O115  1  0.29449917  0.93968667  0.06349318  1  -1.265219  0  -0.236397  -0.600604  0  2.362503  0
O  O116  1  0.45371050  0.08926595  0.08582185  1  -1.254349  0  -0.233173  -0.584404  0  2.338938  0
O  O117  1  0.95380305  0.91072345  0.91419259  1  -1.254345  0  -0.23314  -0.584321  0  2.339809  0
O  O118  1  0.45541708  0.06450362  0.94027378  1  -1.261953  0  -0.236387  -0.596199  0  2.328157  0
O  O119  1  0.95543269  0.93552568  0.05975598  1  -1.262564  0  -0.236229  -0.596011  0  2.328495  0
O  O120  1  0.29415944  0.90864600  0.91742276  1  -1.253287  0  -0.237843  -0.591479  0  2.327132  0
O  O121  1  0.79406087  0.09136507  0.08255932  1  -1.254343  0  -0.237757  -0.59132  0  2.327898  0
O  O122  1  0.62448300  0.95114124  0.99341184  1  -1.417018  0  -0.447706  -0.990789  0  2.206808  0
O  O123  1  0.12446712  0.04886023  0.00658184  1  -1.41701  0  -0.447623  -0.990574  0  2.206593  0
