# generated using pymatgen
data_CuH3C5(SN)2
_symmetry_space_group_name_H-M   'P 1'
_cell_length_a   6.91649717
_cell_length_b   6.91564802
_cell_length_c   15.07433660
_cell_angle_alpha   89.41746495
_cell_angle_beta   90.47204931
_cell_angle_gamma   89.68768637
_symmetry_Int_Tables_number   1
_chemical_formula_structural   CuH3C5(SN)2
_chemical_formula_sum   'Cu4 H12 C20 S8 N8'
_cell_volume   720.96379096
_cell_formula_units_Z   4
loop_
 _symmetry_equiv_pos_site_id
 _symmetry_equiv_pos_as_xyz
  1  'x, y, z'
loop_
 _atom_site_type_symbol
 _atom_site_label
 _atom_site_symmetry_multiplicity
 _atom_site_fract_x
 _atom_site_fract_y
 _atom_site_fract_z
 _atom_site_occupancy
 _atom_site_hle17_bader_spin_density
 _atom_site_hle17_ddec_charge
 _atom_site_hle17_ddec_spin_density
 _atom_site_hle17_ddec_sum_bond_order
 _atom_site_hle17_magmom
 _atom_site_hse06_10hf_bader_spin_density
 _atom_site_hse06_10hf_ddec_charge
 _atom_site_hse06_10hf_ddec_spin_density
 _atom_site_hse06_10hf_ddec_sum_bond_order
 _atom_site_hse06_10hf_magmom
 _atom_site_hse06_bader_spin_density
 _atom_site_hse06_ddec_charge
 _atom_site_hse06_ddec_spin_density
 _atom_site_hse06_ddec_sum_bond_order
 _atom_site_hse06_magmom
 _atom_site_pbe_bader_spin_density
 _atom_site_pbe_cm5_charge
 _atom_site_pbe_ddec_charge
 _atom_site_pbe_ddec_spin_density
 _atom_site_pbe_ddec_sum_bond_order
 _atom_site_pbe_magmom
Cu  Cu0  1  0.50139899  0.50276612  0.49897299  1  0  0.38347  0  2.586548  0  0  0.342347  0  3.082446  0  0  0.358155  0  3.047921  0  0  0.447238  0.333305  0  3.108  0
Cu  Cu1  1  0.99720268  0.99863981  0.99900404  1  0  0.383637  0  2.586991  0  0  0.34261  0  3.082792  0  0  0.358415  0  3.048269  0  0  0.447423  0.333595  0  3.108348  0
Cu  Cu2  1  0.49963637  0.00034435  0.76547874  1  0  0.57254  0  1.891236  0  0  0.485538  0  2.281646  0  0  0.455765  0  2.261255  0  0  0.613697  0.500634  0  2.296122  0
Cu  Cu3  1  0.49795287  0.00172629  0.26544404  1  0  0.572517  0  1.89191  0  0  0.48534  0  2.282528  0  0  0.455586  0  2.261822  0  0  0.613751  0.500535  0  2.296776  0
H  H4  1  0.50400019  0.31496651  0.91493307  1  0  0.081235  0  0.97025  0  0  0.090308  0  1.035706  0  0  0.091514  0  1.035744  0  0  0.102937  0.089048  0  1.036041  0
H  H5  1  0.49006039  0.68248684  0.08288253  1  0  0.077476  0  0.969301  0  0  0.085861  0  1.035807  0  0  0.087481  0  1.035821  0  0  0.100916  0.085379  0  1.035541  0
H  H6  1  0.50470205  0.68040450  0.91430103  1  0  0.079321  0  0.974016  0  0  0.089317  0  1.038923  0  0  0.09061  0  1.038772  0  0  0.102076  0.088004  0  1.03937  0
H  H7  1  0.49033547  0.31400123  0.08559261  1  0  0.077123  0  0.976264  0  0  0.086002  0  1.04204  0  0  0.08757  0  1.041954  0  0  0.100386  0.085486  0  1.041906  0
H  H8  1  0.18860373  0.00922327  0.58575865  1  0  0.076623  0  0.975677  0  0  0.084941  0  1.042081  0  0  0.086586  0  1.041927  0  0  0.100024  0.084381  0  1.041976  0
H  H9  1  0.81712696  0.99582610  0.41426227  1  0  0.08005  0  0.973764  0  0  0.089422  0  1.039307  0  0  0.090724  0  1.039206  0  0  0.102123  0.08811  0  1.03973  0
H  H10  1  0.82017774  0.00930897  0.58286923  1  0  0.077209  0  0.970937  0  0  0.085929  0  1.03678  0  0  0.087549  0  1.036794  0  0  0.100985  0.08545  0  1.036499  0
H  H11  1  0.18250018  0.99644870  0.41498711  1  0  0.081695  0  0.969826  0  0  0.090411  0  1.035581  0  0  0.091691  0  1.035538  0  0  0.103321  0.089117  0  1.035968  0
H  H12  1  0.01020503  0.48615930  0.86142054  1  0  0.202041  0  0.939456  0  0  0.208219  0  0.990738  0  0  0.212913  0  0.987852  0  0  0.136907  0.204831  0  0.992901  0
H  H13  1  0.99307351  0.51067125  0.13937936  1  0  0.202619  0  0.939425  0  0  0.208552  0  0.99058  0  0  0.213157  0  0.987941  0  0  0.137278  0.205193  0  0.992666  0
H  H14  1  0.99683326  0.50983050  0.63943581  1  0  0.202635  0  0.938921  0  0  0.208662  0  0.989988  0  0  0.213264  0  0.987365  0  0  0.137448  0.205305  0  0.99206  0
H  H15  1  0.00524417  0.48792386  0.36139026  1  0  0.20226  0  0.939755  0  0  0.208571  0  0.990795  0  0  0.21323  0  0.98798  0  0  0.136996  0.205191  0  0.992937  0
C  C16  1  0.50352507  0.39890158  0.85347542  1  0  0.052353  0  3.739486  0  0  0.02091  0  3.998691  0  0  0.023555  0  4.016262  0  0  0.022048  0.01886  0  3.987777  0
C  C17  1  0.49343152  0.59931260  0.14458450  1  0  0.058645  0  3.74047  0  0  0.030954  0  3.997643  0  0  0.032447  0  4.016039  0  0  0.025857  0.029519  0  3.985025  0
C  C18  1  0.50394484  0.59855549  0.85309337  1  0  0.052895  0  3.73924  0  0  0.020686  0  3.997683  0  0  0.023331  0  4.015267  0  0  0.02127  0.018634  0  3.986742  0
C  C19  1  0.49338138  0.39900635  0.14594460  1  0  0.059114  0  3.739161  0  0  0.029878  0  3.996108  0  0  0.031851  0  4.014197  0  0  0.026126  0.028195  0  3.983725  0
C  C20  1  0.10322039  0.00563847  0.64606378  1  0  0.059842  0  3.738527  0  0  0.03152  0  3.994712  0  0  0.033375  0  4.012718  0  0  0.026093  0.029895  0  3.982344  0
C  C21  1  0.89939317  0.99706722  0.35306136  1  0  0.052103  0  3.739268  0  0  0.020194  0  3.998151  0  0  0.022697  0  4.015695  0  0  0.021615  0.018217  0  3.987283  0
C  C22  1  0.90291274  0.00550574  0.64461181  1  0  0.058433  0  3.742547  0  0  0.030047  0  3.999985  0  0  0.031506  0  4.018399  0  0  0.025734  0.028623  0  3.987303  0
C  C23  1  0.09899515  0.99750487  0.35351424  1  0  0.052724  0  3.738889  0  0  0.021482  0  3.998126  0  0  0.024065  0  4.015724  0  0  0.021635  0.019419  0  3.987214  0
C  C24  1  0.10290511  0.99913799  0.79898579  1  0  0.1675  0  3.804057  0  0  0.16732  0  4.063148  0  0  0.171853  0  4.080736  0  0  0.106248  0.164113  0  4.050818  0
C  C25  1  0.89386670  0.99903423  0.19980671  1  0  0.171324  0  3.75679  0  0  0.171176  0  4.016718  0  0  0.176343  0  4.034196  0  0  0.113125  0.166811  0  4.005934  0
C  C26  1  0.89819802  0.99875679  0.79732405  1  0  0.16377  0  3.80493  0  0  0.165246  0  4.063202  0  0  0.169611  0  4.081066  0  0  0.106016  0.162108  0  4.050645  0
C  C27  1  0.10110688  0.00012667  0.20035979  1  0  0.171894  0  3.757212  0  0  0.171561  0  4.017  0  0  0.176802  0  4.034581  0  0  0.112816  0.167097  0  4.006203  0
C  C28  1  0.50298473  0.60480992  0.69986090  1  0  0.172157  0  3.754164  0  0  0.171744  0  4.015216  0  0  0.177062  0  4.032617  0  0  0.113348  0.16725  0  4.00445  0
C  C29  1  0.49885455  0.39833743  0.29885978  1  0  0.166661  0  3.804936  0  0  0.167435  0  4.063467  0  0  0.17201  0  4.081108  0  0  0.106098  0.164206  0  4.051134  0
C  C30  1  0.50204594  0.39753483  0.70028703  1  0  0.172806  0  3.758894  0  0  0.171132  0  4.021117  0  0  0.176392  0  4.038527  0  0  0.113093  0.166737  0  4.010346  0
C  C31  1  0.49923093  0.60306114  0.29730817  1  0  0.165143  0  3.801272  0  0  0.165178  0  4.06168  0  0  0.169551  0  4.079588  0  0  0.106553  0.162048  0  4.049136  0
C  C32  1  0.00124560  0.50194894  0.71036160  1  0  -0.16666  0  3.568723  0  0  -0.175757  0  3.797509  0  0  -0.181219  0  3.824404  0  0  -0.131734  -0.172168  0  3.779824  0
C  C33  1  0.00144494  0.49524221  0.29042952  1  0  -0.168581  0  3.570304  0  0  -0.178405  0  3.798881  0  0  -0.183682  0  3.825716  0  0  -0.132893  -0.174583  0  3.781168  0
C  C34  1  0.00596291  0.49361907  0.79045468  1  0  -0.167329  0  3.569926  0  0  -0.176753  0  3.798174  0  0  -0.18201  0  3.824913  0  0  -0.132398  -0.172955  0  3.780499  0
C  C35  1  0.99725130  0.50286207  0.21031209  1  0  -0.165631  0  3.569183  0  0  -0.17448  0  3.797745  0  0  -0.179918  0  3.824616  0  0  -0.131138  -0.170879  0  3.780046  0
S  S36  1  0.22956302  0.99678099  0.89824370  1  0  -0.285073  0  2.413046  0  0  -0.286316  0  2.827403  0  0  -0.284674  0  2.8109  0  0  -0.175239  -0.286405  0  2.838611  0
S  S37  1  0.76822867  0.99903249  0.10047458  1  0  -0.258172  0  2.353958  0  0  -0.268114  0  2.761748  0  0  -0.267865  0  2.745342  0  0  -0.165721  -0.267048  0  2.772991  0
S  S38  1  0.76758934  0.99556936  0.89470247  1  0  -0.285511  0  2.439368  0  0  -0.287538  0  2.857581  0  0  -0.285602  0  2.841209  0  0  -0.174257  -0.287786  0  2.868693  0
S  S39  1  0.22617554  0.00293991  0.10197572  1  0  -0.257958  0  2.382494  0  0  -0.268089  0  2.794203  0  0  -0.267526  0  2.777418  0  0  -0.164067  -0.267231  0  2.805743  0
S  S40  1  0.49967969  0.27313447  0.60190386  1  0  -0.257831  0  2.382773  0  0  -0.266997  0  2.794413  0  0  -0.266445  0  2.777658  0  0  -0.163817  -0.266099  0  2.805887  0
S  S41  1  0.50236990  0.73303712  0.39475559  1  0  -0.285338  0  2.438622  0  0  -0.286724  0  2.856949  0  0  -0.284766  0  2.840516  0  0  -0.174012  -0.287006  0  2.868104  0
S  S42  1  0.50298986  0.73117452  0.60052791  1  0  -0.258756  0  2.352521  0  0  -0.268642  0  2.760992  0  0  -0.268386  0  2.744528  0  0  -0.165804  -0.267518  0  2.772255  0
S  S43  1  0.50097345  0.27102626  0.39805556  1  0  -0.285106  0  2.41511  0  0  -0.286542  0  2.829043  0  0  -0.284888  0  2.812499  0  0  -0.175176  -0.286657  0  2.840304  0
N  N44  1  0.50361801  0.70220680  0.77648041  1  0  -0.282131  0  3.317573  0  0  -0.21807  0  3.586937  0  0  -0.224219  0  3.596287  0  0  -0.33483  -0.214235  0  3.581269  0
N  N45  1  0.49640637  0.29919785  0.22319234  1  0  -0.294183  0  3.301295  0  0  -0.236274  0  3.571369  0  0  -0.241789  0  3.580715  0  0  -0.333533  -0.231215  0  3.56433  0
N  N46  1  0.50256016  0.29778014  0.77715657  1  0  -0.284675  0  3.323323  0  0  -0.220296  0  3.592673  0  0  -0.226563  0  3.602302  0  0  -0.336103  -0.216448  0  3.586889  0
N  N47  1  0.49679044  0.70079553  0.22036753  1  0  -0.293628  0  3.28213  0  0  -0.238082  0  3.551167  0  0  -0.243224  0  3.560872  0  0  -0.328748  -0.233125  0  3.543791  0
N  N48  1  0.80098509  0.00156411  0.72035066  1  0  -0.29272  0  3.284514  0  0  -0.237155  0  3.552398  0  0  -0.242199  0  3.562021  0  0  -0.327993  -0.232249  0  3.54514  0
N  N49  1  0.20051845  0.99911813  0.27723812  1  0  -0.284218  0  3.321651  0  0  -0.220007  0  3.590134  0  0  -0.226241  0  3.599682  0  0  -0.335868  -0.216076  0  3.584314  0
N  N50  1  0.20249553  0.00202681  0.72335351  1  0  -0.294205  0  3.302512  0  0  -0.236464  0  3.573082  0  0  -0.24181  0  3.582315  0  0  -0.333044  -0.231394  0  3.565941  0
N  N51  1  0.79612149  0.99793423  0.27641624  1  0  -0.282107  0  3.318085  0  0  -0.217786  0  3.5862  0  0  -0.223636  0  3.595284  0  0  -0.334804  -0.214218  0  3.580801  0
