# generated using pymatgen
data_Zn6H27C70I9(O4F)6
_symmetry_space_group_name_H-M   'P 1'
_cell_length_a   18.56940305
_cell_length_b   18.58604737
_cell_length_c   18.33707760
_cell_angle_alpha   108.50615891
_cell_angle_beta   108.72971285
_cell_angle_gamma   109.20757072
_symmetry_Int_Tables_number   1
_chemical_formula_structural   Zn6H27C70I9(O4F)6
_chemical_formula_sum   'Zn6 H27 C70 I9 O24 F6'
_cell_volume   4986.63620956
_cell_formula_units_Z   1
loop_
 _symmetry_equiv_pos_site_id
 _symmetry_equiv_pos_as_xyz
  1  'x, y, z'
loop_
 _atom_site_type_symbol
 _atom_site_label
 _atom_site_symmetry_multiplicity
 _atom_site_fract_x
 _atom_site_fract_y
 _atom_site_fract_z
 _atom_site_occupancy
 _atom_site_pbe_bader_charge
 _atom_site_pbe_bader_spin_density
 _atom_site_pbe_cm5_charge
 _atom_site_pbe_ddec_charge
 _atom_site_pbe_ddec_spin_density
 _atom_site_pbe_ddec_sum_bond_order
 _atom_site_pbe_magmom
Zn  Zn0  1  0.43471450  0.01453025  0.93538411  1  1.312389  0  0.729619  0.974061  0  2.081049  0
Zn  Zn1  1  0.56292505  0.00513095  0.04864621  1  1.314891  0  0.722899  0.970508  0  2.12474  0
Zn  Zn2  1  0.44352660  0.43113956  0.51531915  1  1.303701  0  0.722376  0.95245  0  2.100652  0
Zn  Zn3  1  0.56821778  0.55865785  0.51630220  1  1.311361  0  0.73254  0.968593  0  2.145042  0
Zn  Zn4  1  0.01299108  0.44516646  0.93924809  1  1.309085  0  0.726569  0.95315  0  2.140059  0
Zn  Zn5  1  0.00610772  0.55200872  0.07338868  1  1.309769  0  0.725431  0.961378  0  2.1284  0
H  H6  1  0.60086206  0.68765100  0.79524731  1  0.052031  0  0.094887  0.100552  0  0.981806  0
H  H7  1  0.62086227  0.91395804  0.83652243  1  0.035226  0  0.099015  0.110864  0  0.956247  0
H  H8  1  0.64471941  0.80719431  0.75377047  1  0.028557  0  0.097683  0.107476  0  0.958426  0
H  H9  1  0.23931464  0.93685345  0.96396611  1  0.104962  0  0.100731  0.125477  0  1.036059  0
H  H10  1  0.98911797  0.79317127  0.93858842  1  0.079798  0  0.094503  0.102365  0  1.025726  0
H  H11  1  0.02866061  0.68494033  0.95979096  1  0.1009  0  0.097958  0.106097  0  1.034721  0
H  H12  1  0.63416597  0.26049829  0.12998383  1  0.090647  0  0.112779  0.144751  0  1.007699  0
H  H13  1  0.46272552  0.24608441  0.34965123  1  0.133502  0  0.111217  0.131426  0  0.998976  0
H  H14  1  0.71627261  0.25255425  0.07103384  1  0.099445  0  0.103811  0.105863  0  1.018036  0
H  H15  1  0.68978017  0.09127237  0.64488561  1  0.106277  0  0.108028  0.11752  0  0.980423  0
H  H16  1  0.80347952  0.22415583  0.78184233  1  0.149524  0  0.105525  0.125499  0  1.028341  0
H  H17  1  0.37839437  0.61875354  0.63996134  1  0.157255  0  0.096538  0.113271  0  1.006498  0
H  H18  1  0.84270574  0.35477440  0.07340754  1  0.119743  0  0.112186  0.123752  0  0.989461  0
H  H19  1  0.43459011  0.46042879  0.28858105  1  0.082195  0  0.103385  0.116212  0  1.016398  0
H  H20  1  0.46394880  0.47996480  0.17204777  1  0.083854  0  0.114562  0.134553  0  0.974381  0
H  H21  1  0.24039146  0.51347533  0.07708674  1  0.119556  0  0.109146  0.147911  0  1.012533  0
H  H22  1  0.11796700  0.48532404  0.27028863  1  0.117408  0  0.119977  0.148793  0  0.969744  0
H  H23  1  0.71494415  0.43406930  0.64090917  1  0.102323  0  0.113617  0.119831  0  0.974511  0
H  H24  1  0.54725660  0.51571466  0.76405773  1  0.080375  0  0.107299  0.117368  0  1.011211  0
H  H25  1  0.57517505  0.60581831  0.91392157  1  0.064981  0  0.110304  0.11317  0  0.973271  0
H  H26  1  0.72677031  0.69142182  0.03513239  1  0.081741  0  0.103224  0.111639  0  0.995384  0
H  H27  1  0.83923574  0.45612729  0.76805063  1  0.105008  0  0.113067  0.123497  0  0.992059  0
H  H28  1  0.52563379  0.88492727  0.74493075  1  0.066716  0  0.074848  0.082708  0  1.067153  0
H  H29  1  0.56953558  0.80295682  0.66208582  1  0.044558  0  0.081505  0.087479  0  1.032327  0
H  H30  1  0.61349461  0.81037502  0.89839297  1  0.03896  0  0.099868  0.114443  0  0.962487  0
H  H31  1  0.51504027  0.73870113  0.88602167  1  0.035538  0  0.077113  0.079887  0  1.045304  0
H  H32  1  0.48929707  0.62593135  0.75984460  1  0.039688  0  0.087869  0.091838  0  1.005852  0
C  C33  1  0.36625383  0.90113963  0.98649875  1  1.552381  0  0.218142  0.607714  0  4.125513  0
C  C34  1  0.51572168  0.70224126  0.69445390  1  0.038718  0  -0.022195  0.019739  0  3.811086  0
C  C35  1  0.57786567  0.79510085  0.72058671  1  0.003515  0  -0.16907  -0.179923  0  3.871907  0
C  C36  1  0.53912223  0.68913176  0.77645153  1  -0.045218  0  -0.165037  -0.18465  0  3.878241  0
C  C37  1  0.19393793  0.88135793  0.96276130  1  0.050736  0  -0.10207  -0.173269  0  3.954915  0
C  C38  1  0.11338469  0.87149966  0.95060586  1  -0.255249  0  -0.048709  0.076871  0  3.935808  0
C  C39  1  0.05242259  0.79988535  0.94810772  1  0.018923  0  -0.098133  -0.114572  0  4.016015  0
C  C40  1  0.07483047  0.73925466  0.95980854  1  -0.050649  0  -0.09058  -0.110466  0  3.956781  0
C  C41  1  0.15749770  0.74730481  0.97396516  1  -0.001618  0  0.000823  0.075055  0  3.960848  0
C  C42  1  0.21841464  0.81904709  0.97385795  1  0.014516  0  0.002117  0.075853  0  3.923334  0
C  C43  1  0.30291542  0.82823929  0.98914680  1  0.010808  0  -0.014595  -0.089837  0  3.890321  0
C  C44  1  0.50959458  0.88340481  0.89196150  1  1.544348  0  0.219571  0.599035  0  4.066677  0
C  C45  1  0.32567559  0.76882808  0.00751597  1  -0.166322  0  -0.051268  -0.068159  0  3.89702  0
C  C46  1  0.26317409  0.69766939  0.00429790  1  0.501622  0  0.092038  0.227  0  4.067309  0
C  C47  1  0.18134487  0.68565878  0.98813130  1  0.055045  0  -0.012716  -0.156108  0  3.934855  0
C  C48  1  0.64919467  0.31229404  0.19053102  1  0.018927  0  -0.106713  -0.274064  0  3.976417  0
C  C49  1  0.70900368  0.39535472  0.21917714  1  0.485702  0  0.092975  0.288341  0  4.107792  0
C  C50  1  0.73466772  0.46380268  0.29987681  1  -0.141682  0  -0.076388  -0.189319  0  3.988474  0
C  C51  1  0.69269365  0.44619127  0.34741857  1  0.513766  0  0.101413  0.242917  0  4.02513  0
C  C52  1  0.62067050  0.36444475  0.31526334  1  0.037369  0  -0.007179  -0.050075  0  3.932817  0
C  C53  1  0.60573966  0.29469799  0.23877683  1  0.068031  0  0.006598  0.111096  0  3.962956  0
C  C54  1  0.54773562  0.20739170  0.21192496  1  0.024782  0  -0.004461  -0.075655  0  3.88935  0
C  C55  1  0.58346656  0.10974925  0.94504858  1  1.567926  0  0.222373  0.607749  0  4.139096  0
C  C56  1  0.50066440  0.19049074  0.25509473  1  -0.210589  0  -0.044356  0.031765  0  3.934698  0
C  C57  1  0.50597664  0.25901447  0.32163684  1  0.014555  0  -0.082211  -0.115251  0  3.966141  0
C  C58  1  0.56334396  0.34480842  0.35179133  1  0.016369  0  -0.011966  -0.051663  0  3.904064  0
C  C59  1  0.59785289  0.07232875  0.77482914  1  0.471364  0  0.090769  0.202683  0  4.037321  0
C  C60  1  0.60715284  0.05129544  0.70045203  1  -0.143646  0  -0.066568  -0.064965  0  3.985886  0
C  C61  1  0.68214338  0.10760775  0.70348983  1  -0.01218  0  -0.09251  -0.086399  0  4.035386  0
C  C62  1  0.74549024  0.18184961  0.77987899  1  -0.102789  0  -0.095913  -0.141419  0  3.979307  0
C  C63  1  0.73822752  0.20416124  0.85783684  1  0.055936  0  0.006468  0.084145  0  3.946001  0
C  C64  1  0.66107220  0.14766731  0.85554084  1  0.01882  0  -0.004648  -0.04276  0  3.952367  0
C  C65  1  0.65365334  0.16660375  0.93375282  1  -0.015179  0  0.00065  -0.02617  0  3.89747  0
C  C66  1  0.53813036  0.13492361  0.13609671  1  1.57853  0  0.216581  0.609459  0  4.178989  0
C  C67  1  0.72008015  0.23964765  0.01064222  1  -0.010316  0  -0.083551  -0.097983  0  3.997359  0
C  C68  1  0.79268796  0.29662314  0.01266081  1  -0.021499  0  -0.075509  -0.070032  0  3.974977  0
C  C69  1  0.80365924  0.28009854  0.93872163  1  -0.057543  0  -0.009371  -0.079264  0  3.90765  0
C  C70  1  0.36641332  0.46346739  0.39142870  1  1.581395  0  0.222817  0.626991  0  4.136343  0
C  C71  1  0.51989501  0.63319068  0.62614421  1  1.537934  0  0.216671  0.586682  0  4.106927  0
C  C72  1  0.59234106  0.47564378  0.64345059  1  1.576017  0  0.22756  0.61428  0  4.132527  0
C  C73  1  0.54986240  0.40928574  0.41223465  1  1.542079  0  0.218869  0.597162  0  4.138716  0
C  C74  1  0.12380813  0.50304063  0.13429485  1  1.547443  0  0.228904  0.618947  0  4.107179  0
C  C75  1  0.12098105  0.60990140  0.98992326  1  1.588865  0  0.227431  0.63809  0  4.123275  0
C  C76  1  0.88874679  0.53066130  0.93042099  1  1.512891  0  0.211174  0.589785  0  4.142391  0
C  C77  1  0.41188244  0.74749834  0.73492223  1  -0.234387  0  -0.026612  0.082905  0  3.350935  0
C  C78  1  0.88540642  0.34739397  0.95238539  1  1.536509  0  0.222142  0.606073  0  4.112104  0
C  C79  1  0.39122887  0.47157217  0.24286224  1  0.007055  0  -0.087674  -0.095876  0  3.967818  0
C  C80  1  0.40853279  0.48290048  0.17851939  1  -0.007373  0  -0.095433  -0.197865  0  4.022509  0
C  C81  1  0.35329422  0.49909060  0.12077762  1  0.379672  0  0.094932  0.297886  0  4.100152  0
C  C82  1  0.28157493  0.50201341  0.12429729  1  0.088583  0  -0.104382  -0.262069  0  3.955033  0
C  C83  1  0.26173319  0.48906089  0.18923615  1  0.015165  0  0.001848  0.076641  0  3.951173  0
C  C84  1  0.31894326  0.47551407  0.25141866  1  0.04954  0  0.000399  0.069516  0  3.941402  0
C  C85  1  0.30137515  0.46487536  0.31915099  1  0.000909  0  -0.018828  -0.184697  0  3.928624  0
C  C86  1  0.22797257  0.46594587  0.32145673  1  0.494452  0  0.100167  0.270432  0  4.085828  0
C  C87  1  0.17291762  0.48172692  0.26327528  1  -0.001065  0  -0.087376  -0.210746  0  3.981251  0
C  C88  1  0.42151788  0.68620114  0.66129399  1  -0.186213  0  -0.100739  -0.072145  0  3.6055  0
C  C89  1  0.18850523  0.49234906  0.19756162  1  -0.020813  0  -0.004409  -0.040739  0  3.918601  0
C  C90  1  0.61062463  0.54559073  0.82045228  1  0.005049  0  -0.088614  -0.135708  0  3.984721  0
C  C91  1  0.62647816  0.59631123  0.90301857  1  -0.092907  0  -0.086725  -0.062002  0  4.0208  0
C  C92  1  0.71174690  0.64227902  0.97267827  1  -0.005226  0  -0.095382  -0.118669  0  4.016375  0
C  C93  1  0.77778275  0.62961381  0.96155162  1  -0.203401  0  -0.042803  0.020208  0  3.842985  0
C  C94  1  0.76027646  0.56417986  0.88104292  1  0.058211  0  0.002662  0.038233  0  3.89473  0
C  C95  1  0.67672093  0.53064779  0.80730437  1  0.018692  0  0.004057  0.061707  0  3.938482  0
C  C96  1  0.66375066  0.48658292  0.72092085  1  -0.046333  0  0.003953  -0.03694  0  3.912216  0
C  C97  1  0.72431203  0.46513809  0.70700784  1  -0.009778  0  -0.083631  -0.106457  0  4.010407  0
C  C98  1  0.79621328  0.48141214  0.77837931  1  -0.046757  0  -0.073314  -0.063839  0  3.97123  0
C  C99  1  0.56003423  0.85881229  0.78034173  1  -0.034981  0  -0.164483  -0.177209  0  3.82561  0
C  C100  1  0.81578769  0.52990682  0.86424486  1  -0.008563  0  -0.01908  -0.088577  0  3.918704  0
C  C101  1  0.54566044  0.76290990  0.85054278  1  -0.006008  0  -0.17147  -0.184206  0  3.88995  0
C  C102  1  0.50392614  0.81255071  0.81531365  1  0.036969  0  -0.018794  -0.004367  0  3.756788  0
I  I103  1  0.33462665  0.80568984  0.68609169  1  0.112774  0  0.039249  -0.040076  0  1.599397  0
I  I104  1  0.44649447  0.77175977  0.04090174  1  0.198643  0  0.095662  0.03006  0  1.585666  0
I  I105  1  0.08021972  0.96597871  0.93656934  1  0.081914  0  0.031442  -0.067493  0  1.234475  0
I  I106  1  0.41461813  0.06330916  0.21903629  1  0.138326  0  0.092988  0.014022  0  1.367219  0
I  I107  1  0.33187610  0.66403281  0.77317853  1  0.033833  0  0.036038  -0.070612  0  1.42022  0
I  I108  1  0.83593056  0.58613954  0.34793837  1  0.203126  0  0.090662  0.031481  0  1.330966  0
I  I109  1  0.51317372  0.93500455  0.58715519  1  0.15401  0  0.079814  -0.017953  0  1.4824  0
I  I110  1  0.37846953  0.68334815  0.53280976  1  0.033833  0  0.043045  -0.041679  0  1.553291  0
I  I111  1  0.90370018  0.73074834  0.05943025  1  0.118091  0  0.069567  -0.03342  0  1.472129  0
O  O112  1  0.33734915  0.92682868  0.93134589  1  -1.128386  0  -0.304987  -0.513322  0  2.274389  0
O  O113  1  0.44459019  0.51966266  0.42360972  1  -1.179566  0  -0.306556  -0.578409  0  2.397865  0
O  O114  1  0.46881930  0.55486932  0.60055883  1  -1.173921  0  -0.312477  -0.569186  0  2.340513  0
O  O115  1  0.57719272  0.65873003  0.60201148  1  -1.126861  0  -0.310659  -0.513447  0  2.274799  0
O  O116  1  0.51278170  0.42224195  0.61503608  1  -1.130642  0  -0.309957  -0.518309  0  2.2198  0
O  O117  1  0.61911458  0.52291906  0.61102911  1  -1.162149  0  -0.304234  -0.560831  0  2.305032  0
O  O118  1  0.49802781  0.38062518  0.43996330  1  -1.164645  0  -0.312798  -0.567591  0  2.318888  0
O  O119  1  0.58749782  0.48877306  0.42911561  1  -1.117473  0  -0.31347  -0.524257  0  2.330699  0
O  O120  1  0.10277255  0.46392605  0.05397184  1  -1.169165  0  -0.304955  -0.558071  0  2.343049  0
O  O121  1  0.09226808  0.54969801  0.16577422  1  -1.124473  0  -0.31481  -0.526084  0  2.240016  0
O  O122  1  0.09865409  0.53457295  0.93236325  1  -1.114773  0  -0.310144  -0.517107  0  2.233304  0
O  O123  1  0.44579824  0.93335142  0.03887878  1  -1.178225  0  -0.314583  -0.585001  0  2.494029  0
O  O124  1  0.09740173  0.62684592  0.04814108  1  -1.156818  0  -0.304949  -0.560138  0  2.294554  0
O  O125  1  0.93017850  0.49656179  0.90251515  1  -1.185419  0  -0.318787  -0.586761  0  2.379532  0
O  O126  1  0.90568598  0.56182842  0.01118496  1  -1.127895  0  -0.313932  -0.525572  0  2.367004  0
O  O127  1  0.91467186  0.33284944  0.89698633  1  -1.126232  0  -0.309909  -0.523087  0  2.237802  0
O  O128  1  0.92433016  0.41912339  0.02160113  1  -1.183383  0  -0.313385  -0.577686  0  2.372527  0
O  O129  1  0.46156389  0.91713385  0.87625592  1  -1.178932  0  -0.30942  -0.56414  0  2.482791  0
O  O130  1  0.56776265  0.90864582  0.96949846  1  -1.133939  0  -0.315002  -0.5307  0  2.269267  0
O  O131  1  0.50499870  0.09462823  0.90670792  1  -1.113214  0  -0.310155  -0.516698  0  2.244171  0
O  O132  1  0.61170582  0.08466471  0.99972630  1  -1.171409  0  -0.312405  -0.56902  0  2.331787  0
O  O133  1  0.48009011  0.11130676  0.06101075  1  -1.168052  0  -0.305251  -0.555921  0  2.300146  0
O  O134  1  0.59015383  0.10429907  0.15426690  1  -1.124306  0  -0.30853  -0.516954  0  2.230084  0
O  O135  1  0.34105733  0.40795086  0.41763010  1  -1.117408  0  -0.312407  -0.515802  0  2.219774  0
F  F136  1  0.28540771  0.63967204  0.02077624  1  -0.635837  0  -0.09398  -0.124096  0  1.420214  0
F  F137  1  0.74778293  0.41214945  0.17079356  1  -0.637942  0  -0.094804  -0.13108  0  1.363384  0
F  F138  1  0.72670943  0.50894648  0.42960847  1  -0.627083  0  -0.09193  -0.111225  0  1.44122  0
F  F139  1  0.52597164  0.01780639  0.77179672  1  -0.64171  0  -0.084324  -0.113618  0  1.492813  0
F  F140  1  0.20852905  0.45543075  0.38390867  1  -0.627011  0  -0.102917  -0.141917  0  1.354306  0
F  F141  1  0.37214341  0.51170257  0.05837915  1  -0.631479  0  -0.115466  -0.163526  0  1.297623  0
