# generated using pymatgen
data_Cu3H14C15(BrN2)3
_symmetry_space_group_name_H-M   'P 1'
_cell_length_a   8.31916807
_cell_length_b   10.75104713
_cell_length_c   11.11011458
_cell_angle_alpha   81.16312308
_cell_angle_beta   85.96770207
_cell_angle_gamma   69.61779030
_symmetry_Int_Tables_number   1
_chemical_formula_structural   Cu3H14C15(BrN2)3
_chemical_formula_sum   'Cu6 H28 C30 Br6 N12'
_cell_volume   920.26304423
_cell_formula_units_Z   2
loop_
 _symmetry_equiv_pos_site_id
 _symmetry_equiv_pos_as_xyz
  1  'x, y, z'
loop_
 _atom_site_type_symbol
 _atom_site_label
 _atom_site_symmetry_multiplicity
 _atom_site_fract_x
 _atom_site_fract_y
 _atom_site_fract_z
 _atom_site_occupancy
 _atom_site_hle17_bader_spin_density
 _atom_site_hle17_ddec_charge
 _atom_site_hle17_ddec_spin_density
 _atom_site_hle17_ddec_sum_bond_order
 _atom_site_hle17_magmom
 _atom_site_hse06_10hf_bader_spin_density
 _atom_site_hse06_10hf_ddec_charge
 _atom_site_hse06_10hf_ddec_spin_density
 _atom_site_hse06_10hf_ddec_sum_bond_order
 _atom_site_hse06_10hf_magmom
 _atom_site_hse06_bader_spin_density
 _atom_site_hse06_ddec_charge
 _atom_site_hse06_ddec_spin_density
 _atom_site_hse06_ddec_sum_bond_order
 _atom_site_hse06_magmom
 _atom_site_pbe_bader_spin_density
 _atom_site_pbe_cm5_charge
 _atom_site_pbe_ddec_charge
 _atom_site_pbe_ddec_spin_density
 _atom_site_pbe_ddec_sum_bond_order
 _atom_site_pbe_magmom
Cu  Cu0  1  0.66686048  0.51419529  0.19853405  1  0  0.356615  0  1.947698  0  0  0.250508  0  2.449684  0  0  0.263944  0  2.390602  0  0  0.307457  0.242401  0  2.489205  0
Cu  Cu1  1  0.33313743  0.48580887  0.80146712  1  0  0.356607  0  1.947699  0  0  0.250498  0  2.449674  0  0  0.263907  0  2.390574  0  0  0.307463  0.242367  0  2.489228  0
Cu  Cu2  1  0.48347365  0.63917791  0.46277816  1  0  0.376133  0  1.975117  0  0  0.280343  0  2.470944  0  0  0.290981  0  2.415612  0  0  0.314596  0.274126  0  2.508036  0
Cu  Cu3  1  0.51652491  0.36081924  0.53722132  1  0  0.376121  0  1.975197  0  0  0.280322  0  2.471026  0  0  0.290955  0  2.415697  0  0  0.31461  0.274108  0  2.50811  0
Cu  Cu4  1  0.35606810  0.57524742  0.10590570  1  0  0.346061  0  2.013169  0  0  0.256645  0  2.503421  0  0  0.266825  0  2.447478  0  0  0.306122  0.250806  0  2.54167  0
Cu  Cu5  1  0.64393529  0.42474972  0.89409531  1  0  0.346022  0  2.013152  0  0  0.256611  0  2.503404  0  0  0.266802  0  2.447465  0  0  0.306113  0.250782  0  2.541638  0
H  H6  1  0.55203194  0.78967515  0.02375495  1  0  0.10826  0  0.987451  0  0  0.114735  0  1.055032  0  0  0.118446  0  1.052735  0  0  0.090159  0.111843  0  1.05713  0
H  H7  1  0.44797483  0.21032800  0.97624407  1  0  0.108225  0  0.987447  0  0  0.114708  0  1.055031  0  0  0.118421  0  1.052732  0  0  0.090114  0.111813  0  1.057124  0
H  H8  1  0.58591715  0.99291170  0.89679052  1  0  0.090914  0  0.974872  0  0  0.101446  0  1.038079  0  0  0.103842  0  1.037441  0  0  0.098054  0.099785  0  1.038335  0
H  H9  1  0.41409091  0.00708845  0.10320438  1  0  0.0909  0  0.974913  0  0  0.101419  0  1.038134  0  0  0.103819  0  1.037487  0  0  0.098051  0.099757  0  1.038396  0
H  H10  1  0.86633499  0.02035554  0.86288009  1  0  0.091211  0  0.974583  0  0  0.099716  0  1.040235  0  0  0.10231  0  1.039677  0  0  0.093101  0.097798  0  1.040844  0
H  H11  1  0.13367439  0.97964160  0.13711608  1  0  0.09117  0  0.974705  0  0  0.099706  0  1.040302  0  0  0.102299  0  1.039745  0  0  0.093112  0.097792  0  1.040907  0
H  H12  1  0.13311282  0.84382982  0.94920130  1  0  0.11613  0  0.962631  0  0  0.125091  0  1.023558  0  0  0.128667  0  1.022027  0  0  0.09807  0.122363  0  1.025071  0
H  H13  1  0.86689384  0.15616532  0.05079622  1  0  0.116164  0  0.962471  0  0  0.125102  0  1.023448  0  0  0.12864  0  1.021972  0  0  0.098051  0.122381  0  1.024932  0
H  H14  1  0.86978708  0.14492696  0.44817802  1  0  0.103736  0  0.972309  0  0  0.111289  0  1.039524  0  0  0.114661  0  1.037499  0  0  0.096195  0.108737  0  1.041316  0
H  H15  1  0.13020777  0.85507319  0.55182302  1  0  0.103708  0  0.972441  0  0  0.111281  0  1.039604  0  0  0.114652  0  1.037583  0  0  0.096189  0.108737  0  1.041389  0
H  H16  1  0.04959876  0.94864318  0.34680981  1  0  0.091039  0  0.96174  0  0  0.100198  0  1.026096  0  0  0.103104  0  1.024519  0  0  0.096072  0.098039  0  1.027361  0
H  H17  1  0.95040179  0.05135497  0.65319211  1  0  0.091028  0  0.961776  0  0  0.100196  0  1.026119  0  0  0.1031  0  1.024546  0  0  0.096064  0.098037  0  1.027382  0
H  H18  1  0.91858165  0.81770244  0.24970471  1  0  0.086167  0  0.966607  0  0  0.0965  0  1.02724  0  0  0.098441  0  1.027993  0  0  0.093353  0.095034  0  1.026934  0
H  H19  1  0.08141573  0.18229471  0.75029843  1  0  0.086162  0  0.966606  0  0  0.096473  0  1.027262  0  0  0.098413  0  1.028016  0  0  0.093341  0.095006  0  1.026954  0
H  H20  1  0.59993803  0.87509670  0.24808225  1  0  0.104165  0  0.984735  0  0  0.11118  0  1.054742  0  0  0.114025  0  1.053262  0  0  0.09287  0.108941  0  1.056051  0
H  H21  1  0.40006010  0.12490145  0.75191890  1  0  0.104134  0  0.984763  0  0  0.111155  0  1.054758  0  0  0.114008  0  1.05326  0  0  0.092851  0.108915  0  1.056066  0
H  H22  1  0.21171262  0.34408498  0.17295784  1  0  0.093192  0  0.952381  0  0  0.103404  0  1.02188  0  0  0.104494  0  1.022615  0  0  0.108012  0.102399  0  1.021769  0
H  H23  1  0.78828627  0.65591417  0.82704311  1  0  0.093221  0  0.952392  0  0  0.103404  0  1.021927  0  0  0.104493  0  1.022665  0  0  0.108021  0.102404  0  1.021812  0
H  H24  1  0.00396509  0.35079656  0.23233206  1  0  0.096893  0  0.927665  0  0  0.109836  0  0.993132  0  0  0.112373  0  0.990869  0  0  0.112268  0.107834  0  0.995016  0
H  H25  1  0.99603325  0.64920660  0.76766833  1  0  0.096909  0  0.92763  0  0  0.10985  0  0.993105  0  0  0.112387  0  0.990841  0  0  0.112267  0.107853  0  0.994988  0
H  H26  1  0.03395313  0.50106074  0.38229275  1  0  0.091479  0  0.946191  0  0  0.110239  0  1.002705  0  0  0.111039  0  1.00417  0  0  0.090534  0.109548  0  1.001867  0
H  H27  1  0.96604534  0.49893941  0.61770899  1  0  0.09152  0  0.946186  0  0  0.110266  0  1.002694  0  0  0.111068  0  1.00416  0  0  0.090542  0.109575  0  1.001856  0
H  H28  1  0.24980987  0.46738100  0.33339975  1  0  0.083511  0  0.959819  0  0  0.090523  0  1.042712  0  0  0.094386  0  1.038179  0  0  0.084472  0.087876  0  1.045413  0
H  H29  1  0.75019023  0.53261815  0.66660114  1  0  0.083529  0  0.959808  0  0  0.090534  0  1.042691  0  0  0.094396  0  1.03816  0  0  0.084469  0.087886  0  1.045385  0
H  H30  1  0.19754716  0.32692496  0.52911564  1  0  0.086493  0  0.951195  0  0  0.095954  0  1.025434  0  0  0.098638  0  1.022411  0  0  0.106191  0.093868  0  1.027701  0
H  H31  1  0.80245217  0.67307319  0.47088364  1  0  0.086519  0  0.951249  0  0  0.095988  0  1.025475  0  0  0.098672  0  1.022451  0  0  0.1062  0.093903  0  1.027742  0
H  H32  1  0.10129581  0.24716140  0.44112815  1  0  0.096809  0  0.925009  0  0  0.113457  0  0.982815  0  0  0.114499  0  0.982959  0  0  0.115226  0.112657  0  0.982781  0
H  H33  1  0.89870024  0.75283875  0.55887282  1  0  0.09679  0  0.925105  0  0  0.11344  0  0.982924  0  0  0.114481  0  0.983069  0  0  0.115225  0.112641  0  0.982889  0
C  C34  1  0.98967176  0.71709088  0.03459664  1  0  0.120665  0  3.824585  0  0  0.115946  0  4.075968  0  0  0.118168  0  4.095623  0  0  0.094693  0.114521  0  4.062979  0
C  C35  1  0.01033107  0.28291027  0.96540199  1  0  0.120616  0  3.824811  0  0  0.115863  0  4.076218  0  0  0.11809  0  4.095867  0  0  0.094622  0.114423  0  4.063225  0
C  C36  1  0.82604156  0.70277138  0.05640009  1  0  0.125768  0  3.81893  0  0  0.122778  0  4.065986  0  0  0.125006  0  4.08618  0  0  0.095359  0.121172  0  4.052848  0
C  C37  1  0.17396249  0.29722978  0.94360208  1  0  0.125629  0  3.81904  0  0  0.122669  0  4.066057  0  0  0.124886  0  4.086266  0  0  0.095327  0.1211  0  4.052869  0
C  C38  1  0.67643662  0.80190921  0.00717776  1  0  -0.142594  0  3.740578  0  0  -0.158428  0  3.988382  0  0  -0.161195  0  4.006125  0  0  -0.095289  -0.156797  0  3.976986  0
C  C39  1  0.32356665  0.19809094  0.99282100  1  0  -0.142537  0  3.740637  0  0  -0.1584  0  3.988436  0  0  -0.161167  0  4.006183  0  0  -0.095253  -0.156777  0  3.977029  0
C  C40  1  0.69723294  0.91356392  0.93758478  1  0  -0.043166  0  3.732196  0  0  -0.063487  0  3.986596  0  0  -0.062954  0  4.004633  0  0  -0.086436  -0.063624  0  3.974204  0
C  C41  1  0.30277194  0.08643523  0.06241044  1  0  -0.043065  0  3.732358  0  0  -0.063365  0  3.986752  0  0  -0.062831  0  4.004791  0  0  -0.086398  -0.063504  0  3.974367  0
C  C42  1  0.85990327  0.92895702  0.91743833  1  0  -0.049624  0  3.737673  0  0  -0.065756  0  3.989308  0  0  -0.066391  0  4.008666  0  0  -0.086768  -0.065665  0  3.976636  0
C  C43  1  0.14010240  0.07104314  0.08255940  1  0  -0.049741  0  3.737866  0  0  -0.065899  0  3.989522  0  0  -0.066532  0  4.008878  0  0  -0.086828  -0.065809  0  3.976851  0
C  C44  1  0.00819639  0.83234328  0.96480217  1  0  -0.133053  0  3.724832  0  0  -0.150727  0  3.972884  0  0  -0.153497  0  3.991659  0  0  -0.090716  -0.149101  0  3.961082  0
C  C45  1  0.99180753  0.16766088  0.03519685  1  0  -0.132961  0  3.724753  0  0  -0.150616  0  3.972812  0  0  -0.153361  0  3.991595  0  0  -0.090635  -0.148983  0  3.961018  0
C  C46  1  0.55665366  0.04684336  0.34379998  1  0  0.120732  0  3.830453  0  0  0.119758  0  4.085418  0  0  0.119887  0  4.107393  0  0  0.09392  0.119193  0  4.071496  0
C  C47  1  0.44334206  0.95315479  0.65620131  1  0  0.120762  0  3.830339  0  0  0.119759  0  4.08536  0  0  0.119887  0  4.107337  0  0  0.093937  0.11919  0  4.071435  0
C  C48  1  0.63340534  0.12112062  0.40195834  1  0  0.136043  0  3.819539  0  0  0.129798  0  4.069856  0  0  0.133176  0  4.090929  0  0  0.094413  0.127407  0  4.056628  0
C  C49  1  0.36659114  0.87887853  0.59804275  1  0  0.136088  0  3.819461  0  0  0.129843  0  4.069785  0  0  0.13322  0  4.090862  0  0  0.094434  0.127453  0  4.056559  0
C  C50  1  0.81240659  0.08699852  0.40468342  1  0  -0.126248  0  3.729812  0  0  -0.145216  0  3.980126  0  0  -0.14787  0  3.998972  0  0  -0.092152  -0.143744  0  3.96818  0
C  C51  1  0.18758824  0.91300163  0.59531581  1  0  -0.126235  0  3.72993  0  0  -0.145208  0  3.980247  0  0  -0.147852  0  3.99907  0  0  -0.092147  -0.143742  0  3.9683  0
C  C52  1  0.91016570  0.97821922  0.34829853  1  0  -0.066114  0  3.759567  0  0  -0.081377  0  4.011251  0  0  -0.08214  0  4.031773  0  0  -0.093173  -0.080721  0  3.997382  0
C  C53  1  0.08983307  0.02178294  0.65169928  1  0  -0.066172  0  3.759672  0  0  -0.081443  0  4.011347  0  0  -0.082205  0  4.03187  0  0  -0.09321  -0.080787  0  3.997477  0
C  C54  1  0.83416743  0.90291685  0.29163061  1  0  -0.066748  0  3.756638  0  0  -0.08055  0  4.008328  0  0  -0.083381  0  4.030706  0  0  -0.096116  -0.078828  0  3.993335  0
C  C55  1  0.16583135  0.09708530  0.70836900  1  0  -0.066717  0  3.756539  0  0  -0.080487  0  4.008213  0  0  -0.083317  0  4.030591  0  0  -0.096072  -0.078764  0  3.993215  0
C  C56  1  0.65830778  0.93457577  0.28883950  1  0  -0.128958  0  3.71854  0  0  -0.148245  0  3.967979  0  0  -0.149676  0  3.987699  0  0  -0.093354  -0.147169  0  3.955026  0
C  C57  1  0.34169112  0.06542338  0.71116236  1  0  -0.128938  0  3.718404  0  0  -0.148229  0  3.967868  0  0  -0.149662  0  3.987595  0  0  -0.093365  -0.147149  0  3.954911  0
C  C58  1  0.09796988  0.40252400  0.22201221  1  0  -0.057418  0  3.602136  0  0  -0.113459  0  3.854724  0  0  -0.11174  0  3.865105  0  0  -0.054429  -0.114592  0  3.848214  0
C  C59  1  0.90202858  0.59747615  0.77798953  1  0  -0.057445  0  3.602265  0  0  -0.113466  0  3.854832  0  0  -0.111744  0  3.865209  0  0  -0.054434  -0.114616  0  3.848336  0
C  C60  1  0.14489218  0.42631795  0.34484022  1  0  -0.144976  0  3.67416  0  0  -0.184153  0  3.921471  0  0  -0.187187  0  3.935066  0  0  -0.170107  -0.181902  0  3.912531  0
C  C61  1  0.85510629  0.57368220  0.65516151  1  0  -0.145063  0  3.674276  0  0  -0.184218  0  3.921613  0  0  -0.187235  0  3.935168  0  0  -0.17013  -0.181969  0  3.912678  0
C  C62  1  0.19285316  0.30011340  0.43839384  1  0  -0.054457  0  3.62598  0  0  -0.112767  0  3.879138  0  0  -0.110695  0  3.889653  0  0  -0.050851  -0.113978  0  3.87239  0
C  C63  1  0.80714496  0.69988475  0.56160551  1  0  -0.054455  0  3.626142  0  0  -0.112805  0  3.879301  0  0  -0.110731  0  3.889819  0  0  -0.050843  -0.114017  0  3.872553  0
Br  Br64  1  0.38138360  0.72228933  0.24673010  1  0  -0.46499  0  1.426039  0  0  -0.392061  0  1.836197  0  0  -0.409015  0  1.793209  0  0  -0.233727  -0.379678  0  1.866327  0
Br  Br65  1  0.61861529  0.27770982  0.75326906  1  0  -0.464978  0  1.426045  0  0  -0.392047  0  1.836212  0  0  -0.408999  0  1.793218  0  0  -0.233731  -0.379669  0  1.866334  0
Br  Br66  1  0.73511255  0.44186762  0.42153629  1  0  -0.458518  0  1.645869  0  0  -0.381414  0  2.096677  0  0  -0.398383  0  2.050675  0  0  -0.217949  -0.36888  0  2.127559  0
Br  Br67  1  0.26488800  0.55813052  0.57846563  1  0  -0.45852  0  1.64589  0  0  -0.381444  0  2.096748  0  0  -0.398407  0  2.050734  0  0  -0.217956  -0.368905  0  2.127629  0
Br  Br68  1  0.57095593  0.35108054  0.12572259  1  0  -0.421013  0  1.584003  0  0  -0.347019  0  2.014955  0  0  -0.365545  0  1.973667  0  0  -0.209146  -0.333001  0  2.043104  0
Br  Br69  1  0.42904614  0.64891961  0.87427715  1  0  -0.421001  0  1.583963  0  0  -0.347006  0  2.014892  0  0  -0.365531  0  1.973601  0  0  -0.209147  -0.332999  0  2.043063  0
N  N70  1  0.84774674  0.58285255  0.12771691  1  0  -0.265827  0  3.144975  0  0  -0.225085  0  3.468121  0  0  -0.227471  0  3.467294  0  0  -0.259472  -0.224065  0  3.46907  0
N  N71  1  0.15225160  0.41715061  0.87228348  1  0  -0.26576  0  3.144925  0  0  -0.224972  0  3.467976  0  0  -0.227347  0  3.467132  0  0  -0.259437  -0.223965  0  3.468905  0
N  N72  1  0.01812441  0.52922022  0.14483022  1  0  0.261073  0  3.44371  0  0  0.306912  0  3.712957  0  0  0.306751  0  3.735381  0  0  -0.018571  0.306574  0  3.698467  0
N  N73  1  0.98187525  0.47077993  0.85517054  1  0  0.261046  0  3.443718  0  0  0.306876  0  3.712971  0  0  0.306713  0  3.735395  0  0  -0.018592  0.306545  0  3.698481  0
N  N74  1  0.10884190  0.60520919  0.09247325  1  0  -0.262076  0  3.151375  0  0  -0.222764  0  3.468614  0  0  -0.224015  0  3.467831  0  0  -0.255848  -0.22244  0  3.46958  0
N  N75  1  0.89115940  0.39478996  0.90752758  1  0  -0.261992  0  3.151392  0  0  -0.222661  0  3.46862  0  0  -0.223914  0  3.467845  0  0  -0.255811  -0.222342  0  3.469588  0
N  N76  1  0.50405600  0.22175549  0.44716991  1  0  -0.282352  0  3.171938  0  0  -0.239875  0  3.49129  0  0  -0.246093  0  3.493285  0  0  -0.26443  -0.236298  0  3.490167  0
N  N77  1  0.49594081  0.77824567  0.55282996  1  0  -0.282409  0  3.171845  0  0  -0.239913  0  3.491176  0  0  -0.246134  0  3.493175  0  0  -0.264425  -0.236336  0  3.490051  0
N  N78  1  0.36115985  0.20491453  0.41440806  1  0  0.258022  0  3.532727  0  0  0.310455  0  3.802936  0  0  0.309521  0  3.825591  0  0  -0.012592  0.310582  0  3.788164  0
N  N79  1  0.63883740  0.79508562  0.58559104  1  0  0.258078  0  3.532682  0  0  0.310515  0  3.802885  0  0  0.309579  0  3.825541  0  0  -0.012574  0.310643  0  3.788108  0
N  N80  1  0.38287088  0.10353729  0.35327373  1  0  -0.272953  0  2.784047  0  0  -0.2643  0  3.049388  0  0  -0.265918  0  3.061774  0  0  -0.200009  -0.262986  0  3.041804  0
N  N81  1  0.61712681  0.89646186  0.64672640  1  0  -0.272984  0  2.784018  0  0  -0.264323  0  3.049373  0  0  -0.265941  0  3.061759  0  0  -0.200017  -0.263011  0  3.041788  0
