# generated using pymatgen
data_AgH8(C3N2)3
_symmetry_space_group_name_H-M   'P 1'
_cell_length_a   5.33964583
_cell_length_b   12.29174875
_cell_length_c   14.81651996
_cell_angle_alpha   91.06734712
_cell_angle_beta   89.99884040
_cell_angle_gamma   90.00045900
_symmetry_Int_Tables_number   1
_chemical_formula_structural   AgH8(C3N2)3
_chemical_formula_sum   'Ag4 H32 C36 N24'
_cell_volume   972.29258919
_cell_formula_units_Z   4
loop_
 _symmetry_equiv_pos_site_id
 _symmetry_equiv_pos_as_xyz
  1  'x, y, z'
loop_
 _atom_site_type_symbol
 _atom_site_label
 _atom_site_symmetry_multiplicity
 _atom_site_fract_x
 _atom_site_fract_y
 _atom_site_fract_z
 _atom_site_occupancy
 _atom_site_hle17_bader_spin_density
 _atom_site_hle17_ddec_charge
 _atom_site_hle17_ddec_spin_density
 _atom_site_hle17_ddec_sum_bond_order
 _atom_site_hle17_magmom
 _atom_site_hse06_10hf_bader_spin_density
 _atom_site_hse06_10hf_ddec_charge
 _atom_site_hse06_10hf_ddec_spin_density
 _atom_site_hse06_10hf_ddec_sum_bond_order
 _atom_site_hse06_10hf_magmom
 _atom_site_hse06_bader_spin_density
 _atom_site_hse06_ddec_charge
 _atom_site_hse06_ddec_spin_density
 _atom_site_hse06_ddec_sum_bond_order
 _atom_site_hse06_magmom
 _atom_site_pbe_bader_spin_density
 _atom_site_pbe_cm5_charge
 _atom_site_pbe_ddec_charge
 _atom_site_pbe_ddec_spin_density
 _atom_site_pbe_ddec_sum_bond_order
 _atom_site_pbe_magmom
Ag  Ag0  1  0.18641500  0.59744155  0.00259352  1  0  0.507084  0  1.589527  0  0  0.377351  0  2.067421  0  0  0.399171  0  2.025399  0  0  0.471043  0.362598  0  2.096202  0
Ag  Ag1  1  0.68640823  0.90256232  0.99740394  1  0  0.507113  0  1.589624  0  0  0.37738  0  2.067531  0  0  0.399201  0  2.025507  0  0  0.471017  0.362623  0  2.096308  0
Ag  Ag2  1  0.81358792  0.40256182  0.99740761  1  0  0.507138  0  1.589443  0  0  0.377396  0  2.067362  0  0  0.399218  0  2.025334  0  0  0.47105  0.362642  0  2.096137  0
Ag  Ag3  1  0.31359094  0.09743458  0.00259099  1  0  0.50718  0  1.589448  0  0  0.377463  0  2.067379  0  0  0.399285  0  2.025351  0  0  0.471061  0.362704  0  2.09615  0
H  H4  1  0.66189002  0.69322921  0.11409771  1  0  0.113336  0  0.974474  0  0  0.117793  0  1.051204  0  0  0.120884  0  1.046431  0  0  0.136885  0.115457  0  1.054669  0
H  H5  1  0.16187190  0.80676398  0.88590309  1  0  0.113256  0  0.974542  0  0  0.117741  0  1.051203  0  0  0.120835  0  1.046426  0  0  0.136814  0.115406  0  1.054664  0
H  H6  1  0.33811852  0.30677008  0.88590402  1  0  0.113335  0  0.974415  0  0  0.117805  0  1.05111  0  0  0.120897  0  1.046336  0  0  0.136881  0.115471  0  1.054569  0
H  H7  1  0.83811229  0.19323697  0.11409530  1  0  0.113258  0  0.97462  0  0  0.117753  0  1.051253  0  0  0.120845  0  1.046479  0  0  0.136837  0.115418  0  1.054711  0
H  H8  1  0.50106148  0.64478051  0.34781474  1  0  0.094972  0  0.936644  0  0  0.106629  0  1.00714  0  0  0.107253  0  1.007381  0  0  0.116776  0.106188  0  1.006919  0
H  H9  1  0.00106487  0.85521787  0.65218734  1  0  0.094953  0  0.936709  0  0  0.106636  0  1.007144  0  0  0.10724  0  1.007406  0  0  0.116764  0.106196  0  1.006919  0
H  H10  1  0.49893769  0.35522694  0.65218445  1  0  0.094921  0  0.936671  0  0  0.106604  0  1.007122  0  0  0.107234  0  1.007356  0  0  0.116757  0.106162  0  1.0069  0
H  H11  1  0.99892493  0.14476926  0.34780941  1  0  0.094931  0  0.936699  0  0  0.106588  0  1.007176  0  0  0.107226  0  1.007399  0  0  0.116805  0.106155  0  1.00696  0
H  H12  1  0.45557682  0.73782207  0.25900250  1  0  0.092163  0  0.922855  0  0  0.108073  0  0.986912  0  0  0.108035  0  0.98768  0  0  0.117861  0.108091  0  0.986316  0
H  H13  1  0.95556862  0.76218098  0.74100107  1  0  0.092137  0  0.922948  0  0  0.108039  0  0.987001  0  0  0.107998  0  0.987774  0  0  0.117846  0.108055  0  0.986407  0
H  H14  1  0.54443733  0.26218700  0.74099807  1  0  0.092121  0  0.922967  0  0  0.108049  0  0.987011  0  0  0.108006  0  0.987787  0  0  0.117884  0.108063  0  0.986419  0
H  H15  1  0.04443055  0.23781507  0.25899991  1  0  0.092111  0  0.922918  0  0  0.108044  0  0.986968  0  0  0.107997  0  0.987751  0  0  0.117879  0.108068  0  0.986379  0
H  H16  1  0.44235146  0.78276243  0.46653527  1  0  0.088962  0  0.989198  0  0  0.098974  0  1.05201  0  0  0.10054  0  1.053942  0  0  0.095667  0.09783  0  1.050794  0
H  H17  1  0.94236901  0.71724387  0.53346374  1  0  0.089053  0  0.989145  0  0  0.099033  0  1.051985  0  0  0.1006  0  1.053916  0  0  0.095673  0.097888  0  1.050769  0
H  H18  1  0.55764771  0.21724419  0.53346660  1  0  0.088906  0  0.989208  0  0  0.098936  0  1.052  0  0  0.100502  0  1.053932  0  0  0.095637  0.097792  0  1.050777  0
H  H19  1  0.05764139  0.28275382  0.46653525  1  0  0.088986  0  0.989177  0  0  0.098956  0  1.052028  0  0  0.100521  0  1.05396  0  0  0.095645  0.097812  0  1.050808  0
H  H20  1  0.62536607  0.92565053  0.56058736  1  0  0.087107  0  1.001921  0  0  0.090266  0  1.078303  0  0  0.093678  0  1.076113  0  0  0.095262  0.087809  0  1.079922  0
H  H21  1  0.12538913  0.57435805  0.43940727  1  0  0.087075  0  1.001736  0  0  0.090212  0  1.078157  0  0  0.093627  0  1.075962  0  0  0.095236  0.087754  0  1.079767  0
H  H22  1  0.37461624  0.07436100  0.43941124  1  0  0.087153  0  1.001834  0  0  0.090259  0  1.078266  0  0  0.093675  0  1.076073  0  0  0.095244  0.087798  0  1.079875  0
H  H23  1  0.87461566  0.42563800  0.56059169  1  0  0.087137  0  1.001769  0  0  0.090252  0  1.078228  0  0  0.093674  0  1.07603  0  0  0.095237  0.087793  0  1.079833  0
H  H24  1  0.22304180  0.96090578  0.36625480  1  0  0.084617  0  0.994313  0  0  0.095996  0  1.058998  0  0  0.098492  0  1.057885  0  0  0.098114  0.094178  0  1.059939  0
H  H25  1  0.72301849  0.53909001  0.63375033  1  0  0.084586  0  0.994426  0  0  0.096042  0  1.059  0  0  0.098538  0  1.057886  0  0  0.098151  0.094219  0  1.059953  0
H  H26  1  0.77695550  0.03910244  0.63375048  1  0  0.084547  0  0.994442  0  0  0.09595  0  1.059099  0  0  0.098447  0  1.057984  0  0  0.098154  0.094134  0  1.06004  0
H  H27  1  0.27698255  0.46090359  0.36625129  1  0  0.084498  0  0.994526  0  0  0.095971  0  1.059089  0  0  0.098468  0  1.057973  0  0  0.098136  0.094152  0  1.060038  0
H  H28  1  0.02718748  0.82111944  0.26990451  1  0  0.087849  0  0.973368  0  0  0.09782  0  1.03802  0  0  0.099745  0  1.038132  0  0  0.096282  0.096458  0  1.037934  0
H  H29  1  0.52716144  0.67887409  0.73010268  1  0  0.087892  0  0.973246  0  0  0.09784  0  1.037945  0  0  0.099773  0  1.038064  0  0  0.096265  0.096482  0  1.03786  0
H  H30  1  0.97281919  0.17888553  0.73009935  1  0  0.087876  0  0.973592  0  0  0.097878  0  1.038179  0  0  0.09981  0  1.038296  0  0  0.09627  0.096518  0  1.038097  0
H  H31  1  0.47283773  0.32111787  0.26990025  1  0  0.087918  0  0.973336  0  0  0.097885  0  1.037993  0  0  0.099816  0  1.038109  0  0  0.096265  0.096526  0  1.037907  0
H  H32  1  0.25214481  0.49960712  0.21051424  1  0  0.094202  0  0.951769  0  0  0.10302  0  1.015653  0  0  0.104447  0  1.014619  0  0  0.132301  0.101933  0  1.016412  0
H  H33  1  0.75216261  0.00038420  0.78948471  1  0  0.094168  0  0.951786  0  0  0.103003  0  1.015668  0  0  0.104433  0  1.014628  0  0  0.132283  0.101912  0  1.016421  0
H  H34  1  0.74785811  0.50039949  0.78948966  1  0  0.094171  0  0.951868  0  0  0.103051  0  1.015657  0  0  0.104479  0  1.014621  0  0  0.132314  0.101968  0  1.016409  0
H  H35  1  0.24784593  0.99960051  0.21050727  1  0  0.094257  0  0.951814  0  0  0.103088  0  1.015659  0  0  0.104515  0  1.014626  0  0  0.132358  0.101997  0  1.016412  0
C  C36  1  0.79071344  0.64806166  0.15601058  1  0  0.171892  0  3.616293  0  0  0.096134  0  3.874629  0  0  0.110196  0  3.886936  0  0  0.162655  0.087293  0  3.866031  0
C  C37  1  0.29071164  0.85193603  0.84398734  1  0  0.171914  0  3.616442  0  0  0.096178  0  3.874832  0  0  0.110236  0  3.887143  0  0  0.162654  0.087334  0  3.866236  0
C  C38  1  0.20929135  0.35194335  0.84398924  1  0  0.171937  0  3.616224  0  0  0.096214  0  3.874618  0  0  0.110278  0  3.886925  0  0  0.162671  0.087364  0  3.866026  0
C  C39  1  0.70928941  0.14806576  0.15600701  1  0  0.171968  0  3.616072  0  0  0.096247  0  3.874468  0  0  0.110304  0  3.886777  0  0  0.162701  0.0874  0  3.865868  0
C  C40  1  0.59646846  0.70321580  0.30447569  1  0  -0.049784  0  3.637911  0  0  -0.129536  0  3.884639  0  0  -0.12519  0  3.894862  0  0  -0.037061  -0.132054  0  3.877406  0
C  C41  1  0.09645894  0.79678207  0.69552433  1  0  -0.04983  0  3.638072  0  0  -0.129539  0  3.884724  0  0  -0.125185  0  3.894967  0  0  -0.037064  -0.132057  0  3.877487  0
C  C42  1  0.40354195  0.29678676  0.69552475  1  0  -0.049677  0  3.637906  0  0  -0.129429  0  3.884648  0  0  -0.125084  0  3.894858  0  0  -0.037085  -0.131945  0  3.877416  0
C  C43  1  0.90353461  0.20320913  0.30447116  1  0  -0.049608  0  3.637896  0  0  -0.129377  0  3.884659  0  0  -0.125038  0  3.894862  0  0  -0.037135  -0.131935  0  3.877479  0
C  C44  1  0.72080929  0.79114275  0.36124994  1  0  0.073088  0  3.738295  0  0  0.09366  0  3.977888  0  0  0.093109  0  4.000955  0  0  -0.012314  0.094107  0  3.962044  0
C  C45  1  0.22080502  0.70885304  0.63875453  1  0  0.073196  0  3.738428  0  0  0.093813  0  3.977964  0  0  0.093263  0  4.00103  0  0  -0.012239  0.094261  0  3.962119  0
C  C46  1  0.27920112  0.20885898  0.63875251  1  0  0.073181  0  3.738263  0  0  0.093758  0  3.977876  0  0  0.093206  0  4.000943  0  0  -0.01228  0.0942  0  3.962038  0
C  C47  1  0.77919977  0.29114055  0.36124843  1  0  0.073153  0  3.738448  0  0  0.093741  0  3.978007  0  0  0.093185  0  4.00108  0  0  -0.012263  0.094196  0  3.962171  0
C  C48  1  0.61180568  0.82302477  0.44338052  1  0  -0.111055  0  3.746369  0  0  -0.126337  0  3.985014  0  0  -0.128635  0  4.006234  0  0  -0.0922  -0.124762  0  3.970656  0
C  C49  1  0.11180540  0.67697480  0.55661673  1  0  -0.111329  0  3.746298  0  0  -0.126625  0  3.984947  0  0  -0.128923  0  4.006164  0  0  -0.09229  -0.125045  0  3.97058  0
C  C50  1  0.38818600  0.17698102  0.55662336  1  0  -0.111107  0  3.746501  0  0  -0.126432  0  3.985096  0  0  -0.128731  0  4.006318  0  0  -0.092219  -0.124853  0  3.970729  0
C  C51  1  0.88819564  0.32301801  0.44338082  1  0  -0.111232  0  3.7463  0  0  -0.126497  0  3.984942  0  0  -0.128796  0  4.006165  0  0  -0.092257  -0.124917  0  3.970572  0
C  C52  1  0.71823336  0.90491918  0.49706731  1  0  -0.108638  0  3.732819  0  0  -0.124737  0  3.979945  0  0  -0.126987  0  3.999125  0  0  -0.090778  -0.123103  0  3.96695  0
C  C53  1  0.21825326  0.59508068  0.50293524  1  0  -0.10849  0  3.73294  0  0  -0.124535  0  3.979999  0  0  -0.126786  0  3.999186  0  0  -0.090687  -0.122896  0  3.966994  0
C  C54  1  0.28175644  0.09508906  0.50293460  1  0  -0.108581  0  3.732684  0  0  -0.12456  0  3.979691  0  0  -0.126814  0  3.998876  0  0  -0.090696  -0.122921  0  3.966689  0
C  C55  1  0.78175340  0.40491373  0.49706706  1  0  -0.108479  0  3.732775  0  0  -0.124536  0  3.979843  0  0  -0.126793  0  3.999035  0  0  -0.090654  -0.12289  0  3.96683  0
C  C56  1  0.94094599  0.95725435  0.47118926  1  0  0.045124  0  3.764838  0  0  0.058836  0  3.995206  0  0  0.058998  0  4.018607  0  0  -0.010558  0.058727  0  3.979293  0
C  C57  1  0.44094283  0.54274869  0.52880834  1  0  0.045119  0  3.765132  0  0  0.058787  0  3.9955  0  0  0.058946  0  4.018897  0  0  -0.010563  0.058672  0  3.979593  0
C  C58  1  0.05903820  0.04275714  0.52881473  1  0  0.045036  0  3.765137  0  0  0.058689  0  3.995508  0  0  0.058847  0  4.018916  0  0  -0.010635  0.058573  0  3.979597  0
C  C59  1  0.55906195  0.45724411  0.47119123  1  0  0.045017  0  3.765211  0  0  0.058693  0  3.995604  0  0  0.058848  0  4.019006  0  0  -0.010637  0.058578  0  3.979699  0
C  C60  1  0.04862664  0.92415234  0.38837425  1  0  -0.109876  0  3.748841  0  0  -0.128814  0  3.998797  0  0  -0.131067  0  4.019677  0  0  -0.093731  -0.127202  0  3.984569  0
C  C61  1  0.54861838  0.57584289  0.61163282  1  0  -0.109868  0  3.748683  0  0  -0.128816  0  3.998579  0  0  -0.131062  0  4.019454  0  0  -0.093799  -0.127199  0  3.98435  0
C  C62  1  0.95137066  0.07585589  0.61162968  1  0  -0.109753  0  3.749081  0  0  -0.128691  0  3.999019  0  0  -0.130941  0  4.019896  0  0  -0.09375  -0.127073  0  3.984785  0
C  C63  1  0.45138079  0.42415151  0.38837150  1  0  -0.109678  0  3.748704  0  0  -0.128665  0  3.99862  0  0  -0.130908  0  4.019492  0  0  -0.093711  -0.127056  0  3.984402  0
C  C64  1  0.93992246  0.84345569  0.33411002  1  0  -0.113781  0  3.759351  0  0  -0.137811  0  4.013492  0  0  -0.140083  0  4.035384  0  0  -0.098343  -0.136102  0  3.998398  0
C  C65  1  0.43989319  0.65654160  0.66589423  1  0  -0.113828  0  3.759423  0  0  -0.137916  0  4.013621  0  0  -0.140203  0  4.035527  0  0  -0.098338  -0.136211  0  3.998536  0
C  C66  1  0.06007859  0.15655090  0.66589591  1  0  -0.1139  0  3.759496  0  0  -0.137989  0  4.01365  0  0  -0.140273  0  4.03555  0  0  -0.098332  -0.136287  0  3.998568  0
C  C67  1  0.56010410  0.34344874  0.33410732  1  0  -0.113978  0  3.759386  0  0  -0.138035  0  4.01356  0  0  -0.140318  0  4.035462  0  0  -0.098366  -0.136321  0  3.99847  0
C  C68  1  0.08535339  0.54999174  0.20845509  1  0  0.189028  0  3.707408  0  0  0.136941  0  3.993735  0  0  0.148087  0  4.007422  0  0  0.140999  0.129759  0  3.984072  0
C  C69  1  0.58536654  0.95000285  0.79154293  1  0  0.189201  0  3.707115  0  0  0.137111  0  3.99339  0  0  0.148258  0  4.007075  0  0  0.141087  0.129937  0  3.983717  0
C  C70  1  0.91465327  0.45001080  0.79154806  1  0  0.188964  0  3.707705  0  0  0.136846  0  3.994005  0  0  0.147994  0  4.007694  0  0  0.140984  0.129656  0  3.984345  0
C  C71  1  0.41464573  0.04998917  0.20845055  1  0  0.188946  0  3.707501  0  0  0.136902  0  3.993822  0  0  0.148046  0  4.007515  0  0  0.140989  0.129723  0  3.984155  0
N  N72  1  0.95849945  0.58180688  0.28116607  1  0  -0.260238  0  2.853951  0  0  -0.257564  0  3.122199  0  0  -0.265132  0  3.136453  0  0  -0.214651  -0.252087  0  3.112567  0
N  N73  1  0.45850593  0.91818970  0.71883263  1  0  -0.260372  0  2.853742  0  0  -0.257685  0  3.122022  0  0  -0.265254  0  3.136274  0  0  -0.214683  -0.252204  0  3.112386  0
N  N74  1  0.04150534  0.41820053  0.71883785  1  0  -0.260184  0  2.854142  0  0  -0.257452  0  3.122398  0  0  -0.265016  0  3.136645  0  0  -0.214602  -0.251974  0  3.112761  0
N  N75  1  0.54148949  0.08180234  0.28116018  1  0  -0.260303  0  2.854146  0  0  -0.25762  0  3.122383  0  0  -0.265193  0  3.136642  0  0  -0.214683  -0.25214  0  3.112744  0
N  N76  1  0.98949458  0.58904017  0.12979765  1  0  -0.391119  0  3.346598  0  0  -0.304731  0  3.650269  0  0  -0.32725  0  3.663595  0  0  -0.371689  -0.289592  0  3.640683  0
N  N77  1  0.48949619  0.91095082  0.87020004  1  0  -0.391168  0  3.346821  0  0  -0.304775  0  3.650495  0  0  -0.327295  0  3.663824  0  0  -0.371637  -0.289635  0  3.640909  0
N  N78  1  0.01050833  0.41096238  0.87020415  1  0  -0.391139  0  3.346623  0  0  -0.304776  0  3.650328  0  0  -0.327292  0  3.663642  0  0  -0.371717  -0.289638  0  3.640748  0
N  N79  1  0.51050673  0.08904202  0.12979414  1  0  -0.39105  0  3.346416  0  0  -0.304749  0  3.65017  0  0  -0.327267  0  3.663494  0  0  -0.371695  -0.289606  0  3.640578  0
N  N80  1  0.77152982  0.64397829  0.24636923  1  0  0.049326  0  3.556095  0  0  0.171914  0  3.736355  0  0  0.160794  0  3.761176  0  0  -0.130639  0.177598  0  3.722398  0
N  N81  1  0.27152941  0.85601850  0.75363152  1  0  0.049459  0  3.555961  0  0  0.171943  0  3.736339  0  0  0.160838  0  3.761134  0  0  -0.130652  0.177618  0  3.722389  0
N  N82  1  0.22847497  0.35602507  0.75363326  1  0  0.04927  0  3.555935  0  0  0.171744  0  3.73635  0  0  0.160619  0  3.761177  0  0  -0.130711  0.177439  0  3.722364  0
N  N83  1  0.72846039  0.14397838  0.24636611  1  0  0.049282  0  3.555896  0  0  0.17183  0  3.736216  0  0  0.16073  0  3.760997  0  0  -0.130682  0.177521  0  3.72227  0
N  N84  1  0.46951162  0.59673868  0.90014654  1  0  -0.506457  0  2.731041  0  0  -0.482628  0  3.053764  0  0  -0.499484  0  3.05739  0  0  -0.310897  -0.470988  0  3.05122  0
N  N85  1  0.96948773  0.90326607  0.09985156  1  0  -0.506734  0  2.730923  0  0  -0.482897  0  3.053639  0  0  -0.499759  0  3.057266  0  0  -0.311127  -0.471253  0  3.051086  0
N  N86  1  0.53048380  0.40326389  0.09985255  1  0  -0.506519  0  2.731269  0  0  -0.482691  0  3.053986  0  0  -0.499539  0  3.057605  0  0  -0.310964  -0.471057  0  3.051446  0
N  N87  1  0.03050769  0.09673489  0.90014412  1  0  -0.506769  0  2.731129  0  0  -0.482924  0  3.053813  0  0  -0.499783  0  3.057439  0  0  -0.311091  -0.471283  0  3.051262  0
N  N88  1  0.65481065  0.65001842  0.91036156  1  0  0.366101  0  4.269514  0  0  0.403948  0  4.538188  0  0  0.419311  0  4.568463  0  0  0.056922  0.393675  0  4.517801  0
N  N89  1  0.15479677  0.84998289  0.08963946  1  0  0.366172  0  4.269475  0  0  0.404022  0  4.538143  0  0  0.419385  0  4.568419  0  0  0.057105  0.393746  0  4.517753  0
N  N90  1  0.34519976  0.34998577  0.08963891  1  0  0.366262  0  4.269424  0  0  0.404113  0  4.538072  0  0  0.419477  0  4.568346  0  0  0.057094  0.393835  0  4.517685  0
N  N91  1  0.84520802  0.15001563  0.91035686  1  0  0.366339  0  4.269256  0  0  0.404197  0  4.537906  0  0  0.419562  0  4.56818  0  0  0.057143  0.39392  0  4.51752  0
N  N92  1  0.84197691  0.70089876  0.91732419  1  0  -0.493856  0  2.603807  0  0  -0.465161  0  2.887046  0  0  -0.478882  0  2.891178  0  0  -0.257843  -0.455769  0  2.884493  0
N  N93  1  0.34194372  0.79910394  0.08267819  1  0  -0.493711  0  2.603905  0  0  -0.465025  0  2.88715  0  0  -0.478735  0  2.89128  0  0  -0.25784  -0.455633  0  2.884602  0
N  N94  1  0.15802600  0.29909974  0.08267482  1  0  -0.493977  0  2.603503  0  0  -0.465277  0  2.886737  0  0  -0.479005  0  2.890872  0  0  -0.257945  -0.455878  0  2.884177  0
N  N95  1  0.65804983  0.20089782  0.91732022  1  0  -0.493875  0  2.603463  0  0  -0.465204  0  2.886725  0  0  -0.478923  0  2.890852  0  0  -0.257926  -0.455814  0  2.884176  0
