# generated using pymatgen
data_Zr3H4C25Cl(O8F5)2
_symmetry_space_group_name_H-M   'P 1'
_cell_length_a   14.87172906
_cell_length_b   14.88698232
_cell_length_c   14.88179267
_cell_angle_alpha   59.95805387
_cell_angle_beta   60.00172743
_cell_angle_gamma   59.97316880
_symmetry_Int_Tables_number   1
_chemical_formula_structural   Zr3H4C25Cl(O8F5)2
_chemical_formula_sum   'Zr6 H8 C50 Cl2 O32 F20'
_cell_volume   2328.56359010
_cell_formula_units_Z   2
loop_
 _symmetry_equiv_pos_site_id
 _symmetry_equiv_pos_as_xyz
  1  'x, y, z'
loop_
 _atom_site_type_symbol
 _atom_site_label
 _atom_site_symmetry_multiplicity
 _atom_site_fract_x
 _atom_site_fract_y
 _atom_site_fract_z
 _atom_site_occupancy
 _atom_site_pbe_bader_charge
 _atom_site_pbe_bader_spin_density
 _atom_site_pbe_cm5_charge
 _atom_site_pbe_ddec_charge
 _atom_site_pbe_ddec_spin_density
 _atom_site_pbe_ddec_sum_bond_order
 _atom_site_pbe_magmom
Zr  Zr0  1  0.88039591  0.88076244  0.61937483  1  2.640468  0  1.627874  2.378421  0  2.727449  0
Zr  Zr1  1  0.11771368  0.11899082  0.38129521  1  2.635971  0  1.637484  2.384879  0  2.758542  0
Zr  Zr2  1  0.11801232  0.88216561  0.61809241  1  2.635893  0  1.637114  2.384594  0  2.757301  0
Zr  Zr3  1  0.88025939  0.12011676  0.37993667  1  2.640723  0  1.628396  2.378417  0  2.728414  0
Zr  Zr4  1  0.11744942  0.88153287  0.38072451  1  2.642661  0  1.634567  2.38377  0  2.739897  0
Zr  Zr5  1  0.87952899  0.11949892  0.61864766  1  2.637537  0  1.63463  2.383183  0  2.740921  0
H  H6  1  0.09209720  0.71990221  0.59413804  1  0.620961  0  0.331342  0.421818  0  0.859955  0
H  H7  1  0.09180530  0.09492692  0.21905744  1  0.605974  0  0.331498  0.422228  0  0.859407  0
H  H8  1  0.09271488  0.09390530  0.59291579  1  0.618071  0  0.331208  0.422051  0  0.860365  0
H  H9  1  0.71788258  0.09391742  0.59331946  1  0.603395  0  0.328888  0.418452  0  0.863594  0
H  H10  1  0.75225425  0.62925752  0.95692392  1  0.06819  0  0.099474  0.116589  0  0.985901  0
H  H11  1  0.83828280  0.54475984  0.87261074  1  0.059991  0  0.099132  0.114863  0  0.984485  0
H  H12  1  0.83782471  0.37481893  0.04248883  1  0.057068  0  0.099001  0.114714  0  0.984106  0
H  H13  1  0.75174991  0.45904449  0.12704802  1  0.071801  0  0.099816  0.117002  0  0.985099  0
C  C14  1  0.99607303  0.70125910  0.49721501  1  1.617206  0  0.237797  0.671553  0  4.097924  0
C  C15  1  0.30373833  0.99729584  0.20131361  1  1.598503  0  0.23801  0.670707  0  4.09498  0
C  C16  1  0.99656861  0.30450761  0.49763036  1  1.625858  0  0.237597  0.670148  0  4.097723  0
C  C17  1  0.70055807  0.99655567  0.80501907  1  1.632411  0  0.238967  0.674234  0  4.094621  0
C  C18  1  0.99784677  0.70173826  0.80433770  1  1.545882  0  0.234948  0.653384  0  4.098218  0
C  C19  1  0.70062751  0.99769727  0.49649167  1  1.613997  0  0.238532  0.673031  0  4.094805  0
C  C20  1  0.99729855  0.30509236  0.20080664  1  1.552721  0  0.235271  0.654621  0  4.098675  0
C  C21  1  0.30428358  0.99752780  0.49626219  1  1.620633  0  0.23715  0.669579  0  4.101799  0
C  C22  1  0.30382192  0.70210781  0.49642546  1  1.5932  0  0.238044  0.670789  0  4.095227  0
C  C23  1  0.99673311  0.99850187  0.80354501  1  1.599264  0  0.237391  0.669769  0  4.097393  0
C  C24  1  0.70038585  0.30560681  0.49586826  1  1.591528  0  0.238951  0.673737  0  4.095546  0
C  C25  1  0.99589475  0.99779307  0.20061442  1  1.607971  0  0.237934  0.671495  0  4.098995  0
C  C26  1  0.99719908  0.40488364  0.49829169  1  0.032086  0  -0.022387  -0.214095  0  3.954215  0
C  C27  1  0.99686921  0.59952448  0.49797205  1  0.033828  0  -0.022853  -0.216372  0  3.958517  0
C  C28  1  0.07800556  0.45462420  0.41861185  1  0.59449  0  0.099885  0.168756  0  4.066098  0
C  C29  1  0.91720964  0.54864807  0.57872619  1  0.56471  0  0.098  0.164943  0  4.070231  0
C  C30  1  0.07770282  0.54880301  0.41825774  1  0.595793  0  0.099612  0.167268  0  4.065638  0
C  C31  1  0.91723165  0.45479659  0.57881950  1  0.587186  0  0.098286  0.164212  0  4.074081  0
C  C32  1  0.40501877  0.99702134  0.10042959  1  0.136424  0  -0.022226  -0.214181  0  3.953305  0
C  C33  1  0.59953928  0.99663569  0.90609038  1  -0.023551  0  -0.023093  -0.217879  0  3.959431  0
C  C34  1  0.45563431  0.07695513  0.05017793  1  0.572315  0  0.100106  0.168475  0  4.066763  0
C  C35  1  0.54873712  0.91688746  0.95623773  1  0.591723  0  0.0986  0.166366  0  4.0696  0
C  C36  1  0.54943184  0.07696576  0.95614496  1  0.563274  0  0.100015  0.168368  0  4.065544  0
C  C37  1  0.45475506  0.91710142  0.04995893  1  0.551756  0  0.098272  0.163397  0  4.073557  0
C  C38  1  0.99711162  0.99895108  0.90414850  1  0.075198  0  -0.022578  -0.214302  0  3.954608  0
C  C39  1  0.99660529  0.99845072  0.09896887  1  0.095436  0  -0.023101  -0.216947  0  3.959248  0
C  C40  1  0.91698987  0.07940116  0.95410913  1  0.586317  0  0.098389  0.163818  0  4.072835  0
C  C41  1  0.07742031  0.91866778  0.04833998  1  0.523947  0  0.09997  0.168574  0  4.064668  0
C  C42  1  0.91690951  0.07922787  0.04805213  1  0.560284  0  0.098877  0.165861  0  4.068362  0
C  C43  1  0.07783182  0.91912226  0.95403486  1  0.579559  0  0.099946  0.168362  0  4.066501  0
C  C44  1  0.40491167  0.60103304  0.49631750  1  0.112792  0  -0.022448  -0.213336  0  3.951736  0
C  C45  1  0.59931671  0.40657582  0.49603262  1  0.045493  0  -0.023134  -0.217598  0  3.958832  0
C  C46  1  0.45450030  0.55055311  0.41643210  1  0.559035  0  0.098377  0.163398  0  4.071176  0
C  C47  1  0.54925700  0.45654878  0.57642448  1  0.549079  0  0.100341  0.1688  0  4.06394  0
C  C48  1  0.54845498  0.45675959  0.41626926  1  0.600574  0  0.098592  0.165897  0  4.068408  0
C  C49  1  0.45550448  0.55064907  0.57636558  1  0.571267  0  0.099686  0.167657  0  4.066628  0
C  C50  1  0.00391842  0.60069064  0.90372964  1  0.013773  0  -0.01704  -0.133624  0  3.939956  0
C  C51  1  0.00357492  0.40449107  0.09977522  1  -0.00213  0  -0.017138  -0.1353  0  3.940277  0
C  C52  1  0.92540689  0.54937870  0.95442370  1  0.042734  0  -0.007008  0.064404  0  3.905825  0
C  C53  1  0.08635477  0.45356618  0.04881194  1  0.064014  0  0.014095  0.061493  0  3.988188  0
C  C54  1  0.92518282  0.45565776  0.04812505  1  0.006392  0  -0.006533  0.066307  0  3.903944  0
C  C55  1  0.08650101  0.54933146  0.95317958  1  0.124132  0  0.014422  0.061561  0  3.989212  0
C  C56  1  0.82434356  0.55531494  0.94705620  1  -0.006908  0  -0.14799  -0.192962  0  3.855117  0
C  C57  1  0.82406010  0.44901915  0.05331851  1  -0.01304  0  -0.148146  -0.194199  0  3.855274  0
C  C58  1  0.40501804  0.99789959  0.49651436  1  0.031078  0  -0.022745  -0.214951  0  3.957436  0
C  C59  1  0.59932067  0.99801920  0.49662950  1  0.088446  0  -0.02399  -0.219126  0  3.959538  0
C  C60  1  0.45497289  0.91795141  0.57714083  1  0.591801  0  0.098967  0.165442  0  4.070072  0
C  C61  1  0.54874999  0.07860502  0.41658647  1  0.565061  0  0.09954  0.168302  0  4.067863  0
C  C62  1  0.54881964  0.91802400  0.57720526  1  0.543095  0  0.099299  0.167967  0  4.068298  0
C  C63  1  0.45490925  0.07849947  0.41652021  1  0.591596  0  0.098467  0.164302  0  4.069955  0
Cl  Cl64  1  0.19160574  0.39971797  0.09864262  1  -0.131759  0  0.015716  -0.025096  0  1.692457  0
Cl  Cl65  1  0.19172964  0.59887032  0.89999445  1  -0.13405  0  0.015436  -0.025364  0  1.691155  0
O  O66  1  0.92014935  0.74001152  0.57354056  1  -1.167186  0  -0.349166  -0.607515  0  2.302811  0
O  O67  1  0.26436819  0.07380000  0.23978916  1  -1.157209  0  -0.348043  -0.604084  0  2.300763  0
O  O68  1  0.07367040  0.26472823  0.42251548  1  -1.168604  0  -0.346478  -0.600669  0  2.303017  0
O  O69  1  0.73959435  0.92041431  0.76607005  1  -1.163389  0  -0.34988  -0.609564  0  2.298727  0
O  O70  1  0.06991098  0.74713211  0.76150339  1  -1.17625  0  -0.366109  -0.62253  0  2.413174  0
O  O71  1  0.73920043  0.07421345  0.42063991  1  -1.160333  0  -0.349105  -0.604503  0  2.30075  0
O  O72  1  0.92029596  0.26820189  0.23498192  1  -1.166588  0  -0.342803  -0.602085  0  2.232751  0
O  O73  1  0.26510764  0.92163656  0.57265204  1  -1.171711  0  -0.348646  -0.604667  0  2.299475  0
O  O74  1  0.26415322  0.74054249  0.42090734  1  -1.160843  0  -0.349328  -0.604973  0  2.299424  0
O  O75  1  0.91984465  0.07387713  0.76511297  1  -1.166777  0  -0.349861  -0.606083  0  2.296886  0
O  O76  1  0.73852619  0.26572714  0.57283959  1  -1.160921  0  -0.348461  -0.604275  0  2.30075  0
O  O77  1  0.07204569  0.92163544  0.23966023  1  -1.150558  0  -0.348676  -0.604169  0  2.29965  0
O  O78  1  0.07399776  0.92350384  0.76368264  1  -1.154938  0  -0.346604  -0.600565  0  2.304171  0
O  O79  1  0.73947785  0.26674627  0.41965532  1  -1.16185  0  -0.349902  -0.608807  0  2.300244  0
O  O80  1  0.91989565  0.07407150  0.23937436  1  -1.165333  0  -0.348917  -0.60684  0  2.303941  0
O  O81  1  0.26471177  0.74075803  0.57273609  1  -1.16022  0  -0.347965  -0.60389  0  2.300797  0
O  O82  1  0.92075279  0.73615099  0.76741118  1  -1.161558  0  -0.34298  -0.60182  0  2.235055  0
O  O83  1  0.26487758  0.07391251  0.42046351  1  -1.166508  0  -0.34917  -0.605018  0  2.300594  0
O  O84  1  0.06919904  0.26224693  0.24645999  1  -1.174617  0  -0.366966  -0.623274  0  2.416518  0
O  O85  1  0.73934592  0.92174149  0.57292801  1  -1.153226  0  -0.348947  -0.604783  0  2.299302  0
O  O86  1  0.73866011  0.07349873  0.76515648  1  -1.166626  0  -0.348151  -0.604498  0  2.300072  0
O  O87  1  0.07205002  0.74039851  0.42092148  1  -1.159717  0  -0.348329  -0.60421  0  2.298642  0
O  O88  1  0.26418926  0.92174300  0.23975983  1  -1.157204  0  -0.349042  -0.604364  0  2.297598  0
O  O89  1  0.91966532  0.26616347  0.57295716  1  -1.16499  0  -0.349861  -0.606771  0  2.295427  0
O  O90  1  0.79769964  0.06740392  0.56672121  1  -1.233152  0  -0.690687  -1.068033  0  2.361718  0
O  O91  1  0.06574704  0.06746959  0.56655631  1  -1.24716  0  -0.69629  -1.076802  0  2.379634  0
O  O92  1  0.06548097  0.06717133  0.29883842  1  -1.234065  0  -0.694416  -1.072163  0  2.373615  0
O  O93  1  0.06570507  0.79967128  0.56641060  1  -1.250054  0  -0.694122  -1.071535  0  2.373933  0
O  O94  1  0.14686101  0.95088063  0.45006833  1  -1.198506  0  -0.792963  -1.157413  0  2.136522  0
O  O95  1  0.94931953  0.95141640  0.45068023  1  -1.200681  0  -0.787414  -1.151559  0  2.122789  0
O  O96  1  0.94897932  0.14802465  0.45081819  1  -1.196096  0  -0.791241  -1.151859  0  2.135629  0
O  O97  1  0.94924262  0.95163188  0.64714419  1  -1.198647  0  -0.790822  -1.152033  0  2.135039  0
F  F98  1  0.16017888  0.41403429  0.33857968  1  -0.606921  0  -0.076271  -0.088928  0  1.432953  0
F  F99  1  0.83662485  0.58759972  0.66069299  1  -0.608636  0  -0.07517  -0.089952  0  1.414342  0
F  F100  1  0.15931192  0.58797807  0.33765459  1  -0.604094  0  -0.074606  -0.083288  0  1.406795  0
F  F101  1  0.83670164  0.41449268  0.66057023  1  -0.605202  0  -0.075891  -0.085554  0  1.407104  0
F  F102  1  0.41648681  0.15771295  0.08998623  1  -0.601894  0  -0.076364  -0.088673  0  1.431694  0
F  F103  1  0.58797577  0.83594130  0.91633664  1  -0.605775  0  -0.074775  -0.090388  0  1.415447  0
F  F104  1  0.58913880  0.15806859  0.91622782  1  -0.6019  0  -0.074399  -0.083116  0  1.406484  0
F  F105  1  0.41448762  0.83653746  0.08925867  1  -0.604428  0  -0.075618  -0.084935  0  1.407706  0
F  F106  1  0.83642185  0.16114430  0.91375834  1  -0.605026  0  -0.07597  -0.085269  0  1.406096  0
F  F107  1  0.15892519  0.83793464  0.08768954  1  -0.604005  0  -0.074631  -0.083713  0  1.405567  0
F  F108  1  0.83623585  0.16113664  0.08702142  1  -0.607536  0  -0.075488  -0.090127  0  1.413654  0
F  F109  1  0.16001258  0.83905789  0.91347190  1  -0.60704  0  -0.076491  -0.088991  0  1.432718  0
F  F110  1  0.41415242  0.58992253  0.33585539  1  -0.6066  0  -0.075594  -0.084897  0  1.406811  0
F  F111  1  0.58901999  0.41653455  0.65756346  1  -0.599688  0  -0.074368  -0.083175  0  1.405856  0
F  F112  1  0.58763779  0.41689239  0.33530529  1  -0.606305  0  -0.074779  -0.090292  0  1.415257  0
F  F113  1  0.41640052  0.59044473  0.65713879  1  -0.602492  0  -0.07579  -0.088286  0  1.432223  0
F  F114  1  0.41496347  0.83718709  0.65865172  1  -0.603476  0  -0.075748  -0.08428  0  1.407229  0
F  F115  1  0.58796447  0.16021794  0.33589272  1  -0.603811  0  -0.076328  -0.086827  0  1.406173  0
F  F116  1  0.58807432  0.83734761  0.65886703  1  -0.604705  0  -0.076416  -0.086777  0  1.405565  0
F  F117  1  0.41482111  0.15995373  0.33572227  1  -0.606075  0  -0.075457  -0.083803  0  1.40574  0
