# generated using pymatgen
data_MgHC6O5
_symmetry_space_group_name_H-M   'P 1'
_cell_length_a   6.97495620
_cell_length_b   15.11093312
_cell_length_c   15.10921968
_cell_angle_alpha   117.68061171
_cell_angle_beta   98.84766271
_cell_angle_gamma   98.84627910
_symmetry_Int_Tables_number   1
_chemical_formula_structural   MgHC6O5
_chemical_formula_sum   'Mg6 H6 C36 O30'
_cell_volume   1346.48948404
_cell_formula_units_Z   6
loop_
 _symmetry_equiv_pos_site_id
 _symmetry_equiv_pos_as_xyz
  1  'x, y, z'
loop_
 _atom_site_type_symbol
 _atom_site_label
 _atom_site_symmetry_multiplicity
 _atom_site_fract_x
 _atom_site_fract_y
 _atom_site_fract_z
 _atom_site_occupancy
 _atom_site_pbe_bader_charge
 _atom_site_pbe_bader_spin_density
 _atom_site_pbe_cm5_charge
 _atom_site_pbe_ddec_charge
 _atom_site_pbe_ddec_spin_density
 _atom_site_pbe_ddec_sum_bond_order
 _atom_site_pbe_magmom
Mg  Mg0  1  0.38013410  0.67310978  0.40994630  1  1.680018  0  0.794867  1.321919  0  1.518163  0
Mg  Mg1  1  0.97025817  0.59014677  0.26324465  1  1.677695  0  0.794579  1.321235  0  1.51923  0
Mg  Mg2  1  0.70706699  0.73685207  0.32695387  1  1.680654  0  0.79484  1.322018  0  1.517346  0
Mg  Mg3  1  0.61986455  0.32688947  0.59005600  1  1.68006  0  0.794871  1.321975  0  1.518062  0
Mg  Mg4  1  0.02974087  0.40985325  0.73675606  1  1.677618  0  0.794546  1.321251  0  1.519174  0
Mg  Mg5  1  0.29293273  0.26314640  0.67304616  1  1.680648  0  0.794833  1.321997  0  1.517347  0
H  H6  1  0.13500563  0.44916341  0.97784107  1  0.114228  0  0.104639  0.130762  0  1.018517  0
H  H7  1  0.15722239  0.02225217  0.47139223  1  0.113887  0  0.104666  0.130738  0  1.019982  0
H  H8  1  0.68529178  0.52815290  0.55049103  1  0.110731  0  0.105074  0.130971  0  1.018228  0
H  H9  1  0.86499747  0.55083892  0.02216100  1  0.114196  0  0.104638  0.130732  0  1.018542  0
H  H10  1  0.84277626  0.97774708  0.52860677  1  0.114186  0  0.104665  0.130746  0  1.019989  0
H  H11  1  0.31470513  0.47184866  0.44951024  1  0.11078  0  0.105059  0.130931  0  1.018308  0
C  C12  1  0.32108988  0.56982310  0.17361491  1  1.518479  0  0.23301  0.662339  0  4.111394  0
C  C13  1  0.14753786  0.82646113  0.39628046  1  1.53065  0  0.233227  0.66327  0  4.111947  0
C  C14  1  0.75108889  0.60364829  0.43009983  1  1.520407  0  0.231375  0.657449  0  4.116523  0
C  C15  1  0.67890809  0.43017769  0.82638675  1  1.51832  0  0.233005  0.662335  0  4.111476  0
C  C16  1  0.85245383  0.17353580  0.60371895  1  1.530373  0  0.233183  0.663219  0  4.112025  0
C  C17  1  0.24890937  0.39635018  0.56989680  1  1.520374  0  0.231308  0.657369  0  4.116589  0
C  C18  1  0.41946791  0.53902218  0.08700831  1  -0.024102  0  -0.037515  -0.160971  0  3.963151  0
C  C19  1  0.33247293  0.91304236  0.45204625  1  -0.067635  0  -0.037363  -0.159182  0  3.959377  0
C  C20  1  0.88016439  0.54778997  0.46084616  1  -0.024295  0  -0.03771  -0.159626  0  3.96168  0
C  C21  1  0.58053374  0.46098016  0.91299366  1  -0.023864  0  -0.037519  -0.161  0  3.963234  0
C  C22  1  0.66752891  0.08695456  0.54795321  1  -0.067617  0  -0.037292  -0.159025  0  3.959526  0
C  C23  1  0.11983427  0.45220927  0.53915416  1  -0.024348  0  -0.037675  -0.159595  0  3.961773  0
C  C24  1  0.29595945  0.47117169  0.98712229  1  -0.044919  0  -0.109519  -0.21415  0  3.970861  0
C  C25  1  0.30885903  0.01291876  0.48409735  1  -0.018301  0  -0.109211  -0.214929  0  3.971317  0
C  C26  1  0.82443321  0.51563451  0.52860513  1  -0.042286  0  -0.109288  -0.213935  0  3.969761  0
C  C27  1  0.70404365  0.52883065  0.01287779  1  -0.044857  0  -0.109495  -0.214115  0  3.970912  0
C  C28  1  0.69114068  0.98707971  0.51590136  1  -0.018629  0  -0.10923  -0.215021  0  3.971472  0
C  C29  1  0.17556360  0.48436396  0.47139602  1  -0.042332  0  -0.109308  -0.21393  0  3.969873  0
C  C30  1  0.36803754  0.42954932  0.89832566  1  0.590104  0  0.069641  0.307463  0  4.153745  0
C  C31  1  0.46972506  0.10165713  0.53121991  1  0.597402  0  0.069153  0.307418  0  4.155754  0
C  C32  1  0.93852885  0.46875218  0.57043840  1  0.58844  0  0.069191  0.306298  0  4.155104  0
C  C33  1  0.63196807  0.57045224  0.10167491  1  0.590188  0  0.069623  0.30745  0  4.153749  0
C  C34  1  0.53027688  0.89834288  0.46877902  1  0.597375  0  0.06918  0.307555  0  4.155678  0
C  C35  1  0.06146903  0.53124552  0.42956115  1  0.58853  0  0.069244  0.306292  0  4.155054  0
C  C36  1  0.34604479  0.74378608  0.58817319  1  1.06349  0  0.195251  0.131882  0  2.808168  0
C  C37  1  0.75809864  0.41195455  0.15565375  1  1.080255  0  0.196111  0.133711  0  2.809335  0
C  C38  1  0.60236741  0.84444458  0.25631039  1  1.065687  0  0.196689  0.134012  0  2.806155  0
C  C39  1  0.65396441  0.25621394  0.41182890  1  1.063569  0  0.195176  0.131778  0  2.808246  0
C  C40  1  0.24191143  0.58805011  0.84435056  1  1.08044  0  0.196164  0.133791  0  2.809282  0
C  C41  1  0.39763037  0.15555002  0.74368573  1  1.065159  0  0.196632  0.133932  0  2.806476  0
C  C42  1  0.83591052  0.87071670  0.65423181  1  1.134072  0  0.132129  0.134819  0  2.581733  0
C  C43  1  0.18389546  0.34544323  0.21697650  1  1.106494  0  0.130701  0.13306  0  2.578857  0
C  C44  1  0.96554640  0.78291187  0.12911677  1  1.133927  0  0.131087  0.133918  0  2.584945  0
C  C45  1  0.16408009  0.12928100  0.34575663  1  1.133829  0  0.131958  0.13479  0  2.580616  0
C  C46  1  0.81610184  0.65455911  0.78302317  1  1.106443  0  0.130669  0.133006  0  2.578995  0
C  C47  1  0.03448118  0.21709588  0.87089153  1  1.134039  0  0.131161  0.133828  0  2.584725  0
O  O48  1  0.43362650  0.62636638  0.26661778  1  -1.292242  0  -0.387274  -0.718058  0  2.432344  0
O  O49  1  0.16712567  0.73346523  0.35982714  1  -1.284442  0  -0.387503  -0.719853  0  2.434693  0
O  O50  1  0.80727738  0.64024893  0.37369541  1  -1.27706  0  -0.386919  -0.71675  0  2.432912  0
O  O51  1  0.56637399  0.37363363  0.73338435  1  -1.292217  0  -0.387252  -0.718088  0  2.432518  0
O  O52  1  0.83287512  0.26653247  0.64017526  1  -1.284364  0  -0.387463  -0.719848  0  2.43462  0
O  O53  1  0.19272117  0.35974722  0.62630412  1  -1.276978  0  -0.386873  -0.716726  0  2.432832  0
O  O54  1  0.13188677  0.53900912  0.15555692  1  -1.217406  0  -0.349226  -0.635411  0  2.238061  0
O  O55  1  0.97633421  0.84448399  0.38353228  1  -1.232788  0  -0.349649  -0.6357  0  2.237924  0
O  O56  1  0.59265740  0.61639532  0.46091099  1  -1.23368  0  -0.348933  -0.632869  0  2.240317  0
O  O57  1  0.86811372  0.46099090  0.84444389  1  -1.217389  0  -0.349228  -0.635406  0  2.23804  0
O  O58  1  0.02366299  0.15551525  0.61646860  1  -1.232617  0  -0.349652  -0.635673  0  2.237887  0
O  O59  1  0.40734087  0.38360315  0.53908960  1  -1.233672  0  -0.348916  -0.632821  0  2.240284  0
O  O60  1  0.23577460  0.36393931  0.80650313  1  -1.305345  0  -0.451109  -0.777068  0  2.427591  0
O  O61  1  0.42927163  0.19346676  0.55735939  1  -1.300991  0  -0.451007  -0.77835  0  2.430281  0
O  O62  1  0.87191729  0.44259968  0.63609545  1  -1.301193  0  -0.450943  -0.776104  0  2.428127  0
O  O63  1  0.76422627  0.63606148  0.19349740  1  -1.30537  0  -0.451112  -0.777055  0  2.427591  0
O  O64  1  0.57072808  0.80653171  0.44263932  1  -1.301019  0  -0.451019  -0.778434  0  2.430327  0
O  O65  1  0.12807982  0.55739647  0.36390333  1  -1.301208  0  -0.450924  -0.776032  0  2.428155  0
O  O66  1  0.34483835  0.77395004  0.67256633  1  -1.071691  0  -0.08228  -0.070551  0  2.458043  0
O  O67  1  0.67313540  0.32750509  0.10131410  1  -1.089172  0  -0.082875  -0.071578  0  2.459999  0
O  O68  1  0.57094128  0.89873191  0.22622254  1  -1.073979  0  -0.08376  -0.072558  0  2.456367  0
O  O69  1  0.65515914  0.22604688  0.32743548  1  -1.071753  0  -0.082199  -0.070448  0  2.458122  0
O  O70  1  0.32688404  0.67249802  0.89868485  1  -1.089366  0  -0.082926  -0.071662  0  2.459993  0
O  O71  1  0.42905746  0.10127043  0.77377658  1  -1.073458  0  -0.083695  -0.072468  0  2.456676  0
O  O72  1  0.99215740  0.87811886  0.63954290  1  -1.144419  0  -0.112183  -0.112689  0  2.500967  0
O  O73  1  0.35501609  0.36105333  0.23913009  1  -1.116535  0  -0.110756  -0.111091  0  2.501563  0
O  O74  1  0.11513456  0.76154604  0.12224000  1  -1.144211  0  -0.111266  -0.111934  0  2.503695  0
O  O75  1  0.00781330  0.12187961  0.36045707  1  -1.144193  0  -0.112012  -0.112675  0  2.499906  0
O  O76  1  0.64498439  0.63894668  0.76086873  1  -1.11648  0  -0.110725  -0.111038  0  2.501726  0
O  O77  1  0.88487210  0.23845475  0.87775035  1  -1.144322  0  -0.111345  -0.111847  0  2.503471  0
