# generated using pymatgen
data_Zn4H28C29S2O13
_symmetry_space_group_name_H-M   'P 1'
_cell_length_a   17.85498502
_cell_length_b   18.59447033
_cell_length_c   19.36613000
_cell_angle_alpha   118.82394222
_cell_angle_beta   115.98051875
_cell_angle_gamma   89.91151852
_symmetry_Int_Tables_number   1
_chemical_formula_structural   Zn4H28C29S2O13
_chemical_formula_sum   'Zn8 H56 C58 S4 O26'
_cell_volume   4881.05665661
_cell_formula_units_Z   2
loop_
 _symmetry_equiv_pos_site_id
 _symmetry_equiv_pos_as_xyz
  1  'x, y, z'
loop_
 _atom_site_type_symbol
 _atom_site_label
 _atom_site_symmetry_multiplicity
 _atom_site_fract_x
 _atom_site_fract_y
 _atom_site_fract_z
 _atom_site_occupancy
 _atom_site_pbe_bader_charge
 _atom_site_pbe_bader_spin_density
 _atom_site_pbe_cm5_charge
 _atom_site_pbe_ddec_charge
 _atom_site_pbe_ddec_spin_density
 _atom_site_pbe_ddec_sum_bond_order
 _atom_site_pbe_magmom
Zn  Zn0  1  0.87091507  0.45795809  0.92119431  1  1.297449  0  0.66682  0.947921  0  2.397585  0
Zn  Zn1  1  0.03693007  0.44880732  0.06906065  1  1.303855  0  0.66727  0.955761  0  2.397126  0
Zn  Zn2  1  0.03244296  0.61877297  0.06691983  1  1.313332  0  0.666609  0.944651  0  2.423272  0
Zn  Zn3  1  0.04652812  0.45596267  0.90878340  1  1.317309  0  0.669902  0.97023  0  2.331625  0
Zn  Zn4  1  0.62320851  0.03229933  0.06809501  1  1.311637  0  0.667774  0.955429  0  2.388294  0
Zn  Zn5  1  0.45877013  0.87178162  0.91387962  1  1.304752  0  0.667169  0.952241  0  2.403917  0
Zn  Zn6  1  0.46388066  0.04220884  0.91434332  1  1.317197  0  0.667926  0.955577  0  2.403187  0
Zn  Zn7  1  0.44074029  0.03542263  0.06731758  1  1.30617  0  0.669721  0.968011  0  2.344607  0
H  H8  1  0.79160419  0.18001660  0.36171817  1  0.115358  0  0.119938  0.146073  0  0.970383  0
H  H9  1  0.31355551  0.69210178  0.61300003  1  0.121066  0  0.119781  0.14538  0  0.969923  0
H  H10  1  0.78595790  0.68341233  0.87938980  1  0.028762  0  0.091765  0.086772  0  0.978874  0
H  H11  1  0.87173836  0.76874370  0.98277114  1  0.021111  0  0.093024  0.09173  0  0.982888  0
H  H12  1  0.78227925  0.86043471  0.97961744  1  0.038748  0  0.09337  0.092164  0  0.981388  0
H  H13  1  0.69662791  0.77443204  0.87674445  1  0.035606  0  0.091536  0.086396  0  0.979157  0
H  H14  1  0.80309198  0.89353815  0.12967699  1  0.071883  0  0.092567  0.094064  0  0.986323  0
H  H15  1  0.73225088  0.83266159  0.13474585  1  0.015705  0  0.090184  0.084777  0  0.980005  0
H  H16  1  0.89178149  0.80072340  0.13263874  1  0.036706  0  0.092054  0.092939  0  0.989551  0
H  H17  1  0.81942718  0.73949425  0.13588916  1  0.022891  0  0.089632  0.083429  0  0.980498  0
H  H18  1  0.68229424  0.59328249  0.88318822  1  0.034408  0  0.090219  0.089728  0  0.986988  0
H  H19  1  0.69601850  0.61579228  0.98771994  1  0.017438  0  0.089721  0.086447  0  0.979518  0
H  H20  1  0.60712113  0.70801301  0.98580107  1  0.02099  0  0.089396  0.086002  0  0.980895  0
H  H21  1  0.59339860  0.68540369  0.88129079  1  0.021578  0  0.090978  0.09135  0  0.986636  0
H  H22  1  0.09143845  0.18254874  0.87005026  1  0.004707  0  0.090614  0.084392  0  0.980583  0
H  H23  1  0.10896161  0.20863295  0.97764830  1  0.018223  0  0.092399  0.091419  0  0.984458  0
H  H24  1  0.19787674  0.11604285  0.97870850  1  0.026712  0  0.092486  0.091095  0  0.983373  0
H  H25  1  0.18019539  0.09102632  0.87137819  1  0.049715  0  0.091501  0.086632  0  0.979708  0
H  H26  1  0.32058729  0.23817294  0.12200308  1  0.032997  0  0.092901  0.093575  0  0.985527  0
H  H27  1  0.39200338  0.30000233  0.11835691  1  0.021439  0  0.089573  0.083468  0  0.980407  0
H  H28  1  0.23286716  0.33191348  0.12117376  1  0.047478  0  0.093483  0.095663  0  0.988628  0
H  H29  1  0.30383282  0.39197504  0.11538007  1  0.027817  0  0.089506  0.083683  0  0.97977  0
H  H30  1  0.19149009  0.26986310  0.86062652  1  0.044993  0  0.090655  0.089964  0  0.984758  0
H  H31  1  0.27797128  0.35568959  0.96029025  1  0.03879  0  0.08929  0.086617  0  0.981425  0
H  H32  1  0.36739057  0.26410628  0.96265086  1  0.013106  0  0.089402  0.086549  0  0.982001  0
H  H33  1  0.28111737  0.17836118  0.86285988  1  0.043226  0  0.090539  0.089801  0  0.983547  0
H  H34  1  0.82500194  0.19365373  0.91376685  1  0.017948  0  0.091324  0.086158  0  0.979096  0
H  H35  1  0.73350791  0.22259595  0.85824410  1  0.019011  0  0.092715  0.091177  0  0.984065  0
H  H36  1  0.64579105  0.12658086  0.85519628  1  0.039933  0  0.093904  0.093196  0  0.982585  0
H  H37  1  0.73792994  0.09905960  0.91194991  1  0.015192  0  0.091365  0.086197  0  0.978052  0
H  H38  1  0.59799365  0.24793012  0.94471287  1  0.062926  0  0.092851  0.094723  0  0.98715  0
H  H39  1  0.65478473  0.30544922  0.06458753  1  0.026659  0  0.089323  0.082924  0  0.980317  0
H  H40  1  0.68707713  0.34453781  0.94921913  1  0.03456  0  0.092507  0.095021  0  0.985825  0
H  H41  1  0.74419081  0.40056232  0.06905653  1  0.037179  0  0.089759  0.084332  0  0.979927  0
H  H42  1  0.90879469  0.27529836  0.08701752  1  0.034017  0  0.091079  0.090785  0  0.985157  0
H  H43  1  0.87604834  0.35996303  0.15015832  1  0.035762  0  0.089641  0.08643  0  0.981028  0
H  H44  1  0.78695448  0.26544514  0.14725573  1  0.042815  0  0.089536  0.086747  0  0.981827  0
H  H45  1  0.82020661  0.18082522  0.08482106  1  0.057225  0  0.090361  0.08978  0  0.984201  0
H  H46  1  0.08695213  0.71989515  0.90257739  1  0.023557  0  0.091268  0.08655  0  0.978922  0
H  H47  1  0.12230792  0.63500623  0.84175367  1  0.033002  0  0.093904  0.093561  0  0.979977  0
H  H48  1  0.20979997  0.73042349  0.84398890  1  0.028407  0  0.093485  0.091971  0  0.98303  0
H  H49  1  0.17562694  0.81521185  0.90675570  1  0.008685  0  0.091313  0.085926  0  0.978779  0
H  H50  1  0.33882888  0.68964614  0.92458345  1  0.045485  0  0.092942  0.095157  0  0.986324  0
H  H51  1  0.39824831  0.74620894  0.04433914  1  0.018219  0  0.089251  0.083216  0  0.980059  0
H  H52  1  0.25112807  0.59564213  0.92431601  1  0.05195  0  0.093011  0.094407  0  0.986007  0
H  H53  1  0.31015066  0.65385915  0.04416350  1  0.044145  0  0.089383  0.084081  0  0.978996  0
H  H54  1  0.17030563  0.80460127  0.07568733  1  0.027342  0  0.090178  0.090402  0  0.987939  0
H  H55  1  0.26063515  0.77749801  0.13404888  1  0.037491  0  0.088416  0.084107  0  0.983768  0
H  H56  1  0.35058097  0.87041206  0.13607205  1  0.01927  0  0.089397  0.086329  0  0.981015  0
H  H57  1  0.26043595  0.89865825  0.07909982  1  0.030288  0  0.090718  0.090254  0  0.984518  0
H  H58  1  0.67434092  0.38218192  0.66981851  1  0.086446  0  0.101357  0.14635  0  0.978165  0
H  H59  1  0.59887597  0.28461884  0.56982505  1  0.032597  0  0.09011  0.126406  0  1.00168  0
H  H60  1  0.67490312  0.28786481  0.67003720  1  0.069895  0  0.101466  0.146911  0  0.977708  0
H  H61  1  0.11368621  0.81466000  0.32740432  1  0.082738  0  0.102379  0.147878  0  0.976331  0
H  H62  1  0.21352511  0.88696330  0.42655672  1  0.04287  0  0.089889  0.125866  0  1.001724  0
H  H63  1  0.20938263  0.81300248  0.32183536  1  0.054476  0  0.101815  0.146931  0  0.979014  0
C  C64  1  0.85795486  0.36397327  0.00281943  1  1.538837  0  0.233467  0.60073  0  4.103604  0
C  C65  1  0.12092083  0.61909312  0.23707842  1  1.566412  0  0.213054  0.610262  0  4.225373  0
C  C66  1  0.85585572  0.63618326  0.00056011  1  1.547155  0  0.233594  0.601096  0  4.09946  0
C  C67  1  0.13559998  0.63131928  0.98500097  1  1.567123  0  0.234238  0.602711  0  4.098682  0
C  C68  1  0.87127831  0.37268715  0.74611356  1  1.556527  0  0.213376  0.610754  0  4.218189  0
C  C69  1  0.13637966  0.35456335  0.98450875  1  1.52182  0  0.234565  0.603639  0  4.09393  0
C  C70  1  0.63951117  0.85793584  0.99555354  1  1.547891  0  0.234723  0.602777  0  4.098784  0
C  C71  1  0.38117745  0.87163532  0.74510222  1  1.588918  0  0.215508  0.605979  0  4.229165  0
C  C72  1  0.64260583  0.13570153  0.99629358  1  1.55046  0  0.233494  0.600886  0  4.102302  0
C  C73  1  0.35359906  0.13278849  0.98794720  1  1.541398  0  0.23485  0.604169  0  4.097257  0
C  C74  1  0.61099161  0.11813040  0.23667943  1  1.526198  0  0.215707  0.609456  0  4.219414  0
C  C75  1  0.35133537  0.85706889  0.98814204  1  1.566596  0  0.235195  0.602314  0  4.098113  0
C  C76  1  0.72851089  0.29665422  0.59324939  1  0.035884  0  -0.004217  0.143163  0  3.970162  0
C  C77  1  0.74919577  0.19485275  0.39055599  1  0.00067  0  -0.090368  -0.134243  0  3.968836  0
C  C78  1  0.81857200  0.32303122  0.64654166  1  -0.159733  0  -0.029894  -0.196462  0  3.939219  0
C  C79  1  0.65999894  0.16835030  0.33681213  1  -0.076967  0  -0.027196  -0.121651  0  3.986144  0
C  C80  1  0.77470672  0.24169736  0.48376205  1  -0.162641  0  -0.024928  -0.005592  0  4.098607  0
C  C81  1  0.70446814  0.25012593  0.49997149  1  -0.165963  0  -0.025052  -0.081962  0  4.041546  0
C  C82  1  0.19840648  0.75842866  0.39413813  1  0.141108  0  -0.00432  0.142093  0  3.973746  0
C  C83  1  0.30006816  0.73464346  0.58805871  1  0.032899  0  -0.088913  -0.133809  0  3.969774  0
C  C84  1  0.17031825  0.66990447  0.33658797  1  -0.206254  0  -0.03002  -0.196606  0  3.944976  0
C  C85  1  0.32912463  0.82240999  0.64549975  1  -0.190107  0  -0.027856  -0.121672  0  3.994505  0
C  C86  1  0.25238424  0.71064456  0.49639042  1  -0.189498  0  -0.024936  -0.004842  0  4.101937  0
C  C87  1  0.24561387  0.78065209  0.48557419  1  -0.199661  0  -0.025045  -0.082579  0  4.048787  0
C  C88  1  0.80382742  0.73462554  0.94891992  1  -0.021646  0  -0.154796  -0.169677  0  3.848184  0
C  C89  1  0.74454435  0.79546591  0.94717598  1  -0.046837  0  -0.154291  -0.168455  0  3.850386  0
C  C90  1  0.69671498  0.79733791  0.99793171  1  0.055445  0  -0.01634  0.021353  0  3.811511  0
C  C91  1  0.76513882  0.82866393  0.09694698  1  -0.0515  0  -0.16017  -0.175002  0  3.866902  0
C  C92  1  0.82366692  0.76722873  0.09834471  1  -0.040297  0  -0.160034  -0.172895  0  3.866263  0
C  C93  1  0.79602473  0.69455955  0.00032266  1  0.039457  0  -0.01653  0.021725  0  3.812451  0
C  C94  1  0.70145027  0.64568090  0.95244803  1  -0.025124  0  -0.164565  -0.176957  0  3.889724  0
C  C95  1  0.64264690  0.70661644  0.95117668  1  0.004713  0  -0.165179  -0.177495  0  3.889295  0
C  C96  1  0.14193010  0.20523040  0.94017157  1  -0.008302  0  -0.154591  -0.167217  0  3.847714  0
C  C97  1  0.20109021  0.14405722  0.94108887  1  -0.03393  0  -0.15538  -0.17043  0  3.850207  0
C  C98  1  0.29581853  0.19307630  0.98613507  1  0.041751  0  -0.016857  0.020557  0  3.810108  0
C  C99  1  0.32396402  0.26591942  0.08428679  1  -0.021849  0  -0.158767  -0.17152  0  3.866348  0
C  C100  1  0.26541520  0.32726758  0.08307408  1  -0.043738  0  -0.159494  -0.173897  0  3.863632  0
C  C101  1  0.19609912  0.29585510  0.98414700  1  0.066963  0  -0.016143  0.021123  0  3.810235  0
C  C102  1  0.24074628  0.29136562  0.93064443  1  -0.048015  0  -0.164288  -0.177725  0  3.892291  0
C  C103  1  0.29999947  0.23070877  0.93209082  1  -0.024856  0  -0.164595  -0.175912  0  3.883728  0
C  C104  1  0.76891467  0.21620242  0.91694737  1  -0.003848  0  -0.154925  -0.169507  0  3.850863  0
C  C105  1  0.71067713  0.15299099  0.91521647  1  -0.035011  0  -0.155685  -0.169552  0  3.849818  0
C  C106  1  0.70240326  0.19889378  0.00176312  1  0.053035  0  -0.01596  0.021709  0  3.812897  0
C  C107  1  0.66293571  0.27360192  0.00444467  1  -0.048715  0  -0.15916  -0.173021  0  3.861529  0
C  C108  1  0.72197174  0.33697338  0.00711792  1  -0.048088  0  -0.159476  -0.175404  0  3.864176  0
C  C109  1  0.80130889  0.30507678  0.00519648  1  0.063308  0  -0.016392  0.022214  0  3.810761  0
C  C110  1  0.85160279  0.29664929  0.08757122  1  -0.032346  0  -0.164218  -0.176143  0  3.885176  0
C  C111  1  0.79281007  0.23399001  0.08579083  1  -0.063494  0  -0.164278  -0.1773  0  3.888506  0
C  C112  1  0.14473373  0.69880092  0.90325676  1  -0.029396  0  -0.154834  -0.171344  0  3.847575  0
C  C113  1  0.20344701  0.76194939  0.90510867  1  0.000537  0  -0.154222  -0.16708  0  3.8458  0
C  C114  1  0.29456729  0.79763646  0.98999375  1  0.035931  0  -0.016404  0.022492  0  3.810526  0
C  C115  1  0.33249080  0.72179802  0.98566557  1  -0.027689  0  -0.1603  -0.175048  0  3.862852  0
C  C116  1  0.27404917  0.65988374  0.98519313  1  -0.064785  0  -0.159961  -0.174323  0  3.866984  0
C  C117  1  0.19529259  0.69259262  0.98785968  1  0.048851  0  -0.015736  0.021416  0  3.808034  0
C  C118  1  0.22663117  0.78202148  0.07386069  1  -0.038164  0  -0.165451  -0.177533  0  3.888149  0
C  C119  1  0.28598931  0.84396919  0.07553535  1  -0.017259  0  -0.164768  -0.177012  0  3.890819  0
C  C120  1  0.66545781  0.31352625  0.62711253  1  -0.054908  0  -0.232743  -0.395107  0  3.965101  0
C  C121  1  0.18309571  0.82193454  0.36632484  1  -0.046928  0  -0.232035  -0.393797  0  3.963016  0
S  S122  1  0.87198713  0.29165178  0.58411203  1  0.265685  0  0.070024  0.110085  0  2.758177  0
S  S123  1  0.60673495  0.20015566  0.39924947  1  0.235272  0  0.074926  0.113912  0  2.749047  0
S  S124  1  0.20036827  0.61564351  0.39288233  1  0.255757  0  0.071306  0.11155  0  2.760405  0
S  S125  1  0.29833257  0.87617061  0.58896100  1  0.249552  0  0.076348  0.116545  0  2.768196  0
O  O126  1  0.99752231  0.49434151  0.99018990  1  -1.218135  0  -0.572857  -1.024191  0  2.543839  0
O  O127  1  0.81970849  0.38519502  0.94490077  1  -1.17  0  -0.317853  -0.552732  0  2.347294  0
O  O128  1  0.10517854  0.53802163  0.19902191  1  -1.157527  0  -0.321909  -0.547157  0  2.33563  0
O  O129  1  0.93684420  0.67238515  0.05188912  1  -1.174797  0  -0.316912  -0.549148  0  2.352243  0
O  O130  1  0.93904580  0.38606194  0.05689647  1  -1.19006  0  -0.312062  -0.543419  0  2.365901  0
O  O131  1  0.82125118  0.55611642  0.94866495  1  -1.173274  0  -0.313644  -0.547593  0  2.360116  0
O  O132  1  0.09807238  0.65973468  0.19679134  1  -1.170174  0  -0.3118  -0.534371  0  2.349781  0
O  O133  1  0.10662105  0.66485264  0.03976338  1  -1.189033  0  -0.315921  -0.549457  0  2.384576  0
O  O134  1  0.95358419  0.38963137  0.78014468  1  -1.166086  0  -0.323283  -0.55292  0  2.325984  0
O  O135  1  0.11821572  0.55173015  0.92785025  1  -1.182191  0  -0.315168  -0.550355  0  2.324159  0
O  O136  1  0.83047084  0.39473146  0.79025691  1  -1.161682  0  -0.312287  -0.534522  0  2.345534  0
O  O137  1  0.10490811  0.36944496  0.03648250  1  -1.172914  0  -0.318054  -0.553414  0  2.357981  0
O  O138  1  0.12179121  0.38357606  0.93343013  1  -1.170527  0  -0.312493  -0.546817  0  2.339244  0
O  O139  1  0.49682413  0.99628173  0.99267898  1  -1.221173  0  -0.573066  -1.026617  0  2.542378  0
O  O140  1  0.67727916  0.93754233  0.04555598  1  -1.168824  0  -0.316642  -0.549868  0  2.338536  0
O  O141  1  0.40304310  0.82942423  0.78355567  1  -1.161293  0  -0.317616  -0.536739  0  2.315662  0
O  O142  1  0.56298002  0.11209973  0.93594248  1  -1.186396  0  -0.316755  -0.551466  0  2.353385  0
O  O143  1  0.55834121  0.82460825  0.94305643  1  -1.188551  0  -0.313629  -0.547981  0  2.372434  0
O  O144  1  0.67599108  0.11054690  0.05109329  1  -1.176953  0  -0.31183  -0.543661  0  2.359104  0
O  O145  1  0.40005002  0.95276023  0.78425897  1  -1.167797  0  -0.321475  -0.546813  0  2.342125  0
O  O146  1  0.38697259  0.11418196  0.93727930  1  -1.179612  0  -0.313148  -0.546004  0  2.376526  0
O  O147  1  0.52848226  0.10196057  0.19838360  1  -1.177625  0  -0.321351  -0.548798  0  2.315053  0
O  O148  1  0.36416508  0.10547819  0.03997463  1  -1.167285  0  -0.317449  -0.55456  0  2.331618  0
O  O149  1  0.65607562  0.09535000  0.19739488  1  -1.161634  0  -0.31875  -0.541245  0  2.32074  0
O  O150  1  0.37458157  0.82173689  0.92834172  1  -1.186616  0  -0.318467  -0.552753  0  2.354591  0
O  O151  1  0.37078946  0.93679957  0.04513205  1  -1.181703  0  -0.312993  -0.547041  0  2.349424  0
