# generated using pymatgen
data_LiH2CN7O
_symmetry_space_group_name_H-M   'P 1'
_cell_length_a   4.67603260
_cell_length_b   8.97838718
_cell_length_c   12.72995830
_cell_angle_alpha   95.52046439
_cell_angle_beta   89.99998384
_cell_angle_gamma   89.99960652
_symmetry_Int_Tables_number   1
_chemical_formula_structural   LiH2CN7O
_chemical_formula_sum   'Li4 H8 C4 N28 O4'
_cell_volume   531.96597416
_cell_formula_units_Z   4
loop_
 _symmetry_equiv_pos_site_id
 _symmetry_equiv_pos_as_xyz
  1  'x, y, z'
loop_
 _atom_site_type_symbol
 _atom_site_label
 _atom_site_symmetry_multiplicity
 _atom_site_fract_x
 _atom_site_fract_y
 _atom_site_fract_z
 _atom_site_occupancy
 _atom_site_hle17_bader_spin_density
 _atom_site_hle17_ddec_charge
 _atom_site_hle17_ddec_spin_density
 _atom_site_hle17_ddec_sum_bond_order
 _atom_site_hle17_magmom
 _atom_site_hse06_10hf_bader_spin_density
 _atom_site_hse06_10hf_ddec_charge
 _atom_site_hse06_10hf_ddec_spin_density
 _atom_site_hse06_10hf_ddec_sum_bond_order
 _atom_site_hse06_10hf_magmom
 _atom_site_hse06_bader_spin_density
 _atom_site_hse06_ddec_charge
 _atom_site_hse06_ddec_spin_density
 _atom_site_hse06_ddec_sum_bond_order
 _atom_site_hse06_magmom
 _atom_site_pbe_bader_spin_density
 _atom_site_pbe_cm5_charge
 _atom_site_pbe_ddec_charge
 _atom_site_pbe_ddec_spin_density
 _atom_site_pbe_ddec_sum_bond_order
 _atom_site_pbe_magmom
Li  Li0  1  0.49174801  0.00196774  0.15299957  1  0  0.803826  0  0.458085  0  0  0.732837  0  0.608286  0  0  0.743901  0  0.590514  0  0  0.529782  0.725005  0  0.620879  0
Li  Li1  1  0.99174644  0.99803334  0.34700179  1  0  0.803825  0  0.458103  0  0  0.732822  0  0.608331  0  0  0.743874  0  0.590566  0  0  0.529805  0.724992  0  0.620924  0
Li  Li2  1  0.50825093  0.99803229  0.84700025  1  0  0.803821  0  0.458097  0  0  0.73283  0  0.6083  0  0  0.743893  0  0.590529  0  0  0.529783  0.725  0  0.620892  0
Li  Li3  1  0.00825249  0.00196670  0.65299881  1  0  0.803824  0  0.458101  0  0  0.732818  0  0.608333  0  0  0.743871  0  0.590568  0  0  0.529792  0.724991  0  0.620926  0
H  H4  1  0.35622164  0.17877054  0.31299227  1  0  0.410148  0  0.899686  0  0  0.369662  0  0.979322  0  0  0.381036  0  0.962864  0  0  0.301074  0.36168  0  0.990851  0
H  H5  1  0.85622679  0.82122991  0.18700828  1  0  0.410186  0  0.899626  0  0  0.369691  0  0.979277  0  0  0.381066  0  0.962819  0  0  0.301085  0.361708  0  0.990806  0
H  H6  1  0.64377943  0.82122950  0.68700755  1  0  0.410146  0  0.899691  0  0  0.369655  0  0.979336  0  0  0.381029  0  0.962877  0  0  0.301069  0.361673  0  0.990864  0
H  H7  1  0.14377642  0.17877012  0.81299153  1  0  0.41014  0  0.899699  0  0  0.36964  0  0.979356  0  0  0.381015  0  0.962895  0  0  0.301058  0.361657  0  0.990884  0
H  H8  1  0.11970064  0.18022593  0.21705452  1  0  0.410596  0  0.899726  0  0  0.370616  0  0.978725  0  0  0.381492  0  0.962949  0  0  0.301476  0.36297  0  0.989812  0
H  H9  1  0.61970147  0.81977426  0.28294526  1  0  0.41059  0  0.899733  0  0  0.370612  0  0.978731  0  0  0.381489  0  0.962952  0  0  0.301477  0.362966  0  0.989817  0
H  H10  1  0.88030043  0.81977299  0.78294601  1  0  0.41058  0  0.899745  0  0  0.370598  0  0.978749  0  0  0.381474  0  0.962972  0  0  0.301477  0.362952  0  0.989836  0
H  H11  1  0.38029960  0.18022689  0.71705463  1  0  0.410683  0  0.89961  0  0  0.370649  0  0.978702  0  0  0.381529  0  0.962919  0  0  0.301502  0.363003  0  0.989789  0
C  C12  1  0.05369748  0.28538594  0.02202408  1  0  0.419508  0  3.878235  0  0  0.375933  0  4.188538  0  0  0.392833  0  4.201422  0  0  0.33019  0.364036  0  4.180768  0
C  C13  1  0.55369956  0.71461113  0.47797471  1  0  0.419513  0  3.878285  0  0  0.375934  0  4.188592  0  0  0.392833  0  4.20148  0  0  0.33024  0.36404  0  4.180818  0
C  C14  1  0.94630359  0.71461409  0.97797574  1  0  0.419522  0  3.878309  0  0  0.375939  0  4.188597  0  0  0.392841  0  4.201481  0  0  0.330221  0.364042  0  4.180826  0
C  C15  1  0.44630151  0.28538891  0.52202589  1  0  0.419549  0  3.878312  0  0  0.375967  0  4.188604  0  0  0.392866  0  4.201493  0  0  0.330278  0.364072  0  4.180832  0
N  N16  1  0.92746633  0.22876637  0.10445697  1  0  -0.358141  0  3.024477  0  0  -0.320879  0  3.301037  0  0  -0.33605  0  3.314196  0  0  -0.210524  -0.310535  0  3.292545  0
N  N17  1  0.42746186  0.77123158  0.39554262  1  0  -0.358166  0  3.024495  0  0  -0.320899  0  3.301046  0  0  -0.33607  0  3.314206  0  0  -0.210532  -0.310548  0  3.292544  0
N  N18  1  0.07253474  0.77123254  0.89554278  1  0  -0.358158  0  3.024509  0  0  -0.320871  0  3.301039  0  0  -0.336043  0  3.314198  0  0  -0.210528  -0.310529  0  3.29255  0
N  N19  1  0.57253921  0.22876845  0.60445798  1  0  -0.358193  0  3.024564  0  0  -0.320871  0  3.301091  0  0  -0.336044  0  3.314253  0  0  -0.210534  -0.310521  0  3.292593  0
N  N20  1  0.94964728  0.22391613  0.92942773  1  0  -0.335044  0  3.013942  0  0  -0.297122  0  3.291093  0  0  -0.310873  0  3.30238  0  0  -0.20121  -0.287686  0  3.283683  0
N  N21  1  0.44964724  0.77608127  0.57057195  1  0  -0.33496  0  3.013864  0  0  -0.297029  0  3.290999  0  0  -0.310781  0  3.302293  0  0  -0.201181  -0.28759  0  3.283587  0
N  N22  1  0.05035165  0.77608391  0.07057130  1  0  -0.334982  0  3.01397  0  0  -0.297086  0  3.291123  0  0  -0.310836  0  3.302415  0  0  -0.201203  -0.287649  0  3.28371  0
N  N23  1  0.55035383  0.22391765  0.42942857  1  0  -0.334914  0  3.013841  0  0  -0.297024  0  3.290989  0  0  -0.310776  0  3.302282  0  0  -0.201168  -0.287582  0  3.283572  0
N  N24  1  0.75152484  0.12578309  0.95623811  1  0  -0.16523  0  3.103686  0  0  -0.147831  0  3.41287  0  0  -0.148283  0  3.424723  0  0  -0.165004  -0.147254  0  3.405003  0
N  N25  1  0.25151925  0.87421725  0.54376337  1  0  -0.165365  0  3.103669  0  0  -0.147975  0  3.412869  0  0  -0.148423  0  3.424724  0  0  -0.165065  -0.147395  0  3.405003  0
N  N26  1  0.24847623  0.87421694  0.04376092  1  0  -0.165321  0  3.103669  0  0  -0.147948  0  3.41288  0  0  -0.148402  0  3.424732  0  0  -0.165062  -0.147369  0  3.405011  0
N  N27  1  0.74848183  0.12578166  0.45623716  1  0  -0.165324  0  3.103643  0  0  -0.14795  0  3.412851  0  0  -0.148398  0  3.424705  0  0  -0.165074  -0.147367  0  3.404979  0
N  N28  1  0.43673210  0.52373686  0.18398897  1  0  -0.153268  0  2.404097  0  0  -0.169875  0  2.64833  0  0  -0.166133  0  2.653235  0  0  -0.045369  -0.172093  0  2.645054  0
N  N29  1  0.93673530  0.47625882  0.31600811  1  0  -0.153286  0  2.403851  0  0  -0.169859  0  2.64804  0  0  -0.166118  0  2.65295  0  0  -0.045353  -0.172066  0  2.644756  0
N  N30  1  0.56326683  0.47626317  0.81601085  1  0  -0.153331  0  2.404034  0  0  -0.169834  0  2.648259  0  0  -0.166092  0  2.653163  0  0  -0.045361  -0.172052  0  2.644984  0
N  N31  1  0.06326363  0.52374010  0.68399085  1  0  -0.153395  0  2.403857  0  0  -0.1699  0  2.648063  0  0  -0.16616  0  2.652971  0  0  -0.045382  -0.172105  0  2.64478  0
N  N32  1  0.34234488  0.45452682  0.11231004  1  0  0.365934  0  3.956934  0  0  0.390723  0  4.267128  0  0  0.404265  0  4.286313  0  0  0.153954  0.381448  0  4.25428  0
N  N33  1  0.84234070  0.54547256  0.38768965  1  0  0.365897  0  3.956837  0  0  0.390685  0  4.26704  0  0  0.404225  0  4.286231  0  0  0.153942  0.38141  0  4.254185  0
N  N34  1  0.65765405  0.54547321  0.88768977  1  0  0.365963  0  3.956916  0  0  0.390724  0  4.267118  0  0  0.404267  0  4.286303  0  0  0.153973  0.38145  0  4.254269  0
N  N35  1  0.15765823  0.45452636  0.61231009  1  0  0.36596  0  3.956835  0  0  0.390731  0  4.267036  0  0  0.404273  0  4.286225  0  0  0.153965  0.381456  0  4.254181  0
N  N36  1  0.73824677  0.12862620  0.06011137  1  0  -0.16599  0  3.108282  0  0  -0.147616  0  3.417159  0  0  -0.148527  0  3.429573  0  0  -0.164052  -0.146785  0  3.408997  0
N  N37  1  0.23824309  0.87137356  0.43988836  1  0  -0.165898  0  3.108241  0  0  -0.147516  0  3.417111  0  0  -0.148423  0  3.429528  0  0  -0.164014  -0.146683  0  3.408946  0
N  N38  1  0.26175217  0.87137272  0.93988758  1  0  -0.165936  0  3.108281  0  0  -0.147541  0  3.417141  0  0  -0.148452  0  3.429556  0  0  -0.164014  -0.146712  0  3.40898  0
N  N39  1  0.76175798  0.12862647  0.56011225  1  0  -0.165985  0  3.108245  0  0  -0.147589  0  3.417092  0  0  -0.148497  0  3.429509  0  0  -0.16404  -0.146756  0  3.408926  0
N  N40  1  0.26702505  0.39266141  0.02547550  1  0  -0.288649  0  3.007832  0  0  -0.279965  0  3.29841  0  0  -0.299975  0  3.313594  0  0  -0.150724  -0.266372  0  3.288609  0
N  N41  1  0.76702214  0.60733824  0.47452344  1  0  -0.288605  0  3.007983  0  0  -0.279931  0  3.298583  0  0  -0.299937  0  3.313768  0  0  -0.150752  -0.266339  0  3.288781  0
N  N42  1  0.73297388  0.60733974  0.97452439  1  0  -0.288628  0  3.007885  0  0  -0.28  0  3.298472  0  0  -0.300006  0  3.313645  0  0  -0.150755  -0.266405  0  3.288669  0
N  N43  1  0.23297679  0.39266179  0.52547717  1  0  -0.288592  0  3.007987  0  0  -0.279973  0  3.298595  0  0  -0.299977  0  3.313767  0  0  -0.150759  -0.26638  0  3.288794  0
O  O44  1  0.24172758  0.11551501  0.25866688  1  0  -0.943696  0  1.86735  0  0  -0.876494  0  2.065277  0  0  -0.893697  0  2.03045  0  0  -0.679616  -0.864443  0  2.089573  0
O  O45  1  0.74172758  0.88448697  0.24133536  1  0  -0.943713  0  1.867284  0  0  -0.876497  0  2.065205  0  0  -0.893702  0  2.030371  0  0  -0.679631  -0.864448  0  2.089502  0
O  O46  1  0.75827349  0.88448502  0.74133373  1  0  -0.943681  0  1.867356  0  0  -0.876476  0  2.065292  0  0  -0.893679  0  2.030467  0  0  -0.679609  -0.864422  0  2.089588  0
O  O47  1  0.25827349  0.11551306  0.75866445  1  0  -0.943761  0  1.867186  0  0  -0.876516  0  2.065173  0  0  -0.893721  0  2.030347  0  0  -0.679628  -0.864466  0  2.089467  0
