# generated using pymatgen
data_CdH20C31N4O5
_symmetry_space_group_name_H-M   'P 1'
_cell_length_a   11.57397784
_cell_length_b   11.89492022
_cell_length_c   25.69219116
_cell_angle_alpha   90.00030869
_cell_angle_beta   89.99983411
_cell_angle_gamma   99.12989167
_symmetry_Int_Tables_number   1
_chemical_formula_structural   CdH20C31N4O5
_chemical_formula_sum   'Cd4 H80 C124 N16 O20'
_cell_volume   3492.27285665
_cell_formula_units_Z   4
loop_
 _symmetry_equiv_pos_site_id
 _symmetry_equiv_pos_as_xyz
  1  'x, y, z'
loop_
 _atom_site_type_symbol
 _atom_site_label
 _atom_site_symmetry_multiplicity
 _atom_site_fract_x
 _atom_site_fract_y
 _atom_site_fract_z
 _atom_site_occupancy
 _atom_site_pbe_bader_charge
 _atom_site_pbe_bader_spin_density
 _atom_site_pbe_cm5_charge
 _atom_site_pbe_ddec_charge
 _atom_site_pbe_ddec_spin_density
 _atom_site_pbe_ddec_sum_bond_order
 _atom_site_pbe_magmom
Cd  Cd0  1  0.80887258  0.51618632  0.14777730  1  1.235958  0  0.771246  0.850486  0  2.199397  0
Cd  Cd1  1  0.69113439  0.48382177  0.64777518  1  1.236119  0  0.771235  0.850491  0  2.199375  0
Cd  Cd2  1  0.19112539  0.48381392  0.85222440  1  1.236027  0  0.771264  0.850539  0  2.199331  0
Cd  Cd3  1  0.30886905  0.51618016  0.35222419  1  1.236096  0  0.771271  0.85049  0  2.199426  0
H  H4  1  0.12400383  0.64320167  0.26666228  1  0.124188  0  0.107675  0.123218  0  1.009996  0
H  H5  1  0.37600550  0.35680080  0.76666271  1  0.124192  0  0.107685  0.123188  0  1.009999  0
H  H6  1  0.87600175  0.35680281  0.73333669  1  0.124175  0  0.107679  0.123233  0  1.009888  0
H  H7  1  0.62399839  0.64319346  0.23334055  1  0.124142  0  0.107679  0.123188  0  1.009939  0
H  H8  1  0.27316200  0.78985186  0.31094353  1  0.107999  0  0.098165  0.101656  0  1.069871  0
H  H9  1  0.22684397  0.21014770  0.81094184  1  0.108118  0  0.098155  0.101526  0  1.069952  0
H  H10  1  0.72684316  0.21015007  0.68905506  1  0.108011  0  0.098183  0.10167  0  1.069792  0
H  H11  1  0.77315791  0.78984487  0.18905830  1  0.108092  0  0.098177  0.101631  0  1.069846  0
H  H12  1  0.16965595  0.05128903  0.21367927  1  0.072553  0  0.104549  0.106554  0  0.996682  0
H  H13  1  0.33034987  0.94871628  0.71367345  1  0.073016  0  0.104526  0.106603  0  0.996643  0
H  H14  1  0.83034447  0.94871035  0.78631931  1  0.072317  0  0.104533  0.106569  0  0.996623  0
H  H15  1  0.66964883  0.05128311  0.28632320  1  0.072285  0  0.104559  0.10661  0  0.996639  0
H  H16  1  0.02314400  0.90517428  0.16950280  1  0.090604  0  0.102013  0.106503  0  1.024464  0
H  H17  1  0.47686044  0.09483140  0.66949934  1  0.090508  0  0.101996  0.106538  0  1.024471  0
H  H18  1  0.97685542  0.09482426  0.83049695  1  0.090629  0  0.102022  0.10653  0  1.024404  0
H  H19  1  0.52313969  0.90517139  0.33050081  1  0.090538  0  0.102009  0.106541  0  1.024474  0
H  H20  1  0.40757664  0.98701366  0.20215654  1  0.104629  0  0.104076  0.105361  0  0.997939  0
H  H21  1  0.09243022  0.01299748  0.70215571  1  0.104443  0  0.104119  0.105374  0  0.997864  0
H  H22  1  0.59242333  0.01299339  0.79784360  1  0.104506  0  0.104089  0.105336  0  0.997875  0
H  H23  1  0.90757350  0.98700616  0.29784365  1  0.104516  0  0.104104  0.105364  0  0.997891  0
H  H24  1  0.55421813  0.12721063  0.15479741  1  0.081356  0  0.098682  0.099823  0  1.037758  0
H  H25  1  0.94578562  0.87280436  0.65479708  1  0.080773  0  0.09863  0.099759  0  1.037764  0
H  H26  1  0.44578226  0.87279898  0.84520312  1  0.081167  0  0.098628  0.09974  0  1.037799  0
H  H27  1  0.05422300  0.12719755  0.34519995  1  0.080887  0  0.098635  0.099807  0  1.037741  0
H  H28  1  0.52058175  0.38160381  0.27014641  1  0.14899  0  0.109765  0.128133  0  1.005554  0
H  H29  1  0.97941515  0.61841076  0.77014658  1  0.14879  0  0.109783  0.128167  0  1.005435  0
H  H30  1  0.47940639  0.61841008  0.72985295  1  0.148773  0  0.109806  0.128194  0  1.005656  0
H  H31  1  0.02058670  0.38159203  0.22985512  1  0.148829  0  0.109812  0.128201  0  1.005579  0
H  H32  1  0.37861747  0.23888615  0.31994006  1  0.099542  0  0.098714  0.095794  0  1.041548  0
H  H33  1  0.12138107  0.76113142  0.81994105  1  0.099248  0  0.098689  0.095831  0  1.041678  0
H  H34  1  0.62136334  0.76112521  0.68005541  1  0.098769  0  0.098676  0.09584  0  1.041614  0
H  H35  1  0.87861514  0.23887905  0.18006143  1  0.099572  0  0.098723  0.09583  0  1.041561  0
H  H36  1  0.66031264  0.46090352  0.02708385  1  0.099959  0  0.121603  0.114307  0  0.994745  0
H  H37  1  0.83969463  0.53909132  0.52708167  1  0.100095  0  0.121543  0.114182  0  0.994885  0
H  H38  1  0.33968422  0.53908480  0.97291201  1  0.100046  0  0.121586  0.114265  0  0.994804  0
H  H39  1  0.16031501  0.46090634  0.47291848  1  0.099954  0  0.121579  0.11425  0  0.994804  0
H  H40  1  0.57254596  0.63057518  0.97267727  1  0.135928  0  0.129318  0.130499  0  1.0068  0
H  H41  1  0.92746292  0.36941518  0.47267771  1  0.135857  0  0.129331  0.130443  0  1.006878  0
H  H42  1  0.42744990  0.36941229  0.02731898  1  0.135544  0  0.129283  0.130502  0  1.006951  0
H  H43  1  0.07254903  0.63058076  0.52732477  1  0.135632  0  0.129344  0.130481  0  1.006799  0
H  H44  1  0.69655552  0.75477116  0.12038725  1  0.165  0  0.138926  0.103748  0  1.036973  0
H  H45  1  0.80344340  0.24522898  0.62038789  1  0.165014  0  0.138925  0.103746  0  1.036972  0
H  H46  1  0.30344076  0.24521886  0.87961056  1  0.164782  0  0.138874  0.10359  0  1.037092  0
H  H47  1  0.19655589  0.75476359  0.37961187  1  0.165164  0  0.138913  0.103713  0  1.037022  0
H  H48  1  0.47262655  0.77262842  0.97001951  1  0.080339  0  0.109017  0.120402  0  1.011352  0
H  H49  1  0.02737831  0.22736011  0.47002051  1  0.079725  0  0.109073  0.120495  0  1.011257  0
H  H50  1  0.52737059  0.22736160  0.02997752  1  0.080374  0  0.109048  0.120451  0  1.011269  0
H  H51  1  0.97262847  0.77263074  0.52998041  1  0.080301  0  0.109042  0.120427  0  1.011355  0
H  H52  1  0.35777093  0.89428046  0.92075574  1  0.111026  0  0.106933  0.115023  0  1.006703  0
H  H53  1  0.14222280  0.10570160  0.42075473  1  0.111341  0  0.106977  0.115026  0  1.006751  0
H  H54  1  0.64221803  0.10570192  0.07924480  1  0.111329  0  0.106955  0.115025  0  1.006754  0
H  H55  1  0.85778095  0.89429181  0.57924814  1  0.111157  0  0.106925  0.115046  0  1.006646  0
H  H56  1  0.29877365  0.07876452  0.90530805  1  0.130535  0  0.105518  0.115147  0  1.063758  0
H  H57  1  0.20121843  0.92121737  0.40530860  1  0.130578  0  0.105479  0.115097  0  1.063737  0
H  H58  1  0.70121833  0.92122040  0.09469132  1  0.130613  0  0.105482  0.115153  0  1.063627  0
H  H59  1  0.79878633  0.07877689  0.59469427  1  0.130451  0  0.105479  0.115137  0  1.063666  0
H  H60  1  0.16567252  0.41489505  0.02349860  1  0.153243  0  0.115774  0.110303  0  1.057284  0
H  H61  1  0.33432495  0.58510989  0.52350003  1  0.153234  0  0.115726  0.110236  0  1.05736  0
H  H62  1  0.83432571  0.58511200  0.97650388  1  0.153136  0  0.115761  0.110263  0  1.057284  0
H  H63  1  0.66567100  0.41489377  0.47650400  1  0.153206  0  0.115774  0.110303  0  1.057221  0
H  H64  1  0.07689889  0.57869950  0.08279353  1  0.103353  0  0.124525  0.122148  0  0.985294  0
H  H65  1  0.42310349  0.42130608  0.58279016  1  0.103429  0  0.124503  0.122134  0  0.985286  0
H  H66  1  0.92309662  0.42130671  0.91720973  1  0.103421  0  0.124497  0.122107  0  0.98536  0
H  H67  1  0.57689894  0.57869500  0.41720843  1  0.10338  0  0.124518  0.122129  0  0.985351  0
H  H68  1  0.83421636  0.27452818  0.08545143  1  0.191084  0  0.138708  0.115456  0  1.01604  0
H  H69  1  0.66578587  0.72547498  0.58545033  1  0.191152  0  0.138691  0.115454  0  1.015986  0
H  H70  1  0.16578549  0.72547461  0.91454871  1  0.191064  0  0.138702  0.115458  0  1.016021  0
H  H71  1  0.33421526  0.27452866  0.41454787  1  0.191084  0  0.138681  0.115476  0  1.016032  0
H  H72  1  0.94329517  0.10874480  0.09045462  1  0.125329  0  0.10809  0.124773  0  1.032569  0
H  H73  1  0.55670875  0.89126352  0.59045602  1  0.125306  0  0.108062  0.124776  0  1.032556  0
H  H74  1  0.05670337  0.89125885  0.90954358  1  0.125307  0  0.108082  0.124783  0  1.032536  0
H  H75  1  0.44328921  0.10874183  0.40954529  1  0.124939  0  0.108079  0.124789  0  1.03255  0
H  H76  1  0.91315437  0.89776853  0.09296845  1  0.122975  0  0.105717  0.114918  0  1.028151  0
H  H77  1  0.58685285  0.10223896  0.59296512  1  0.123104  0  0.105702  0.11487  0  1.028208  0
H  H78  1  0.08684445  0.10223682  0.90703326  1  0.122979  0  0.105691  0.114855  0  1.028255  0
H  H79  1  0.41314886  0.89776298  0.40703269  1  0.123083  0  0.105692  0.114886  0  1.028141  0
H  H80  1  0.92436994  0.71490813  0.05014664  1  0.112526  0  0.104412  0.116432  0  1.029475  0
H  H81  1  0.57563257  0.28510061  0.55014612  1  0.112442  0  0.10443  0.11638  0  1.029482  0
H  H82  1  0.07563577  0.28510232  0.94985195  1  0.112418  0  0.104437  0.116376  0  1.02945  0
H  H83  1  0.42436928  0.71490218  0.44985363  1  0.112458  0  0.104427  0.116378  0  1.029527  0
C  C84  1  0.97354147  0.67986944  0.19056588  1  1.530237  0  0.188808  0.548171  0  4.232486  0
C  C85  1  0.52646793  0.32012889  0.69056357  1  1.529489  0  0.188882  0.548525  0  4.232379  0
C  C86  1  0.02646200  0.32012227  0.80943543  1  1.530021  0  0.188854  0.548206  0  4.232419  0
C  C87  1  0.47353783  0.67986622  0.30943580  1  1.530271  0  0.188825  0.548246  0  4.2326  0
C  C88  1  0.06361600  0.76653551  0.21632461  1  -0.008739  0  -0.01211  -0.01469  0  3.95235  0
C  C89  1  0.43639774  0.23346554  0.71632232  1  -0.008062  0  -0.012085  -0.014709  0  3.95217  0
C  C90  1  0.93639018  0.23346215  0.78367592  1  -0.008954  0  -0.012066  -0.014595  0  3.952027  0
C  C91  1  0.56360975  0.76652956  0.28367860  1  -0.008509  0  -0.012091  -0.014638  0  3.952072  0
C  C92  1  0.13379629  0.73323261  0.25628570  1  -0.091207  0  -0.078232  -0.084481  0  3.931987  0
C  C93  1  0.36621381  0.26676889  0.75628436  1  -0.091177  0  -0.078135  -0.084411  0  3.93163  0
C  C94  1  0.86620385  0.26676507  0.74371445  1  -0.090541  0  -0.078235  -0.084574  0  3.93158  0
C  C95  1  0.63379511  0.73322961  0.24371890  1  -0.091286  0  -0.078205  -0.084515  0  3.931674  0
C  C96  1  0.21437658  0.81465073  0.28136107  1  -0.010089  0  -0.090401  -0.118938  0  3.971125  0
C  C97  1  0.28563269  0.18535190  0.78135769  1  -0.009918  0  -0.090459  -0.118658  0  3.971613  0
C  C98  1  0.78562802  0.18534779  0.71863791  1  -0.009952  0  -0.090461  -0.118971  0  3.971292  0
C  C99  1  0.71437119  0.81464748  0.21864129  1  -0.009997  0  -0.090445  -0.118773  0  3.971081  0
C  C100  1  0.22704105  0.92949104  0.26643254  1  -0.111662  0  -0.018897  -0.009737  0  3.998673  0
C  C101  1  0.27296797  0.07051994  0.76643356  1  -0.11243  0  -0.019026  -0.010057  0  3.998909  0
C  C102  1  0.77295821  0.07051175  0.73356410  1  -0.112242  0  -0.018853  -0.009581  0  3.998724  0
C  C103  1  0.72703718  0.92948709  0.23356892  1  -0.111833  0  -0.018937  -0.009934  0  3.998744  0
C  C104  1  0.15955621  0.96206791  0.22533259  1  -0.044628  0  -0.082821  -0.108053  0  3.985622  0
C  C105  1  0.34044698  0.03793242  0.72532994  1  -0.044854  0  -0.082694  -0.1079  0  3.984862  0
C  C106  1  0.84044031  0.03793404  0.77466600  1  -0.044376  0  -0.082843  -0.108145  0  3.985522  0
C  C107  1  0.65955806  0.96206354  0.27467021  1  -0.044208  0  -0.082772  -0.107985  0  3.985376  0
C  C108  1  0.07752572  0.88092363  0.20085273  1  -0.00034  0  -0.085983  -0.096678  0  3.969019  0
C  C109  1  0.42247916  0.11908069  0.70085017  1  -0.0004  0  -0.085965  -0.096815  0  3.969074  0
C  C110  1  0.92247356  0.11907406  0.79914547  1  -0.000329  0  -0.085992  -0.096708  0  3.969074  0
C  C111  1  0.57752025  0.88092296  0.29914803  1  -0.000561  0  -0.085959  -0.096759  0  3.969002  0
C  C112  1  0.30956454  0.01653848  0.29515681  1  0.916077  0  0.168317  0.363053  0  3.978852  0
C  C113  1  0.19044214  0.98348561  0.79515554  1  0.916126  0  0.168177  0.36287  0  3.978978  0
C  C114  1  0.69043599  0.98347197  0.70484216  1  0.915798  0  0.168248  0.362729  0  3.979274  0
C  C115  1  0.80955726  0.01651804  0.20484461  1  0.916064  0  0.168187  0.362859  0  3.978897  0
C  C116  1  0.38542838  0.10442995  0.26432338  1  -0.069956  0  -0.018188  -0.018496  0  4.003728  0
C  C117  1  0.11457271  0.89559041  0.76432121  1  -0.069637  0  -0.018316  -0.018626  0  4.003393  0
C  C118  1  0.61456207  0.89558224  0.73567715  1  -0.069568  0  -0.018194  -0.018449  0  4.003637  0
C  C119  1  0.88542423  0.10441921  0.23567972  1  -0.069841  0  -0.01821  -0.018438  0  4.003466  0
C  C120  1  0.43220418  0.07344365  0.21693848  1  -0.099996  0  -0.084456  -0.107817  0  3.992512  0
C  C121  1  0.06779527  0.92657023  0.71693723  1  -0.099649  0  -0.084543  -0.107885  0  3.99224  0
C  C122  1  0.56778974  0.92656342  0.78306127  1  -0.100019  0  -0.084521  -0.107845  0  3.992453  0
C  C123  1  0.93220428  0.07343427  0.28306097  1  -0.09965  0  -0.084544  -0.107921  0  3.992405  0
C  C124  1  0.51387495  0.15119738  0.19052466  1  -0.035372  0  -0.087277  -0.098206  0  3.984864  0
C  C125  1  0.98612417  0.84881716  0.69052383  1  -0.035497  0  -0.087235  -0.098151  0  3.98443  0
C  C126  1  0.48612457  0.84881223  0.80947626  1  -0.035428  0  -0.08726  -0.098171  0  3.984651  0
C  C127  1  0.01388113  0.15118562  0.30947553  1  -0.03502  0  -0.087219  -0.098131  0  3.98443  0
C  C128  1  0.54686519  0.26152429  0.21007508  1  -0.048605  0  -0.009724  -0.010548  0  3.942204  0
C  C129  1  0.95313630  0.73848961  0.71007635  1  -0.04917  0  -0.009757  -0.010648  0  3.941965  0
C  C130  1  0.45313247  0.73848447  0.78992546  1  -0.048914  0  -0.009754  -0.010633  0  3.942031  0
C  C131  1  0.04686655  0.26151402  0.28992379  1  -0.049273  0  -0.009744  -0.010667  0  3.942219  0
C  C132  1  0.49678108  0.29419400  0.25644333  1  0.007417  0  -0.076959  -0.085042  0  3.921738  0
C  C133  1  0.00321315  0.70582118  0.75644550  1  0.007623  0  -0.077055  -0.085077  0  3.921512  0
C  C134  1  0.50320234  0.70581225  0.74355643  1  0.007832  0  -0.077011  -0.084998  0  3.921611  0
C  C135  1  0.99679042  0.29418671  0.24355776  1  0.007435  0  -0.07703  -0.085073  0  3.92187  0
C  C136  1  0.41801350  0.21530480  0.28381385  1  -0.04023  0  -0.082678  -0.094555  0  3.957351  0
C  C137  1  0.08198606  0.78471236  0.78381378  1  -0.039182  0  -0.082402  -0.094344  0  3.957119  0
C  C138  1  0.58197351  0.78470228  0.71618435  1  -0.039076  0  -0.08252  -0.094542  0  3.956989  0
C  C139  1  0.91801375  0.21529895  0.21618675  1  -0.03967  0  -0.08262  -0.094575  0  3.957065  0
C  C140  1  0.63775249  0.34340150  0.18192921  1  1.550695  0  0.188969  0.557396  0  4.232951  0
C  C141  1  0.86225172  0.65661209  0.68192807  1  1.550762  0  0.188967  0.557433  0  4.233048  0
C  C142  1  0.36224776  0.65660726  0.81807405  1  1.550893  0  0.188896  0.557344  0  4.233184  0
C  C143  1  0.13775445  0.34339069  0.31807208  1  1.550854  0  0.189024  0.557518  0  4.232937  0
C  C144  1  0.65432562  0.54757793  0.03850300  1  0.398188  0  0.000339  -0.033937  0  4.039053  0
C  C145  1  0.84567973  0.45241618  0.53850253  1  0.39822  0  0.00042  -0.03384  0  4.039164  0
C  C146  1  0.34567110  0.45240953  0.96149520  1  0.398335  0  0.000438  -0.033778  0  4.039214  0
C  C147  1  0.15433007  0.54757721  0.46149761  1  0.398214  0  0.000351  -0.033872  0  4.039068  0
C  C148  1  0.60984468  0.63050614  0.01128241  1  0.282809  0  -0.000122  -0.117317  0  3.922975  0
C  C149  1  0.89016166  0.36948767  0.51128363  1  0.282693  0  -5.6e-05  -0.117073  0  3.923142  0
C  C150  1  0.39015377  0.36948132  0.98871307  1  0.283026  0  1.4e-05  -0.117108  0  3.923347  0
C  C151  1  0.10984741  0.63050658  0.48871846  1  0.283094  0  -0.000112  -0.117311  0  3.922984  0
C  C152  1  0.67553959  0.69707497  0.08803067  1  0.974081  0  0.154443  0.121367  0  3.88468  0
C  C153  1  0.82446437  0.30292311  0.58803103  1  0.97392  0  0.154398  0.121308  0  3.884648  0
C  C154  1  0.32445914  0.30291420  0.91196442  1  0.974403  0  0.154595  0.121799  0  3.884858  0
C  C155  1  0.17553938  0.69707031  0.41196950  1  0.974068  0  0.154456  0.121372  0  3.884779  0
C  C156  1  0.58971456  0.83358546  0.03308307  1  0.243984  0  0.09435  0.171047  0  4.028999  0
C  C157  1  0.91028276  0.16640692  0.53308181  1  0.244091  0  0.094336  0.171122  0  4.028951  0
C  C158  1  0.41027698  0.16640202  0.96691513  1  0.244761  0  0.094275  0.171026  0  4.029369  0
C  C159  1  0.08972027  0.83358735  0.46691600  1  0.244285  0  0.094354  0.170944  0  4.029068  0
C  C160  1  0.51062236  0.84490459  0.99393189  1  -0.052703  0  -0.090222  -0.223582  0  3.951836  0
C  C161  1  0.98938124  0.15508602  0.49393561  1  -0.051897  0  -0.090258  -0.223751  0  3.952  0
C  C162  1  0.48936789  0.15508034  0.00606475  1  -0.052857  0  -0.090229  -0.223646  0  3.951899  0
C  C163  1  0.01062972  0.84490397  0.50606804  1  -0.05284  0  -0.090255  -0.22359  0  3.951677  0
C  C164  1  0.47626031  0.95195203  0.98432874  1  0.067595  0  -0.005285  0.086568  0  4.01693  0
C  C165  1  0.02373412  0.04803669  0.48433008  1  0.008651  0  -0.005381  0.086531  0  4.01673  0
C  C166  1  0.52372791  0.04803631  0.01567140  1  0.008762  0  -0.005334  0.086634  0  4.016718  0
C  C167  1  0.97626260  0.95195078  0.51567317  1  0.067467  0  -0.005283  0.086679  0  4.016564  0
C  C168  1  0.39500114  0.96708252  0.94462726  1  0.019615  0  -0.078701  -0.103029  0  3.955885  0
C  C169  1  0.10499506  0.03290490  0.44462534  1  0.019345  0  -0.07878  -0.103112  0  3.955844  0
C  C170  1  0.60498881  0.03290581  0.05537444  1  0.019632  0  -0.078764  -0.1031  0  3.95564  0
C  C171  1  0.89501156  0.96709020  0.55537597  1  0.019756  0  -0.078713  -0.103078  0  3.955883  0
C  C172  1  0.36221544  0.07165658  0.93594493  1  -0.071481  0  -0.092366  -0.166663  0  3.981065  0
C  C173  1  0.13777823  0.92832565  0.43594636  1  -0.071205  0  -0.09236  -0.166651  0  3.981042  0
C  C174  1  0.63777539  0.92832665  0.06405327  1  -0.071442  0  -0.092417  -0.166882  0  3.98077  0
C  C175  1  0.86222956  0.07166605  0.56405690  1  -0.071134  0  -0.092368  -0.166847  0  3.98076  0
C  C176  1  0.08442857  0.41191296  0.04473817  1  0.339481  0  -0.00067  -0.098776  0  3.920614  0
C  C177  1  0.41556936  0.58809562  0.54473873  1  0.339425  0  -0.000582  -0.098674  0  3.920693  0
C  C178  1  0.91557010  0.58809153  0.95526392  1  0.339437  0  -0.000625  -0.098653  0  3.920613  0
C  C179  1  0.58442787  0.41191059  0.45526258  1  0.339518  0  -0.000679  -0.098815  0  3.920535  0
C  C180  1  0.03957906  0.49122209  0.07412349  1  0.374806  0  9.4e-05  -0.029582  0  4.010131  0
C  C181  1  0.46042193  0.50877999  0.57411952  1  0.375064  0  0.000128  -0.029543  0  4.010032  0
C  C182  1  0.96041761  0.50878071  0.92587976  1  0.375112  0  7.3e-05  -0.02964  0  4.010293  0
C  C183  1  0.53957733  0.49122280  0.42587829  1  0.374721  0  0.000125  -0.029484  0  4.010139  0
C  C184  1  0.91180391  0.33564076  0.07689633  1  0.963378  0  0.144012  0.092887  0  3.909448  0
C  C185  1  0.58819651  0.66435634  0.57689596  1  0.963316  0  0.144021  0.092884  0  3.909574  0
C  C186  1  0.08819464  0.66435777  0.92310420  1  0.963424  0  0.144004  0.092866  0  3.909563  0
C  C187  1  0.41180204  0.33564219  0.42310302  1  0.963319  0  0.144087  0.092902  0  3.90938  0
C  C188  1  0.01029893  0.20677150  0.02307224  1  0.257027  0  0.087666  0.160234  0  4.045609  0
C  C189  1  0.48970085  0.79323172  0.52307204  1  0.256986  0  0.087619  0.160222  0  4.045703  0
C  C190  1  0.98969860  0.79323129  0.97692907  1  0.257064  0  0.087653  0.160228  0  4.045611  0
C  C191  1  0.51029769  0.20677193  0.47692732  1  0.257295  0  0.087678  0.160263  0  4.045813  0
C  C192  1  0.97461741  0.10734803  0.05039924  1  -0.022754  0  -0.087167  -0.213632  0  3.928102  0
C  C193  1  0.52538167  0.89265561  0.55039796  1  -0.022675  0  -0.087127  -0.213627  0  3.928455  0
C  C194  1  0.02538069  0.89265818  0.94960207  1  -0.022769  0  -0.087208  -0.213658  0  3.928283  0
C  C195  1  0.47461182  0.10734891  0.44960180  1  -0.022728  0  -0.087173  -0.213668  0  3.92833  0
C  C196  1  0.97871844  0.00109788  0.02621004  1  0.012577  0  -0.003606  0.087927  0  3.989872  0
C  C197  1  0.52128189  0.99890719  0.52621020  1  0.012438  0  -0.003609  0.087791  0  3.990282  0
C  C198  1  0.02127692  0.99890748  0.97378893  1  -0.040908  0  -0.003575  0.087764  0  3.990259  0
C  C199  1  0.47871937  0.00109730  0.47378917  1  -0.040768  0  -0.003636  0.087834  0  3.990164  0
C  C200  1  0.94317130  0.89665970  0.05279435  1  -0.016023  0  -0.082061  -0.105331  0  3.954383  0
C  C201  1  0.55683152  0.10334055  0.55279457  1  -0.01614  0  -0.081996  -0.105125  0  3.95435  0
C  C202  1  0.05683013  0.10334054  0.94720385  1  -0.016183  0  -0.082032  -0.105174  0  3.954382  0
C  C203  1  0.44316760  0.89666140  0.44720635  1  -0.01627  0  -0.081975  -0.105201  0  3.954369  0
C  C204  1  0.94864850  0.79424437  0.02878381  1  -0.051768  0  -0.094443  -0.167069  0  3.9957  0
C  C205  1  0.55135182  0.20576072  0.52878274  1  -0.051657  0  -0.0945  -0.167144  0  3.995539  0
C  C206  1  0.05135062  0.20575757  0.97121633  1  -0.051633  0  -0.094422  -0.167021  0  3.995438  0
C  C207  1  0.44864730  0.79424122  0.47121624  1  -0.051655  0  -0.094437  -0.167012  0  3.995469  0
N  N208  1  0.69515668  0.59046139  0.08614318  1  -1.205066  0  -0.352145  -0.287929  0  3.520131  0
N  N209  1  0.80484628  0.40953581  0.58614228  1  -1.205038  0  -0.352171  -0.287945  0  3.520065  0
N  N210  1  0.30483873  0.40952863  0.91385580  1  -1.205548  0  -0.352276  -0.288174  0  3.520346  0
N  N211  1  0.19515861  0.59045930  0.41385670  1  -1.20524  0  -0.3522  -0.287971  0  3.520149  0
N  N212  1  0.62370580  0.72579703  0.04330353  1  -1.236823  0  -0.220952  0.018909  0  3.783215  0
N  N213  1  0.87629996  0.27419969  0.54330531  1  -1.236694  0  -0.220973  0.018774  0  3.783343  0
N  N214  1  0.37628301  0.27418960  0.95669233  1  -1.236783  0  -0.221134  0.018318  0  3.784086  0
N  N215  1  0.12370840  0.72579541  0.45669639  1  -1.236978  0  -0.220945  0.018978  0  3.783202  0
N  N216  1  0.93203248  0.44257839  0.09359530  1  -1.249139  0  -0.359333  -0.289341  0  3.565705  0
N  N217  1  0.56796929  0.55742230  0.59359430  1  -1.249328  0  -0.359349  -0.289322  0  3.565707  0
N  N218  1  0.06796578  0.55742355  0.90640640  1  -1.249256  0  -0.359308  -0.289244  0  3.565726  0
N  N219  1  0.43203400  0.44257878  0.40640429  1  -1.249042  0  -0.359332  -0.289334  0  3.565799  0
N  N220  1  0.00267293  0.31330945  0.04703569  1  -1.26059  0  -0.223142  0.016563  0  3.805638  0
N  N221  1  0.49732934  0.68669403  0.54703639  1  -1.260624  0  -0.223183  0.016455  0  3.805885  0
N  N222  1  0.99732907  0.68669419  0.95296523  1  -1.260613  0  -0.223151  0.016465  0  3.805752  0
N  N223  1  0.50267079  0.31330876  0.45296493  1  -1.260592  0  -0.223222  0.016452  0  3.805652  0
O  O224  1  0.91422864  0.71110282  0.15254974  1  -1.177451  0  -0.340533  -0.578871  0  2.198574  0
O  O225  1  0.58578897  0.28890189  0.65255700  1  -1.177816  0  -0.340472  -0.578859  0  2.19903  0
O  O226  1  0.08577338  0.28889060  0.84744768  1  -1.177594  0  -0.340488  -0.578757  0  2.198848  0
O  O227  1  0.41421374  0.71110089  0.34744664  1  -1.177677  0  -0.340527  -0.578862  0  2.198661  0
O  O228  1  0.95803563  0.57814996  0.20778773  1  -1.147424  0  -0.328987  -0.534595  0  2.164473  0
O  O229  1  0.54196718  0.42186135  0.70778643  1  -1.146983  0  -0.329154  -0.534912  0  2.163902  0
O  O230  1  0.04196724  0.42184856  0.79221553  1  -1.147176  0  -0.329082  -0.534706  0  2.164087  0
O  O231  1  0.45803307  0.57814740  0.29221527  1  -1.147476  0  -0.329025  -0.53464  0  2.16453  0
O  O232  1  0.68015070  0.31386633  0.13935551  1  -1.195886  0  -0.35106  -0.597935  0  2.129553  0
O  O233  1  0.81985500  0.68614423  0.63935216  1  -1.196104  0  -0.35099  -0.597913  0  2.129312  0
O  O234  1  0.31985531  0.68614071  0.86064969  1  -1.196159  0  -0.350921  -0.597793  0  2.129381  0
O  O235  1  0.18014988  0.31385599  0.36064682  1  -1.196122  0  -0.351023  -0.597912  0  2.12932  0
O  O236  1  0.66999308  0.44071071  0.20358025  1  -1.136245  0  -0.333662  -0.535355  0  2.202214  0
O  O237  1  0.83000872  0.55930482  0.70358046  1  -1.136027  0  -0.333734  -0.535426  0  2.202542  0
O  O238  1  0.33000789  0.55929719  0.79642223  1  -1.136147  0  -0.333694  -0.535399  0  2.202425  0
O  O239  1  0.16999600  0.44069966  0.29642007  1  -1.136117  0  -0.333728  -0.535452  0  2.202401  0
O  O240  1  0.31665541  0.01406853  0.34339948  1  -1.095125  0  -0.258145  -0.414383  0  2.142591  0
O  O241  1  0.18334446  0.98594759  0.84339822  1  -1.095049  0  -0.257947  -0.414136  0  2.142616  0
O  O242  1  0.68334182  0.98593768  0.65659950  1  -1.095203  0  -0.258063  -0.414142  0  2.142627  0
O  O243  1  0.81665291  0.01405947  0.15660115  1  -1.095055  0  -0.25801  -0.414172  0  2.142396  0
