# generated using pymatgen
data_Gd2CuH20C32(NO7)4
_symmetry_space_group_name_H-M   'P 1'
_cell_length_a   10.35051533
_cell_length_b   10.65944011
_cell_length_c   11.39752738
_cell_angle_alpha   83.93022450
_cell_angle_beta   74.46589241
_cell_angle_gamma   68.75889079
_symmetry_Int_Tables_number   1
_chemical_formula_structural   Gd2CuH20C32(NO7)4
_chemical_formula_sum   'Gd2 Cu1 H20 C32 N4 O28'
_cell_volume   1129.20055993
_cell_formula_units_Z   1
loop_
 _symmetry_equiv_pos_site_id
 _symmetry_equiv_pos_as_xyz
  1  'x, y, z'
loop_
 _atom_site_type_symbol
 _atom_site_label
 _atom_site_symmetry_multiplicity
 _atom_site_fract_x
 _atom_site_fract_y
 _atom_site_fract_z
 _atom_site_occupancy
 _atom_site_hle17_ddec_charge
 _atom_site_hle17_ddec_spin_density
 _atom_site_hle17_ddec_sum_bond_order
 _atom_site_hle17_magmom
 _atom_site_hse06_10hf_ddec_charge
 _atom_site_hse06_10hf_ddec_spin_density
 _atom_site_hse06_10hf_ddec_sum_bond_order
 _atom_site_hse06_10hf_magmom
 _atom_site_hse06_ddec_charge
 _atom_site_hse06_ddec_spin_density
 _atom_site_hse06_ddec_sum_bond_order
 _atom_site_hse06_magmom
 _atom_site_pbe_cm5_charge
 _atom_site_pbe_ddec_charge
 _atom_site_pbe_ddec_spin_density
 _atom_site_pbe_ddec_sum_bond_order
 _atom_site_pbe_magmom
Gd  Gd0  1  0.58735597  0.60977452  0.62478653  1  2.250813  0.000371  1.758758  0.001  2.172337  0.000383  2.111394  0.001  2.217736  0.000274  2.064883  0.0  1.485183  2.13215  0.000498  2.156649  0.001
Gd  Gd1  1  0.41264242  0.39022250  0.37521135  1  2.250799  0.000373  1.758775  0.001  2.172217  0.000382  2.111552  0.001  2.21762  0.000275  2.065043  0.0  1.485172  2.132146  0.000498  2.156623  0.001
Cu  Cu2  1  0.00000193  0.49999797  0.50000000  1  0.990181  0.697681  1.685513  0.521  0.986629  0.785947  2.066684  0.636  1.074672  0.847248  1.999713  0.718  0.750476  0.922771  0.742758  2.126399  0.583
H  H3  1  0.36567799  0.97985056  0.45146551  1  0.133001  -3.1e-05  0.910044  0.0  0.141451  -5e-06  0.968822  0.0  0.145788  -4e-06  0.964834  0.0  0.125414  0.13809  -4e-06  0.97207  0.0
H  H4  1  0.63432824  0.02014143  0.54854064  1  0.133086  -2.7e-05  0.910002  0.0  0.141502  -6e-06  0.96882  0.0  0.145839  -4e-06  0.964832  0.0  0.125431  0.138139  -4e-06  0.972067  0.0
H  H5  1  0.96265391  0.18045384  0.35861297  1  0.131459  0.000287  0.942919  0.0  0.136393  0.000232  1.009754  0.0  0.140681  0.000158  1.005277  0.0  0.120844  0.133062  0.000282  1.013372  0.0
H  H6  1  0.03735513  0.81954712  0.64139067  1  0.131408  0.000289  0.943171  0.0  0.136401  0.000231  1.009948  0.0  0.140687  0.000158  1.005477  0.0  0.120858  0.133072  0.000282  1.01357  0.0
H  H7  1  0.16490808  0.74911126  0.32370213  1  0.135677  -3e-06  0.943384  0.0  0.138492  -1.7e-05  1.012189  0.0  0.142568  -1.7e-05  1.008274  0.0  0.123185  0.135611  -2.7e-05  1.014791  0.0
H  H8  1  0.83509391  0.25088974  0.67629708  1  0.135704  -6e-06  0.943312  0.0  0.138555  -1.8e-05  1.0121  0.0  0.142631  -1.7e-05  1.008185  0.0  0.123215  0.135671  -2.7e-05  1.014702  0.0
H  H9  1  0.66980672  0.47816879  0.94686307  1  0.145381  -1e-05  0.918465  0.0  0.151458  -6e-06  0.981124  0.0  0.156167  -3e-06  0.976512  0.0  0.12537  0.147879  -4e-06  0.984729  0.0
H  H10  1  0.33018729  0.52182926  0.05313226  1  0.145435  -1e-06  0.918485  0.0  0.151538  -6e-06  0.98109  0.0  0.156248  -3e-06  0.976476  0.0  0.12541  0.147957  -4e-06  0.984696  0.0
H  H11  1  0.92292994  0.31581582  0.20934133  1  0.128392  -2.1e-05  0.947394  0.0  0.132178  -2.6e-05  1.018097  0.0  0.136837  -2.4e-05  1.013049  0.0  0.117903  0.128707  -2.1e-05  1.021915  0.0
H  H12  1  0.07706321  0.68419030  0.79065951  1  0.12836  -1.8e-05  0.947407  0.0  0.132141  -2.6e-05  1.018113  0.0  0.136798  -2.4e-05  1.013067  0.0  0.117887  0.128671  -2.1e-05  1.021929  0.0
H  H13  1  0.13149882  0.33912015  0.83079403  1  0.131959  0.000305  0.931585  0.0  0.13863  0.000287  0.992815  0.0  0.143371  0.000203  0.987927  0.0  0.122197  0.135119  0.000362  0.99651  0.0
H  H14  1  0.86849734  0.66088594  0.16920694  1  0.131961  0.000312  0.931545  0.0  0.138622  0.000286  0.992773  0.0  0.143365  0.000203  0.987883  0.0  0.122183  0.135111  0.000362  0.996467  0.0
H  H15  1  0.46055371  0.84984259  0.80477817  1  0.44584  -1e-06  0.798976  0.0  0.433281  -1e-06  0.840281  0.0  0.440943  -0.0  0.829354  0.0  0.342543  0.427679  -2e-06  0.848307  0.0
H  H16  1  0.53945953  0.15016618  0.19520694  1  0.44578  -1e-06  0.799016  0.0  0.433242  -1e-06  0.84033  0.0  0.440909  -1e-06  0.829391  0.0  0.3425  0.427641  -2e-06  0.848353  0.0
H  H17  1  0.34683542  0.87665304  0.72856891  1  0.440428  -0.0  0.847118  0.0  0.407796  -1e-06  0.912515  0.0  0.418898  -2e-06  0.895875  0.0  0.307601  0.399867  -0.0  0.924391  0.0
H  H18  1  0.65316499  0.12334398  0.27143199  1  0.440388  -1e-06  0.847178  0.0  0.407745  -1e-06  0.912592  0.0  0.418847  -1e-06  0.895952  0.0  0.30759  0.399815  -0.0  0.924469  0.0
H  H19  1  0.80952222  0.55892569  0.37718461  1  0.446133  -0.000336  0.84412  0.0  0.418795  -0.000221  0.901155  0.0  0.428996  -0.000247  0.88593  0.0  0.308146  0.411593  -0.000176  0.911876  0.0
H  H20  1  0.19048359  0.44107024  0.62281333  1  0.446151  -0.000334  0.844098  0.0  0.418805  -0.000221  0.901141  0.0  0.429005  -0.000247  0.885918  0.0  0.308175  0.411606  -0.000176  0.911859  0.0
H  H21  1  0.71565152  0.46795040  0.37994264  1  0.455833  2.6e-05  0.836768  0.0  0.428191  9e-06  0.893729  0.0  0.43941  9e-06  0.877427  0.0  0.304977  0.420212  7e-06  0.905289  0.0
H  H22  1  0.28434674  0.53205261  0.62005289  1  0.455814  2.7e-05  0.836776  0.0  0.428161  9e-06  0.89376  0.0  0.439381  9e-06  0.877457  0.0  0.304965  0.420184  7e-06  0.905319  0.0
C  C23  1  0.27585727  0.85143580  0.39098626  1  -0.059521  0.000889  3.689164  0.001  -0.032531  0.000351  3.922481  0.0  -0.044175  0.000266  3.945823  0.0  -0.001618  -0.025379  0.000532  3.907192  0.001
C  C24  1  0.72414918  0.14856115  0.60901404  1  -0.059603  0.000901  3.689073  0.001  -0.032645  0.000345  3.922485  0.0  -0.044292  0.000268  3.945826  0.0  -0.001662  -0.025495  0.000532  3.907184  0.001
C  C25  1  0.27815830  0.97630013  0.41752864  1  -0.011587  -7.1e-05  3.599604  0.0  -0.058773  0.000544  3.853671  0.001  -0.052941  0.000182  3.870226  0.0  -0.048192  -0.062249  0.000901  3.842819  0.001
C  C26  1  0.72184714  0.02369686  0.58247542  1  -0.011705  -9.3e-05  3.599688  0.0  -0.058843  0.000551  3.853739  0.001  -0.053014  0.000179  3.8703  0.0  -0.048261  -0.062318  0.000902  3.842882  0.001
C  C27  1  0.16649328  0.09491508  0.40447799  1  -0.055401  0.008119  3.722243  0.009  -0.03047  0.004742  3.961482  0.005  -0.042454  0.003445  3.984406  0.004  -0.008038  -0.02306  0.005746  3.946322  0.006
C  C28  1  0.83351014  0.90508196  0.59552919  1  -0.055363  0.008136  3.722347  0.009  -0.030411  0.004738  3.961588  0.005  -0.042397  0.003445  3.984513  0.004  -0.00799  -0.023005  0.005745  3.946432  0.006
C  C29  1  0.05297001  0.08949176  0.36357195  1  -0.073693  -0.001252  3.690008  -0.001  -0.117395  -0.000144  3.954442  0.0  -0.111687  -0.000317  3.970856  0.0  -0.064692  -0.120709  -0.000108  3.943415  0.0
C  C30  1  0.94703853  0.91050215  0.63642817  1  -0.073737  -0.001285  3.690292  -0.001  -0.117566  -0.00014  3.954759  0.0  -0.111856  -0.000315  3.971169  0.0  -0.064794  -0.120883  -0.000107  3.943738  0.0
C  C31  1  0.05628600  0.96598172  0.33157049  1  0.056444  0.000281  3.723146  0.0  0.044091  7.3e-05  3.981298  0.0  0.037029  9e-05  4.005754  0.0  0.073391  0.048461  1.3e-05  3.964822  0.0
C  C32  1  0.94371901  0.03401927  0.66843150  1  0.056434  0.000284  3.723013  0.0  0.04423  6.9e-05  3.981095  0.0  0.037171  8.9e-05  4.005547  0.0  0.073515  0.048598  1.3e-05  3.964619  0.0
C  C33  1  0.16611212  0.84573370  0.34465688  1  -0.058814  -0.001072  3.63629  -0.001  -0.097517  -0.000177  3.888977  0.0  -0.09191  -0.000334  3.905126  0.0  -0.055613  -0.10099  -7e-06  3.878113  0.0
C  C34  1  0.83389095  0.15426430  0.65534501  1  -0.058755  -0.001072  3.636206  -0.001  -0.097549  -0.000168  3.888925  0.0  -0.09194  -0.000337  3.905072  0.0  -0.055675  -0.10102  -7e-06  3.878053  0.0
C  C35  1  0.38496605  0.72331945  0.42273885  1  0.740527  0.000104  3.835823  0.0  0.695634  8.1e-05  4.122253  0.0  0.731761  5.4e-05  4.111502  0.0  0.246107  0.671074  0.000128  4.128281  0.0
C  C36  1  0.61503336  0.27667753  0.57725616  1  0.740776  9.1e-05  3.835709  0.0  0.695908  8.1e-05  4.122114  0.0  0.732036  5.4e-05  4.111357  0.0  0.246181  0.67135  0.000128  4.12814  0.0
C  C37  1  0.16119413  0.23013872  0.43595843  1  0.696849  -0.007113  3.852966  -0.007  0.649934  -0.001791  4.155051  -0.002  0.688955  -0.002214  4.145417  -0.002  0.228413  0.623654  -0.001389  4.159355  -0.002
C  C38  1  0.83881232  0.76985827  0.56404713  1  0.697033  -0.007141  3.852855  -0.007  0.650128  -0.00179  4.154905  -0.002  0.689148  -0.002215  4.14527  -0.002  0.228549  0.623846  -0.00139  4.159208  -0.002
C  C39  1  0.89945685  0.41767627  0.87582204  1  -0.067031  0.007245  3.719466  0.008  -0.041988  0.004682  3.958481  0.005  -0.054554  0.003496  3.982359  0.004  -0.01035  -0.03401  0.005566  3.942602  0.006
C  C40  1  0.10053975  0.58232576  0.12417487  1  -0.067087  0.007321  3.719738  0.008  -0.041888  0.00468  3.958465  0.005  -0.054453  0.003499  3.982341  0.004  -0.010341  -0.033913  0.005567  3.942588  0.006
C  C41  1  0.77402905  0.43552692  0.96826244  1  -0.01728  -0.000988  3.576028  0.0  -0.060176  -8.2e-05  3.822122  0.0  -0.054134  -0.000339  3.838345  0.0  -0.049334  -0.063604  0.000106  3.811051  0.0
C  C42  1  0.22596655  0.56447512  0.03173297  1  -0.01733  -0.001117  3.576061  0.0  -0.06028  -7.1e-05  3.82206  0.0  -0.054237  -0.000347  3.838279  0.0  -0.049355  -0.063698  0.000106  3.810985  0.0
C  C43  1  0.78247871  0.39772055  0.08845273  1  -0.046407  0.000918  3.706315  0.001  -0.019005  0.000403  3.942487  0.001  -0.030483  0.000353  3.96632  0.0  -0.006992  -0.011853  0.000483  3.926432  0.001
C  C44  1  0.21751545  0.60228553  0.91154435  1  -0.046484  0.000976  3.706276  0.001  -0.019094  0.000396  3.942474  0.001  -0.030573  0.000359  3.96631  0.0  -0.007027  -0.011942  0.000483  3.926422  0.001
C  C45  1  0.91580916  0.34327434  0.11614874  1  -0.070422  -0.001819  3.659166  -0.001  -0.113255  -0.000797  3.918795  0.0  -0.107976  -0.000834  3.935096  0.0  -0.063624  -0.116364  -0.000757  3.907924  0.0
C  C46  1  0.08418399  0.65673178  0.88385122  1  -0.070329  -0.001907  3.65915  -0.001  -0.113132  -0.000786  3.918846  0.0  -0.107854  -0.000843  3.93515  0.0  -0.063604  -0.116232  -0.000757  3.907989  0.0
C  C47  1  0.03908639  0.32241813  0.02189587  1  0.048897  0.000397  3.721013  0.001  0.047104  7.1e-05  3.979718  0.0  0.040568  0.000131  4.004315  0.0  0.071935  0.051071  2.8e-05  3.963196  0.0
C  C48  1  0.96090733  0.67759202  0.97810703  1  0.048899  0.000452  3.721019  0.001  0.04697  6.6e-05  3.979872  0.0  0.040434  0.000132  4.00447  0.0  0.07194  0.050911  2.8e-05  3.963398  0.0
C  C49  1  0.03330737  0.35818740  0.90220431  1  -0.066831  -0.001565  3.688207  -0.001  -0.109837  -0.000273  3.948555  0.0  -0.104004  -0.000457  3.96423  0.0  -0.063848  -0.11329  -0.000142  3.938024  0.0
C  C50  1  0.96668923  0.64181465  0.09779436  1  -0.066942  -0.001695  3.688496  -0.001  -0.109909  -0.000269  3.948769  0.0  -0.104079  -0.000462  3.964445  0.0  -0.063921  -0.113349  -0.000142  3.938242  0.0
C  C51  1  0.89219480  0.46002164  0.74763145  1  0.70457  -0.006538  3.848492  -0.006  0.654032  -0.002158  4.150607  -0.003  0.692437  -0.002617  4.140785  -0.003  0.231335  0.628101  -0.00162  4.155463  -0.003
C  C52  1  0.10780669  0.53997232  0.25236512  1  0.704528  -0.00656  3.84895  -0.006  0.65401  -0.002158  4.150979  -0.003  0.692416  -0.002616  4.141157  -0.003  0.231374  0.628083  -0.00162  4.155834  -0.003
C  C53  1  0.64999585  0.40863948  0.18724488  1  0.64625  0.000115  3.928042  0.0  0.597701  6.7e-05  4.224611  0.0  0.631812  4.5e-05  4.217828  0.0  0.199797  0.574842  0.00011  4.227837  0.0
C  C54  1  0.34999968  0.59136557  0.81275110  1  0.646331  0.000101  3.927797  0.0  0.597794  6.8e-05  4.224361  0.0  0.631905  4.6e-05  4.217576  0.0  0.199818  0.574936  0.00011  4.227579  0.0
N  N55  1  0.93638212  0.96399172  0.28764107  1  0.473654  -4.8e-05  3.943419  0.0  0.528471  -3.5e-05  4.198028  0.0  0.549442  -3.3e-05  4.207838  0.0  0.060483  0.514365  -1.1e-05  4.19154  0.0
N  N56  1  0.06361857  0.03600736  0.71236744  1  0.473728  -3.9e-05  3.943388  0.0  0.528475  -3.5e-05  4.198003  0.0  0.549445  -3e-05  4.207815  0.0  0.060466  0.514372  -1.1e-05  4.19152  0.0
N  N57  1  0.18063950  0.26154205  0.04889165  1  0.497274  -6.3e-05  3.919017  0.0  0.526892  -1.8e-05  4.217255  0.0  0.547341  -3.8e-05  4.227434  0.0  0.056859  0.513259  -4e-06  4.210258  0.0
N  N58  1  0.81935429  0.73846508  0.95111068  1  0.497395  -6.8e-05  3.918987  0.0  0.527076  -1.9e-05  4.217202  0.0  0.547524  -3.6e-05  4.227381  0.0  0.056967  0.513451  -4e-06  4.210204  0.0
O  O59  1  0.39086838  0.61246281  0.38650809  1  -0.72962  0.00049  2.051127  0.001  -0.688186  0.000183  2.30433  0.0  -0.714688  9.6e-05  2.292119  0.0  -0.396252  -0.668376  0.000233  2.311571  0.0
O  O60  1  0.60912534  0.38753323  0.61348665  1  -0.729726  0.0005  2.051115  0.001  -0.688329  0.000182  2.304349  0.0  -0.71483  9.7e-05  2.292131  0.0  -0.396247  -0.668506  0.000233  2.311603  0.0
O  O61  1  0.46071673  0.73617966  0.48834845  1  -0.710847  9.2e-05  2.034758  0.0  -0.670495  4.1e-05  2.280025  0.0  -0.696386  4.1e-05  2.267499  0.0  -0.397873  -0.651314  9.2e-05  2.287677  0.0
O  O62  1  0.53929290  0.26381118  0.51164559  1  -0.710881  8.9e-05  2.03488  0.0  -0.670525  4.1e-05  2.280165  0.0  -0.696411  4.1e-05  2.267629  0.0  -0.397848  -0.651369  9.2e-05  2.287812  0.0
O  O63  1  0.27429639  0.24826129  0.43814154  1  -0.704314  -0.001569  2.03044  0.0  -0.668101  -0.001291  2.282771  0.0  -0.693894  -0.001882  2.269516  -0.001  -0.380426  -0.648877  -0.000742  2.290529  0.001
O  O64  1  0.72570803  0.75173575  0.56186715  1  -0.704449  -0.001564  2.030474  0.0  -0.668258  -0.001292  2.282818  0.0  -0.694048  -0.001881  2.269558  -0.001  -0.380529  -0.649015  -0.000742  2.290583  0.001
O  O65  1  0.03493471  0.31854039  0.45828356  1  -0.589509  0.081851  2.095378  0.113  -0.565723  0.051863  2.38726  0.078  -0.607406  0.039528  2.377391  0.064  -0.314296  -0.535988  0.060105  2.392918  0.086
O  O66  1  0.96507477  0.68145649  0.54171250  1  -0.589535  0.081863  2.095178  0.113  -0.565753  0.051865  2.387059  0.078  -0.607438  0.03953  2.377192  0.064  -0.314318  -0.536021  0.060108  2.392721  0.086
O  O67  1  0.84136949  0.07499169  0.27758325  1  -0.38045  -7.9e-05  1.815112  0.0  -0.36158  -9.4e-05  2.010619  0.0  -0.376808  -7.2e-05  2.006495  0.0  -0.124213  -0.351716  -4.6e-05  2.013974  0.0
O  O68  1  0.15861562  0.92501176  0.72244703  1  -0.380463  -9.4e-05  1.81528  0.0  -0.361599  -8.7e-05  2.010825  0.0  -0.376822  -8.2e-05  2.006698  0.0  -0.12422  -0.351736  -4.6e-05  2.014186  0.0
O  O69  1  0.93417304  0.85461999  0.26341948  1  -0.322254  3e-05  1.788485  0.0  -0.314321  1.7e-05  1.981535  0.0  -0.325139  2e-06  1.978655  0.0  -0.111714  -0.3074  -8e-06  1.983946  0.0
O  O70  1  0.06582983  0.14538698  0.73657538  1  -0.322371  4.3e-05  1.788293  0.0  -0.314412  1.3e-05  1.981365  0.0  -0.325233  9e-06  1.978486  0.0  -0.111751  -0.307488  -8e-06  1.983776  0.0
O  O71  1  0.01191819  0.44036997  0.66869638  1  -0.61042  0.075009  2.124349  0.104  -0.565901  0.052894  2.391452  0.079  -0.606946  0.040863  2.38214  0.066  -0.304884  -0.537489  0.060504  2.397411  0.086
O  O72  1  0.98808381  0.55963101  0.33130020  1  -0.610309  0.075029  2.124372  0.104  -0.565891  0.052893  2.39153  0.079  -0.606935  0.040862  2.382218  0.066  -0.304887  -0.537476  0.060504  2.397482  0.086
O  O73  1  0.77222969  0.51044241  0.72261611  1  -0.732536  -0.001991  2.096476  0.0  -0.701919  -0.001655  2.369708  0.0  -0.726725  -0.002242  2.354513  -0.001  -0.386954  -0.682945  -0.001114  2.378482  0.001
O  O74  1  0.22777001  0.48954251  0.27737659  1  -0.732494  -0.001996  2.096774  0.0  -0.701866  -0.001656  2.369965  0.0  -0.726681  -0.002243  2.354789  -0.001  -0.386945  -0.682913  -0.001114  2.378731  0.001
O  O75  1  0.53241136  0.43097553  0.16081582  1  -0.655345  4.9e-05  1.94686  0.0  -0.620861  1e-05  2.17549  0.0  -0.644064  2.5e-05  2.164968  0.0  -0.353503  -0.60416  1.6e-05  2.182205  0.0
O  O76  1  0.46758437  0.56902051  0.83918106  1  -0.655323  5.5e-05  1.946776  0.0  -0.620854  1.2e-05  2.175398  0.0  -0.644057  2.2e-05  2.164873  0.0  -0.353513  -0.604138  1.6e-05  2.182115  0.0
O  O77  1  0.66064158  0.38723016  0.29828897  1  -0.715875  0.000181  2.055979  0.0  -0.664393  9.9e-05  2.287899  0.0  -0.69092  6.1e-05  2.278306  0.0  -0.36769  -0.645283  0.000155  2.293923  0.0
O  O78  1  0.33935013  0.61277996  0.70170828  1  -0.71594  0.000192  2.055907  0.0  -0.664459  9.6e-05  2.287796  0.0  -0.690986  6.4e-05  2.278202  0.0  -0.367704  -0.645337  0.000155  2.293824  0.0
O  O79  1  0.18446377  0.24702834  0.15769793  1  -0.361829  1.6e-05  1.772031  0.0  -0.344285  -2.7e-05  1.980482  0.0  -0.357858  -6e-06  1.978582  0.0  -0.124742  -0.335075  -3.4e-05  1.981707  0.0
O  O80  1  0.81552893  0.75298185  0.84230872  1  -0.36181  1.8e-05  1.77216  0.0  -0.34432  -2.5e-05  1.980625  0.0  -0.357891  0.0  1.978727  0.0  -0.12478  -0.335108  -3.4e-05  1.981844  0.0
O  O81  1  0.28773857  0.22904139  0.96197524  1  -0.350655  1.8e-05  1.691802  0.0  -0.340842  -2.2e-05  1.874665  0.0  -0.351216  -9e-06  1.871234  0.0  -0.137285  -0.333815  -2.9e-05  1.877193  0.0
O  O82  1  0.71225499  0.77096077  0.03803206  1  -0.350696  2.5e-05  1.691562  0.0  -0.340875  -2.2e-05  1.874396  0.0  -0.35125  -1.8e-05  1.870965  0.0  -0.13729  -0.333847  -2.9e-05  1.876921  0.0
O  O83  1  0.44926881  0.83312171  0.72654031  1  -0.87159  -1.1e-05  1.834258  0.0  -0.836024  -2.3e-05  1.996504  0.0  -0.852394  -1.3e-05  1.966287  0.0  -0.604659  -0.823596  -1.5e-05  2.017925  0.0
O  O84  1  0.55073226  0.16687625  0.27345418  1  -0.871495  -1e-05  1.834301  0.0  -0.83594  -2.2e-05  1.996554  0.0  -0.852309  -1.2e-05  1.966346  0.0  -0.604629  -0.823527  -1.5e-05  2.017964  0.0
O  O85  1  0.73816132  0.52431706  0.43075615  1  -0.942272  -0.000969  1.893205  0.0  -0.912543  -0.001152  2.094592  0.0  -0.929261  -0.001235  2.057229  0.0  -0.650135  -0.89864  -0.000989  2.12014  0.0
O  O86  1  0.26184046  0.47567892  0.56924189  1  -0.942238  -0.000974  1.893186  0.0  -0.912494  -0.001151  2.094591  0.0  -0.929212  -0.001235  2.057231  0.0  -0.65014  -0.898607  -0.00099  2.120127  0.0
