# generated using pymatgen
data_ZnH24C28NO10
_symmetry_space_group_name_H-M   'P 1'
_cell_length_a   14.36590851
_cell_length_b   16.87556591
_cell_length_c   17.53536130
_cell_angle_alpha   89.78335804
_cell_angle_beta   91.19971383
_cell_angle_gamma   90.04825434
_symmetry_Int_Tables_number   1
_chemical_formula_structural   ZnH24C28NO10
_chemical_formula_sum   'Zn2 H48 C56 N2 O20'
_cell_volume   4250.18384548
_cell_formula_units_Z   2
loop_
 _symmetry_equiv_pos_site_id
 _symmetry_equiv_pos_as_xyz
  1  'x, y, z'
loop_
 _atom_site_type_symbol
 _atom_site_label
 _atom_site_symmetry_multiplicity
 _atom_site_fract_x
 _atom_site_fract_y
 _atom_site_fract_z
 _atom_site_occupancy
 _atom_site_pbe_bader_charge
 _atom_site_pbe_bader_spin_density
 _atom_site_pbe_cm5_charge
 _atom_site_pbe_ddec_charge
 _atom_site_pbe_ddec_spin_density
 _atom_site_pbe_ddec_sum_bond_order
 _atom_site_pbe_magmom
Zn  Zn0  1  0.50958908  0.40603487  0.49871211  1  1.328588  0  0.690445  0.901486  0  2.286098  0
Zn  Zn1  1  0.50774666  0.58917786  0.50221110  1  1.323284  0  0.692014  0.902154  0  2.321985  0
H  H2  1  0.41031256  0.37780228  0.73420814  1  0.110155  0  0.110281  0.10838  0  1.006358  0
H  H3  1  0.30315042  0.07546280  0.51579779  1  0.056001  0  0.097748  0.056082  0  0.97464  0
H  H4  1  0.24685248  0.00017657  0.40151054  1  0.043705  0  0.094403  0.132078  0  1.011908  0
H  H5  1  0.15131557  0.04693925  0.44647414  1  0.011072  0  0.096061  0.127886  0  0.991599  0
H  H6  1  0.19684152  0.08835139  0.36156362  1  0.042265  0  0.094833  0.128225  0  0.989125  0
H  H7  1  0.54581261  0.83101845  0.70358128  1  0.050623  0  0.098252  0.055406  0  0.979997  0
H  H8  1  0.49523113  0.91982966  0.66486111  1  0.029494  0  0.098585  0.057134  0  0.971273  0
H  H9  1  0.63641314  0.99710581  0.70372826  1  0.072428  0  0.094302  0.131637  0  1.010084  0
H  H10  1  0.59026805  0.94730557  0.78448919  1  0.026302  0  0.099065  0.132661  0  0.985718  0
H  H11  1  0.69093092  0.90920168  0.74008460  1  0.061193  0  0.094356  0.126905  0  0.991531  0
H  H12  1  0.75643320  0.16545043  0.52935597  1  0.057513  0  0.101679  0.062834  0  0.971731  0
H  H13  1  0.42316238  0.61102496  0.27616675  1  0.119854  0  0.111431  0.113202  0  1.030065  0
H  H14  1  0.70980784  0.07735544  0.48643500  1  0.046263  0  0.098346  0.056643  0  0.970039  0
H  H15  1  0.75841485  0.99794716  0.60107980  1  0.027564  0  0.094319  0.132173  0  1.010243  0
H  H16  1  0.85653028  0.04771994  0.56264417  1  0.035469  0  0.096214  0.128163  0  0.991379  0
H  H17  1  0.80379194  0.08500376  0.64610315  1  0.040444  0  0.094144  0.12678  0  0.991659  0
H  H18  1  0.44881185  0.82659912  0.29603313  1  0.04871  0  0.098963  0.057241  0  0.978029  0
H  H19  1  0.50298164  0.91569984  0.33011892  1  0.048967  0  0.098689  0.057508  0  0.970414  0
H  H20  1  0.36073488  0.99355414  0.29433923  1  0.078359  0  0.094694  0.132099  0  1.007584  0
H  H21  1  0.40241616  0.94195094  0.21337900  1  0.043488  0  0.099303  0.133389  0  0.986151  0
H  H22  1  0.30363978  0.90540245  0.26188309  1  0.05764  0  0.094746  0.128449  0  0.990702  0
H  H23  1  0.33579611  0.22351116  0.32849300  1  0.07065  0  0.097947  0.057336  0  1.007691  0
H  H24  1  0.53546004  0.37863261  0.24701672  1  0.080266  0  0.1092  0.10493  0  1.015472  0
H  H25  1  0.42139728  0.29968798  0.31506883  1  0.075716  0  0.09702  0.058863  0  1.001641  0
H  H26  1  0.30200551  0.40373616  0.33950013  1  0.059778  0  0.093022  0.134282  0  1.005061  0
H  H27  1  0.26455520  0.34221064  0.26205963  1  0.048442  0  0.096308  0.129216  0  0.989698  0
H  H28  1  0.21609701  0.32960034  0.35407726  1  0.004685  0  0.093672  0.12746  0  0.990253  0
H  H29  1  0.72298788  0.77670341  0.61847021  1  0.077768  0  0.097939  0.059029  0  1.007952  0
H  H30  1  0.73129795  0.69504854  0.55304704  1  0.065507  0  0.102236  0.072403  0  0.983391  0
H  H31  1  0.71405260  0.59928797  0.66097276  1  0.064472  0  0.095486  0.137696  0  0.9956  0
H  H32  1  0.81197002  0.66229570  0.67803947  1  0.036354  0  0.098078  0.131395  0  0.987368  0
H  H33  1  0.70645782  0.67933257  0.72680718  1  0.019417  0  0.088566  0.115892  0  1.006042  0
H  H34  1  0.66805349  0.22038310  0.67208654  1  0.049791  0  0.09764  0.05585  0  1.007026  0
H  H35  1  0.53318341  0.60887441  0.73480387  1  0.126662  0  0.110873  0.112749  0  1.020248  0
H  H36  1  0.58302087  0.29772196  0.68084837  1  0.046438  0  0.099741  0.065577  0  0.985326  0
H  H37  1  0.70556899  0.40020836  0.66118752  1  0.061746  0  0.094764  0.137393  0  0.997137  0
H  H38  1  0.73731582  0.33808532  0.74024321  1  0.069609  0  0.096764  0.128262  0  0.990835  0
H  H39  1  0.79130355  0.32523657  0.65054707  1  0.02851  0  0.093447  0.126342  0  0.991125  0
H  H40  1  0.27232041  0.77648573  0.40393983  1  0.072105  0  0.097969  0.058824  0  1.00239  0
H  H41  1  0.27637741  0.69096855  0.46591250  1  0.062399  0  0.101339  0.072111  0  0.989697  0
H  H42  1  0.27128627  0.60204187  0.35182641  1  0.042247  0  0.094282  0.133127  0  0.999665  0
H  H43  1  0.17232548  0.66519138  0.35241079  1  0.014262  0  0.099493  0.134844  0  0.982842  0
H  H44  1  0.26527970  0.68645880  0.29006256  1  0.006735  0  0.087642  0.113582  0  1.018145  0
H  H45  1  0.34228004  0.32236477  0.83782196  1  0.024678  0  0.094789  0.022392  0  0.961724  0
H  H46  1  0.36660287  0.68698382  0.17655732  1  0.042319  0  0.094159  0.022191  0  0.974533  0
H  H47  1  0.54409563  0.31711916  0.13511331  1  0.029716  0  0.093171  0.019692  0  0.96687  0
H  H48  1  0.53771551  0.68889263  0.83657356  1  0.031302  0  0.09172  0.017596  0  0.9746  0
H  H49  1  0.25170618  0.16456346  0.47843512  1  0.053036  0  0.101275  0.062068  0  0.967886  0
C  C50  1  0.49632076  0.48849864  0.35508498  1  1.592926  0  0.215096  0.593304  0  4.182087  0
C  C51  1  0.55589215  0.75316684  0.55109431  1  1.127401  0  0.209247  0.299543  0  4.104881  0
C  C52  1  0.57155407  0.24177465  0.53903552  1  1.14891  0  0.208628  0.299977  0  4.110136  0
C  C53  1  0.44594908  0.75263420  0.45029317  1  1.091108  0  0.209539  0.30265  0  4.097194  0
C  C54  1  0.50290403  0.11729472  0.49933907  1  0.118976  0  0.000182  -0.004287  0  4.155337  0
C  C55  1  0.50178564  0.87834035  0.49929709  1  0.080712  0  0.000723  -0.002052  0  4.150188  0
C  C56  1  0.50190344  0.03388116  0.49933360  1  -0.099339  0  -0.022219  -0.046817  0  4.094119  0
C  C57  1  0.50169466  0.96174614  0.49902584  1  -0.11162  0  -0.023899  -0.049467  0  4.09284  0
C  C58  1  0.33028162  0.51002267  0.50652309  1  1.738909  0  0.216223  0.639357  0  4.287734  0
C  C59  1  0.68602809  0.51187134  0.49453529  1  1.683882  0  0.219575  0.645112  0  4.272247  0
C  C60  1  0.22976227  0.50809702  0.50510923  1  0.093899  0  -0.010449  -0.128435  0  3.856219  0
C  C61  1  0.50156707  0.48345158  0.64444728  1  1.567586  0  0.213109  0.587602  0  4.189744  0
C  C62  1  0.78662965  0.51034968  0.49437145  1  0.284346  0  -0.009553  -0.124845  0  3.84881  0
C  C63  1  0.14435960  0.50678919  0.50245360  1  -0.220239  0  -0.028028  -0.001905  0  4.297967  0
C  C64  1  0.87204053  0.50835292  0.49550687  1  -0.428755  0  -0.029424  -0.005252  0  4.299695  0
C  C65  1  0.05115393  0.50637147  0.49970437  1  -0.152823  0  -0.017085  -0.020296  0  4.239436  0
C  C66  1  0.96525782  0.50684542  0.49730627  1  0.059146  0  -0.016179  -0.016759  0  4.23934  0
C  C67  1  0.40526646  0.43986422  0.84141361  1  -0.034915  0  -0.007736  -0.026758  0  3.948025  0
C  C68  1  0.41707655  0.56649588  0.16077409  1  0.037021  0  -0.009211  -0.029356  0  3.957541  0
C  C69  1  0.48671732  0.43579654  0.14351735  1  0.031564  0  -0.009682  -0.03296  0  3.947817  0
C  C70  1  0.48027319  0.56998431  0.84312800  1  0.006241  0  -0.010861  -0.03262  0  3.95648  0
C  C71  1  0.42991113  0.43154301  0.76517581  1  -0.06948  0  -0.059117  -0.095377  0  3.933691  0
C  C72  1  0.42293997  0.51212973  0.96227895  1  -0.148133  0  0.00394  -0.016398  0  3.99829  0
C  C73  1  0.43924411  0.56170417  0.23853959  1  -0.092843  0  -0.059278  -0.095476  0  3.922925  0
C  C74  1  0.50262494  0.43145964  0.22238101  1  -0.105832  0  -0.060734  -0.099739  0  3.949144  0
C  C75  1  0.49920113  0.56102582  0.76583168  1  -0.084681  0  -0.059461  -0.093731  0  3.92519  0
C  C76  1  0.47741051  0.49132195  0.72670408  1  0.072967  0  -0.015608  -0.027228  0  3.971474  0
C  C77  1  0.47998426  0.49383467  0.27055243  1  0.05608  0  -0.014161  -0.026608  0  3.972256  0
C  C78  1  0.43386077  0.50831087  0.88332444  1  0.102847  0  0.039885  0.119961  0  3.977682  0
C  C79  1  0.44173143  0.50378966  0.11086920  1  0.07875  0  0.038534  0.121173  0  3.977248  0
C  C80  1  0.34885225  0.37593406  0.87510791  1  0.982787  0  0.097625  0.273575  0  3.993348  0
C  C81  1  0.36673324  0.63786037  0.13368020  1  0.950153  0  0.097516  0.270917  0  3.995199  0
C  C82  1  0.52016643  0.36801864  0.09840922  1  0.948796  0  0.095994  0.272275  0  3.99934  0
C  C83  1  0.42675154  0.50935119  0.03199615  1  0.017858  0  0.003052  -0.019074  0  3.997572  0
C  C84  1  0.51221029  0.64453686  0.87915925  1  0.967  0  0.094945  0.269169  0  4.005197  0
C  C85  1  0.28199296  0.10693053  0.46300600  1  0.369734  0  -0.062951  0.089273  0  3.896469  0
C  C86  1  0.21554349  0.05761008  0.41504977  1  -0.022213  0  -0.241732  -0.396483  0  3.974456  0
C  C87  1  0.56144380  0.88923414  0.67804734  1  0.397165  0  -0.062869  0.091562  0  3.892797  0
C  C88  1  0.62377978  0.93874121  0.72938055  1  -0.0816  0  -0.240341  -0.394052  0  3.96936  0
C  C89  1  0.72616149  0.10673780  0.54116656  1  0.376287  0  -0.062761  0.088899  0  3.893199  0
C  C90  1  0.78976812  0.05628301  0.59092725  1  -0.02799  0  -0.241411  -0.395872  0  3.974172  0
C  C91  1  0.43565117  0.88561743  0.32031089  1  0.370364  0  -0.063033  0.090337  0  3.8967  0
C  C92  1  0.37149432  0.93461174  0.26975722  1  -0.097208  0  -0.240637  -0.396853  0  3.974578  0
C  C93  1  0.35596202  0.28448956  0.34316707  1  0.358479  0  -0.064746  0.089486  0  3.874912  0
C  C94  1  0.43423869  0.16032002  0.45797982  1  0.585804  0  0.078087  0.054519  0  4.069911  0
C  C95  1  0.28014446  0.34361666  0.32366164  1  -0.041561  0  -0.242739  -0.39113  0  3.963689  0
C  C96  1  0.70403430  0.71455385  0.60801332  1  0.379752  0  -0.064812  0.083496  0  3.863426  0
C  C97  1  0.73571940  0.66056217  0.67235098  1  -0.046713  0  -0.241721  -0.387912  0  3.965278  0
C  C98  1  0.65001177  0.28154241  0.65593538  1  0.408103  0  -0.064435  0.089902  0  3.871451  0
C  C99  1  0.72559550  0.33983809  0.67813818  1  -0.075394  0  -0.240876  -0.389439  0  3.965346  0
C  C100  1  0.29282616  0.71390652  0.40899012  1  0.353206  0  -0.066436  0.081907  0  3.864381  0
C  C101  1  0.24836817  0.66391531  0.34698519  1  0.011617  0  -0.242001  -0.38815  0  3.966891  0
C  C102  1  0.55685996  0.83630548  0.55335155  1  0.579232  0  0.07922  0.056997  0  4.068698  0
C  C103  1  0.57283829  0.15862352  0.54069448  1  0.536719  0  0.078078  0.054909  0  4.070332  0
C  C104  1  0.44587451  0.83575960  0.44644653  1  0.610652  0  0.080192  0.056026  0  4.070047  0
C  C105  1  0.43897903  0.24342936  0.45836796  1  1.090221  0  0.21  0.303427  0  4.10541  0
N  N106  1  0.50647095  0.28192920  0.49807869  1  -1.222292  0  -0.320405  -0.363251  0  3.485648  0
N  N107  1  0.50143596  0.71335032  0.50060884  1  -1.235085  0  -0.318593  -0.35983  0  3.477341  0
O  O108  1  0.51655392  0.42048014  0.38253527  1  -1.156517  0  -0.315117  -0.542524  0  2.307634  0
O  O109  1  0.32656548  0.64524534  0.07193479  1  -1.053429  0  -0.252025  -0.333439  0  2.115723  0
O  O110  1  0.52443919  0.36407529  0.02895218  1  -1.058851  0  -0.258848  -0.344343  0  2.128812  0
O  O111  1  0.51316581  0.65991832  0.94724618  1  -1.063137  0  -0.257371  -0.339893  0  2.124089  0
O  O112  1  0.36500989  0.12135405  0.41848978  1  -1.068902  0  -0.198768  -0.220368  0  2.536674  0
O  O113  1  0.60947819  0.87632272  0.60662000  1  -1.062533  0  -0.197905  -0.220934  0  2.535923  0
O  O114  1  0.63937795  0.11764067  0.58153132  1  -1.065638  0  -0.198191  -0.219904  0  2.539813  0
O  O115  1  0.39142968  0.87527674  0.39385953  1  -1.063699  0  -0.198327  -0.220489  0  2.536776  0
O  O116  1  0.37345020  0.28986008  0.42536131  1  -1.060772  0  -0.176061  -0.212402  0  2.550371  0
O  O117  1  0.60237004  0.70790999  0.60269286  1  -1.098335  0  -0.179573  -0.220845  0  2.544325  0
O  O118  1  0.63808570  0.28653209  0.57294516  1  -1.079325  0  -0.177684  -0.218022  0  2.536806  0
O  O119  1  0.52933290  0.54600731  0.61153273  1  -1.169408  0  -0.31558  -0.563934  0  2.396767  0
O  O120  1  0.39424575  0.70831267  0.40129954  1  -1.05174  0  -0.183402  -0.225187  0  2.518733  0
O  O121  1  0.49208819  0.41515165  0.61440002  1  -1.157301  0  -0.312565  -0.543503  0  2.319156  0
O  O122  1  0.48606747  0.55246429  0.39173330  1  -1.172416  0  -0.312978  -0.556848  0  2.39179  0
O  O123  1  0.37049345  0.44561636  0.49059468  1  -1.140095  0  -0.298111  -0.536406  0  2.328753  0
O  O124  1  0.64854959  0.57968440  0.48468824  1  -1.135618  0  -0.307419  -0.533619  0  2.270513  0
O  O125  1  0.64667911  0.44563372  0.50536938  1  -1.140413  0  -0.300374  -0.53761  0  2.322759  0
O  O126  1  0.36731641  0.57670793  0.52275298  1  -1.132327  0  -0.307906  -0.535505  0  2.274401  0
O  O127  1  0.30989268  0.37859814  0.93638655  1  -1.062018  0  -0.257413  -0.340783  0  2.11368  0
