# generated using pymatgen
data_CdH15C16N4Cl
_symmetry_space_group_name_H-M   'P 1'
_cell_length_a   10.28205648
_cell_length_b   11.35709267
_cell_length_c   13.46730000
_cell_angle_alpha   90.00000000
_cell_angle_beta   90.00000000
_cell_angle_gamma   92.34692947
_symmetry_Int_Tables_number   1
_chemical_formula_structural   CdH15C16N4Cl
_chemical_formula_sum   'Cd4 H60 C64 N16 Cl4'
_cell_volume   1571.31496008
_cell_formula_units_Z   4
loop_
 _symmetry_equiv_pos_site_id
 _symmetry_equiv_pos_as_xyz
  1  'x, y, z'
loop_
 _atom_site_type_symbol
 _atom_site_label
 _atom_site_symmetry_multiplicity
 _atom_site_fract_x
 _atom_site_fract_y
 _atom_site_fract_z
 _atom_site_occupancy
 _atom_site_hle17_bader_spin_density
 _atom_site_hle17_ddec_charge
 _atom_site_hle17_ddec_spin_density
 _atom_site_hle17_ddec_sum_bond_order
 _atom_site_hle17_magmom
 _atom_site_hse06_10hf_bader_spin_density
 _atom_site_hse06_10hf_ddec_charge
 _atom_site_hse06_10hf_ddec_spin_density
 _atom_site_hse06_10hf_ddec_sum_bond_order
 _atom_site_hse06_10hf_magmom
 _atom_site_hse06_bader_spin_density
 _atom_site_hse06_ddec_charge
 _atom_site_hse06_ddec_spin_density
 _atom_site_hse06_ddec_sum_bond_order
 _atom_site_hse06_magmom
 _atom_site_pbe_bader_charge
 _atom_site_pbe_bader_spin_density
 _atom_site_pbe_cm5_charge
 _atom_site_pbe_ddec_charge
 _atom_site_pbe_ddec_spin_density
 _atom_site_pbe_ddec_sum_bond_order
 _atom_site_pbe_magmom
Cd  Cd0  1  0.76229562  0.36885795  0.60782859  1  0  1.004173  0  1.84278  0  0  0.809222  0  2.298009  0  0  0.853965  0  2.259658  0  1.118232  0  0.738921  0.77788  0  2.323612  0
Cd  Cd1  1  0.73770249  0.63114238  0.10782859  1  0  1.004188  0  1.842764  0  0  0.809246  0  2.297991  0  0  0.853989  0  2.259639  0  1.118281  0  0.738932  0.777904  0  2.323594  0
Cd  Cd2  1  0.23770224  0.63114062  0.39217067  1  0  1.004194  0  1.842792  0  0  0.809254  0  2.298038  0  0  0.853995  0  2.259682  0  1.118271  0  0.738923  0.777912  0  2.323642  0
Cd  Cd3  1  0.26229545  0.36885795  0.89217215  1  0  1.004163  0  1.842772  0  0  0.80922  0  2.298002  0  0  0.85396  0  2.259649  0  1.118281  0  0.738916  0.777878  0  2.323603  0
H  H4  1  0.05517542  0.16686926  0.00073289  1  0  0.09438  0  0.974835  0  0  0.104253  0  1.0385  0  0  0.106814  0  1.037947  0  0.061546  0  0.096063  0.102511  0  1.038809  0
H  H5  1  0.44481943  0.83313107  0.50073214  1  0  0.094381  0  0.97488  0  0  0.104271  0  1.03851  0  0  0.106832  0  1.037956  0  0.061222  0  0.096059  0.102528  0  1.038818  0
H  H6  1  0.94482252  0.83313107  0.99926786  1  0  0.094363  0  0.97484  0  0  0.10424  0  1.038505  0  0  0.106803  0  1.037948  0  0.06153  0  0.096054  0.102498  0  1.038812  0
H  H7  1  0.55517948  0.16686926  0.49926860  1  0  0.094371  0  0.974852  0  0  0.104264  0  1.038502  0  0  0.106828  0  1.037943  0  0.061168  0  0.096043  0.102521  0  1.03881  0
H  H8  1  0.86420334  0.02781830  0.02597848  1  0  0.076972  0  0.971784  0  0  0.090033  0  1.032023  0  0  0.09248  0  1.031173  0  0.05124  0  0.092599  0.088264  0  1.032693  0
H  H9  1  0.63579274  0.97218027  0.52597922  1  0  0.07697  0  0.971756  0  0  0.090029  0  1.032002  0  0  0.092477  0  1.031151  0  0.051211  0  0.092603  0.088261  0  1.032672  0
H  H10  1  0.13579553  0.97218115  0.97402226  1  0  0.076987  0  0.971802  0  0  0.090064  0  1.032016  0  0  0.092512  0  1.031163  0  0.051241  0  0.092622  0.088295  0  1.032685  0
H  H11  1  0.36420605  0.02781742  0.47402226  1  0  0.077033  0  0.971645  0  0  0.090073  0  1.031919  0  0  0.092522  0  1.031063  0  0.051224  0  0.092613  0.088303  0  1.032588  0
H  H12  1  0.68378941  0.01490364  0.90387086  1  0  0.074659  0  1.013695  0  0  0.084881  0  1.079771  0  0  0.085917  0  1.082277  0  0.052062  0  0.088554  0.084073  0  1.078138  0
H  H13  1  0.81620680  0.98509758  0.40387160  1  0  0.074686  0  1.013729  0  0  0.084877  0  1.07984  0  0  0.085931  0  1.082331  0  0.051985  0  0.088553  0.08407  0  1.078206  0
H  H14  1  0.31621044  0.98509582  0.09612914  1  0  0.074678  0  1.013672  0  0  0.084902  0  1.079749  0  0  0.085938  0  1.082256  0  0.052081  0  0.088567  0.084094  0  1.078116  0
H  H15  1  0.18379118  0.01490364  0.59612914  1  0  0.074666  0  1.013748  0  0  0.084858  0  1.079855  0  0  0.085912  0  1.082346  0  0.052069  0  0.088534  0.084051  0  1.07822  0
H  H16  1  0.68842011  0.13873988  0.75205646  1  0  0.10021  0  0.96912  0  0  0.110025  0  1.030787  0  0  0.112754  0  1.030163  0  0.083529  0  0.097577  0.108011  0  1.031367  0
H  H17  1  0.81157715  0.86126310  0.25205721  1  0  0.100201  0  0.969169  0  0  0.110053  0  1.030791  0  0  0.112757  0  1.030193  0  0.083392  0  0.09759  0.108039  0  1.031372  0
H  H18  1  0.31157775  0.86125869  0.24794131  1  0  0.100202  0  0.969187  0  0  0.110046  0  1.030813  0  0  0.11276  0  1.030202  0  0.083536  0  0.097607  0.108034  0  1.03139  0
H  H19  1  0.18841897  0.13873988  0.74794279  1  0  0.10021  0  0.969122  0  0  0.110021  0  1.030792  0  0  0.112751  0  1.030165  0  0.083507  0  0.097569  0.108008  0  1.03137  0
H  H20  1  0.14795827  0.39487234  0.61708137  1  0  0.139515  0  0.948017  0  0  0.158526  0  1.009091  0  0  0.160876  0  1.008833  0  0.091899  0  0.092067  0.15686  0  1.009328  0
H  H21  1  0.35204136  0.60512623  0.11708063  1  0  0.139469  0  0.947969  0  0  0.158477  0  1.009061  0  0  0.160827  0  1.008805  0  0.091941  0  0.092053  0.156811  0  1.009298  0
H  H22  1  0.85204149  0.60512535  0.38291863  1  0  0.13951  0  0.948033  0  0  0.158524  0  1.009098  0  0  0.160874  0  1.008841  0  0.091938  0  0.092059  0.156858  0  1.009334  0
H  H23  1  0.64795848  0.39487322  0.88292011  1  0  0.139517  0  0.948041  0  0  0.158527  0  1.009113  0  0  0.160876  0  1.008856  0  0.091915  0  0.092068  0.156861  0  1.009349  0
H  H24  1  0.16385903  0.49354989  0.71961492  1  0  0.109187  0  0.986248  0  0  0.126008  0  1.056482  0  0  0.127976  0  1.055869  0  0.037736  0  0.086914  0.124607  0  1.056938  0
H  H25  1  0.33614061  0.50644869  0.21961492  1  0  0.109166  0  0.986257  0  0  0.125995  0  1.056478  0  0  0.127964  0  1.055864  0  0.037732  0  0.086908  0.124594  0  1.056934  0
H  H26  1  0.83613980  0.50644869  0.28038582  1  0  0.109198  0  0.986246  0  0  0.126029  0  1.05646  0  0  0.127998  0  1.055846  0  0.03776  0  0.086919  0.124628  0  1.056917  0
H  H27  1  0.66385823  0.49354989  0.78038582  1  0  0.109203  0  0.986226  0  0  0.126027  0  1.056448  0  0  0.127995  0  1.055834  0  0.037759  0  0.086925  0.124626  0  1.056903  0
H  H28  1  0.02771922  0.49949037  0.63764971  1  0  0.124953  0  0.970306  0  0  0.140019  0  1.040542  0  0  0.142615  0  1.039259  0  0.054472  0  0.085699  0.138052  0  1.041613  0
H  H29  1  0.47228244  0.50050997  0.13765046  1  0  0.124953  0  0.970286  0  0  0.14  0  1.040546  0  0  0.142598  0  1.039262  0  0.054409  0  0.085691  0.138033  0  1.041617  0
H  H30  1  0.97228164  0.50050997  0.36235103  1  0  0.124953  0  0.970282  0  0  0.140008  0  1.040539  0  0  0.142605  0  1.039256  0  0.05446  0  0.0857  0.138041  0  1.04161  0
H  H31  1  0.52771744  0.49949037  0.86235103  1  0  0.124926  0  0.970317  0  0  0.139979  0  1.040575  0  0  0.142578  0  1.03929  0  0.054449  0  0.085678  0.138013  0  1.041646  0
H  H32  1  0.98959246  0.17488684  0.53122155  1  0  0.109033  0  0.945739  0  0  0.118414  0  1.008085  0  0  0.121176  0  1.007285  0  0.073625  0  0.103659  0.116444  0  1.008668  0
H  H33  1  0.51040760  0.82511349  0.03122081  1  0  0.109044  0  0.945722  0  0  0.118406  0  1.008088  0  0  0.121167  0  1.007287  0  0.073639  0  0.103663  0.116436  0  1.008673  0
H  H34  1  0.01040840  0.82511349  0.46877845  1  0  0.109013  0  0.945757  0  0  0.118377  0  1.008122  0  0  0.121138  0  1.007322  0  0.073617  0  0.103646  0.116407  0  1.008706  0
H  H35  1  0.48959131  0.17488684  0.96878068  1  0  0.109084  0  0.945704  0  0  0.118453  0  1.008059  0  0  0.121215  0  1.007257  0  0.073686  0  0.103682  0.116482  0  1.008643  0
H  H36  1  0.12417774  0.05571679  0.41847438  1  0  0.086498  0  0.964471  0  0  0.099455  0  1.023909  0  0  0.101586  0  1.023779  0  0.066913  0  0.097175  0.0979  0  1.024098  0
H  H37  1  0.37582295  0.94428354  0.91847364  1  0  0.086517  0  0.964483  0  0  0.099474  0  1.023914  0  0  0.101606  0  1.023785  0  0.066992  0  0.097183  0.097918  0  1.024106  0
H  H38  1  0.87582401  0.94428178  0.58152785  1  0  0.086511  0  0.964453  0  0  0.099471  0  1.023883  0  0  0.101601  0  1.023755  0  0.066931  0  0.097202  0.097915  0  1.024074  0
H  H39  1  0.62417884  0.05571591  0.08152711  1  0  0.086543  0  0.964442  0  0  0.099513  0  1.023865  0  0  0.101631  0  1.023749  0  0.066951  0  0.097208  0.09796  0  1.024049  0
H  H40  1  0.89581566  0.15280810  0.16312178  1  0  0.109126  0  0.959988  0  0  0.119771  0  1.020145  0  0  0.122476  0  1.019395  0  0.065808  0  0.103477  0.117872  0  1.020641  0
H  H41  1  0.60418439  0.84719224  0.66312104  1  0  0.109114  0  0.960011  0  0  0.119781  0  1.020146  0  0  0.122484  0  1.019397  0  0.065778  0  0.103487  0.117883  0  1.020641  0
H  H42  1  0.10418799  0.84718959  0.83687822  1  0  0.109102  0  0.960047  0  0  0.119759  0  1.020194  0  0  0.122464  0  1.019444  0  0.065795  0  0.103468  0.117861  0  1.020688  0
H  H43  1  0.39581460  0.15280986  0.33688044  1  0  0.109085  0  0.959998  0  0  0.119754  0  1.020136  0  0  0.122457  0  1.019387  0  0.065758  0  0.103471  0.117856  0  1.020631  0
H  H44  1  0.51964590  0.38380565  0.44748242  1  0  0.137403  0  0.949944  0  0  0.15479  0  1.015983  0  0  0.15698  0  1.0154  0  0.062811  0  0.09995  0.152994  0  1.016902  0
H  H45  1  0.98035315  0.61619380  0.94748168  1  0  0.137419  0  0.949914  0  0  0.1548  0  1.015965  0  0  0.156987  0  1.015381  0  0.062827  0  0.099996  0.153004  0  1.016885  0
H  H46  1  0.48035687  0.61619380  0.55251312  1  0  0.137473  0  0.950012  0  0  0.154861  0  1.016041  0  0  0.157049  0  1.015462  0  0.062688  0  0.099972  0.153067  0  1.016958  0
H  H47  1  0.01964577  0.38380653  0.05251906  1  0  0.137398  0  0.949971  0  0  0.154793  0  1.01601  0  0  0.156982  0  1.015427  0  0.062825  0  0.099999  0.153  0  1.016927  0
H  H48  1  0.53292727  0.42113259  0.32001218  1  0  0.140169  0  0.942995  0  0  0.160889  0  1.000637  0  0  0.162561  0  1.000908  0  0.083563  0  0.10163  0.159599  0  1.000664  0
H  H49  1  0.96707270  0.57886598  0.82001218  1  0  0.140173  0  0.942993  0  0  0.160918  0  1.000613  0  0  0.16259  0  1.000885  0  0.083555  0  0.101639  0.159628  0  1.000641  0
H  H50  1  0.46707549  0.57886686  0.67998262  1  0  0.140207  0  0.943058  0  0  0.160936  0  1.000675  0  0  0.162611  0  1.000947  0  0.083594  0  0.101634  0.159647  0  1.000702  0
H  H51  1  0.03292621  0.42113436  0.17998856  1  0  0.140173  0  0.942974  0  0  0.160937  0  1.000586  0  0  0.162608  0  1.000858  0  0.08354  0  0.101638  0.159648  0  1.000613  0
H  H52  1  0.62369747  0.50476286  0.41082103  1  0  0.142431  0  0.940345  0  0  0.160163  0  1.00304  0  0  0.162356  0  1.002866  0  0.084066  0  0.100137  0.158517  0  1.003384  0
H  H53  1  0.87630254  0.49523659  0.91082103  1  0  0.14241  0  0.940359  0  0  0.160146  0  1.003053  0  0  0.162338  0  1.00288  0  0.084054  0  0.100128  0.1585  0  1.003397  0
H  H54  1  0.37630440  0.49523835  0.58917526  1  0  0.142459  0  0.940355  0  0  0.160184  0  1.003053  0  0  0.162375  0  1.002883  0  0.084106  0  0.100151  0.158538  0  1.003398  0
H  H55  1  0.12369637  0.50476374  0.08918046  1  0  0.142433  0  0.940332  0  0  0.160167  0  1.00303  0  0  0.16236  0  1.002857  0  0.084058  0  0.100138  0.158522  0  1.003374  0
H  H56  1  0.07796493  0.04233683  0.23836478  1  0  0.087616  0  0.979113  0  0  0.097072  0  1.043578  0  0  0.098742  0  1.044973  0  0.068125  0  0.094216  0.095852  0  1.0427  0
H  H57  1  0.42203677  0.95766438  0.73836404  1  0  0.087599  0  0.979098  0  0  0.097068  0  1.043556  0  0  0.098739  0  1.04495  0  0.067885  0  0.094208  0.095846  0  1.042677  0
H  H58  1  0.92203877  0.95766174  0.76163671  1  0  0.087635  0  0.979059  0  0  0.097049  0  1.043563  0  0  0.09872  0  1.044957  0  0.067941  0  0.094175  0.095825  0  1.042692  0
H  H59  1  0.57796514  0.04233771  0.26163819  1  0  0.08762  0  0.979054  0  0  0.097077  0  1.04352  0  0  0.098748  0  1.044914  0  0.068122  0  0.094214  0.095856  0  1.042643  0
H  H60  1  0.70193621  0.31704067  0.22165319  1  0  0.31036  0  0.920175  0  0  0.291623  0  0.985305  0  0  0.299613  0  0.979204  0  0.524699  0  0.29064  0.286037  0  0.989567  0
H  H61  1  0.79806381  0.68295878  0.72165245  1  0  0.310363  0  0.920169  0  0  0.291613  0  0.985305  0  0  0.299602  0  0.979204  0  0.52469  0  0.290622  0.286027  0  0.989567  0
H  H62  1  0.29806850  0.68295878  0.77834458  1  0  0.310325  0  0.920141  0  0  0.291618  0  0.985252  0  0  0.299607  0  0.979151  0  0.52473  0  0.29063  0.286031  0  0.989514  0
H  H63  1  0.20193510  0.31704155  0.27834904  1  0  0.31036  0  0.920196  0  0  0.291623  0  0.985315  0  0  0.299612  0  0.979213  0  0.52467  0  0.290631  0.286037  0  0.989577  0
C  C64  1  0.97741988  0.23285786  0.86227158  1  0  0.14494  0  3.865209  0  0  0.141072  0  4.108844  0  0  0.145257  0  4.132577  0  0.338838  0  0.07211  0.138062  0  4.092955  0
C  C65  1  0.52257637  0.76714423  0.36227009  1  0  0.14495  0  3.865239  0  0  0.141031  0  4.108907  0  0  0.145218  0  4.132639  0  0.338731  0  0.07213  0.138021  0  4.093021  0
C  C66  1  0.02257713  0.76714335  0.13772917  1  0  0.144962  0  3.865287  0  0  0.141059  0  4.108928  0  0  0.145245  0  4.132662  0  0.33848  0  0.072148  0.138049  0  4.093041  0
C  C67  1  0.47742161  0.23285698  0.63773065  1  0  0.144993  0  3.865211  0  0  0.141117  0  4.108835  0  0  0.145302  0  4.132566  0  0.338738  0  0.072119  0.138105  0  4.092948  0
C  C68  1  0.97527388  0.16232027  0.94745866  1  0  -0.170376  0  3.790747  0  0  -0.185333  0  4.04146  0  0  -0.188503  0  4.062028  0  -0.050587  0  -0.107871  -0.183096  0  4.027508  0
C  C69  1  0.52472224  0.83767918  0.44745866  1  0  -0.170352  0  3.790745  0  0  -0.185317  0  4.041467  0  0  -0.188487  0  4.062037  0  -0.050339  0  -0.107842  -0.18308  0  4.027516  0
C  C70  1  0.02472402  0.83767918  0.05254208  1  0  -0.170324  0  3.7907  0  0  -0.185288  0  4.041416  0  0  -0.18846  0  4.061986  0  -0.050606  0  -0.107841  -0.183051  0  4.027463  0
C  C71  1  0.47527659  0.16231939  0.55254283  1  0  -0.170418  0  3.79067  0  0  -0.185401  0  4.041379  0  0  -0.188573  0  4.061946  0  -0.050224  0  -0.107877  -0.183164  0  4.027428  0
C  C72  1  0.86787416  0.08491336  0.96089417  1  0  -0.091315  0  3.818066  0  0  -0.107619  0  4.073268  0  0  -0.109879  0  4.095399  0  -0.064951  0  -0.110027  -0.105934  0  4.058089  0
C  C73  1  0.63212294  0.91508609  0.46089342  1  0  -0.091256  0  3.817951  0  0  -0.107559  0  4.073148  0  0  -0.109823  0  4.095287  0  -0.064109  0  -0.110018  -0.105877  0  4.057971  0
C  C74  1  0.13212374  0.91508609  0.03910509  1  0  -0.091308  0  3.817991  0  0  -0.10762  0  4.073189  0  0  -0.10988  0  4.095321  0  -0.064956  0  -0.110056  -0.105936  0  4.05801  0
C  C75  1  0.36787686  0.08491248  0.53910806  1  0  -0.091292  0  3.817858  0  0  -0.107579  0  4.073062  0  0  -0.109842  0  4.095198  0  -0.06413  0  -0.109999  -0.105892  0  4.057881  0
C  C76  1  0.76557234  0.07712315  0.89143184  1  0  -0.088274  0  3.813796  0  0  -0.102848  0  4.065159  0  0  -0.104663  0  4.088152  0  0.007651  0  -0.109462  -0.101504  0  4.049468  0
C  C77  1  0.73442565  0.92287454  0.39143258  1  0  -0.088295  0  3.813811  0  0  -0.102849  0  4.065187  0  0  -0.104679  0  4.088166  0  0.006972  0  -0.10946  -0.101507  0  4.049497  0
C  C78  1  0.23442556  0.92287631  0.10856742  1  0  -0.088266  0  3.813731  0  0  -0.102853  0  4.065133  0  0  -0.104669  0  4.088124  0  0.007659  0  -0.109455  -0.10151  0  4.049444  0
C  C79  1  0.26557322  0.07712491  0.60856816  1  0  -0.088268  0  3.81391  0  0  -0.102824  0  4.065271  0  0  -0.104655  0  4.088256  0  0.006904  0  -0.10945  -0.101481  0  4.049579  0
C  C80  1  0.76729215  0.14643052  0.80598709  1  0  -0.155815  0  3.76733  0  0  -0.169921  0  4.012611  0  0  -0.172833  0  4.032118  0  -0.057701  0  -0.104152  -0.16781  0  3.999368  0
C  C81  1  0.73270507  0.85357158  0.30598487  1  0  -0.155801  0  3.767371  0  0  -0.169958  0  4.012627  0  0  -0.17285  0  4.032152  0  -0.057503  0  -0.10418  -0.167848  0  3.999386  0
C  C82  1  0.23270490  0.85357158  0.19401291  1  0  -0.155795  0  3.767368  0  0  -0.169947  0  4.01265  0  0  -0.172845  0  4.032162  0  -0.057656  0  -0.104178  -0.167838  0  3.999409  0
C  C83  1  0.26729198  0.14643052  0.69401439  1  0  -0.155829  0  3.767371  0  0  -0.169945  0  4.012641  0  0  -0.172859  0  4.032151  0  -0.057707  0  -0.104139  -0.167835  0  3.999399  0
C  C84  1  0.87422154  0.22477066  0.79200211  1  0  0.150167  0  3.852532  0  0  0.146591  0  4.094252  0  0  0.150792  0  4.118269  0  0.344816  0  0.073712  0.143579  0  4.078167  0
C  C85  1  0.62577377  0.77523231  0.29200062  1  0  0.150023  0  3.852619  0  0  0.14651  0  4.094287  0  0  0.150712  0  4.118299  0  0.344799  0  0.073677  0.143499  0  4.078204  0
C  C86  1  0.12577644  0.77523055  0.20799789  1  0  0.150092  0  3.852634  0  0  0.146589  0  4.094269  0  0  0.15079  0  4.118281  0  0.344666  0  0.073695  0.143576  0  4.078187  0
C  C87  1  0.37422327  0.22476978  0.70799863  1  0  0.150111  0  3.852539  0  0  0.146566  0  4.094226  0  0  0.150768  0  4.118243  0  0.344658  0  0.073694  0.143555  0  4.078143  0
C  C88  1  0.02207175  0.35442225  0.73982387  1  0  0.451493  0  3.77851  0  0  0.432612  0  4.041693  0  0  0.451992  0  4.056006  0  1.004222  0  0.20957  0.419789  0  4.03121  0
C  C89  1  0.47792699  0.64557808  0.23982313  1  0  0.451484  0  3.778553  0  0  0.432601  0  4.041722  0  0  0.451982  0  4.056039  0  1.004162  0  0.209577  0.419796  0  4.031217  0
C  C90  1  0.97792716  0.64557808  0.26017613  1  0  0.451523  0  3.778447  0  0  0.432633  0  4.041634  0  0  0.452014  0  4.055948  0  1.004224  0  0.209581  0.419825  0  4.031134  0
C  C91  1  0.52207196  0.35442314  0.76017687  1  0  0.45154  0  3.778454  0  0  0.432659  0  4.041626  0  0  0.452039  0  4.055938  0  1.004205  0  0.20959  0.419848  0  4.031127  0
C  C92  1  0.09398656  0.44043453  0.67526230  1  0  -0.412906  0  3.718484  0  0  -0.490303  0  3.953677  0  0  -0.495445  0  3.958408  0  -0.058723  0  -0.248619  -0.486415  0  3.950244  0
C  C93  1  0.40601404  0.55956404  0.17526230  1  0  -0.412848  0  3.718406  0  0  -0.49023  0  3.953608  0  0  -0.495374  0  3.958341  0  -0.058702  0  -0.24859  -0.486348  0  3.950169  0
C  C94  1  0.90601324  0.55956404  0.32473770  1  0  -0.412916  0  3.718442  0  0  -0.490315  0  3.953655  0  0  -0.495457  0  3.958386  0  -0.058781  0  -0.248615  -0.486432  0  3.950219  0
C  C95  1  0.59398580  0.44043541  0.82473918  1  0  -0.412927  0  3.718497  0  0  -0.490314  0  3.953698  0  0  -0.495457  0  3.95843  0  -0.058753  0  -0.248627  -0.486429  0  3.950261  0
C  C96  1  0.86547058  0.22886053  0.40997824  1  0  0.141939  0  3.842628  0  0  0.138675  0  4.088634  0  0  0.142335  0  4.112028  0  0.34365  0  0.081771  0.136036  0  4.073229  0
C  C97  1  0.63452944  0.77113892  0.90997750  1  0  0.141977  0  3.842501  0  0  0.13871  0  4.088531  0  0  0.142369  0  4.111924  0  0.343686  0  0.081786  0.13607  0  4.073125  0
C  C98  1  0.13453332  0.77114245  0.59001953  1  0  0.141827  0  3.84286  0  0  0.138622  0  4.088805  0  0  0.142282  0  4.1122  0  0.343628  0  0.081697  0.135982  0  4.073398  0
C  C99  1  0.36547142  0.22886141  0.09002398  1  0  0.141937  0  3.842574  0  0  0.138729  0  4.088528  0  0  0.142388  0  4.111922  0  0.343714  0  0.081778  0.136089  0  4.073122  0
C  C100  1  0.96840194  0.16929181  0.45194360  1  0  -0.140417  0  3.747033  0  0  -0.160075  0  4.002525  0  0  -0.162069  0  4.021266  0  -0.043072  0  -0.093915  -0.158515  0  3.990016  0
C  C101  1  0.53159808  0.83070764  0.95194285  1  0  -0.140416  0  3.747024  0  0  -0.160058  0  4.002526  0  0  -0.162047  0  4.021262  0  -0.043091  0  -0.093902  -0.158497  0  3.990018  0
C  C102  1  0.03159981  0.83070676  0.54805566  1  0  -0.140425  0  3.747065  0  0  -0.160095  0  4.002567  0  0  -0.162087  0  4.021305  0  -0.043072  0  -0.093916  -0.158535  0  3.990058  0
C  C103  1  0.46840274  0.16929181  0.04805937  1  0  -0.140457  0  3.746978  0  0  -0.160126  0  4.002473  0  0  -0.162116  0  4.021207  0  -0.043082  0  -0.093921  -0.158565  0  3.989963  0
C  C104  1  0.04313451  0.10295424  0.38799611  1  0  -0.079658  0  3.777828  0  0  -0.098267  0  4.037266  0  0  -0.100427  0  4.058687  0  -0.014835  0  -0.100298  -0.096977  0  4.022818  0
C  C105  1  0.45686618  0.89704610  0.88799537  1  0  -0.079686  0  3.777924  0  0  -0.098298  0  4.037366  0  0  -0.100457  0  4.058786  0  -0.014894  0  -0.100316  -0.097009  0  4.022917  0
C  C106  1  0.95686825  0.89704522  0.61200463  1  0  -0.079561  0  3.777798  0  0  -0.098165  0  4.037229  0  0  -0.100322  0  4.058649  0  -0.014738  0  -0.100291  -0.096875  0  4.022779  0
C  C107  1  0.54313363  0.10295247  0.11200612  1  0  -0.079672  0  3.777861  0  0  -0.098291  0  4.037306  0  0  -0.100439  0  4.05873  0  -0.014866  0  -0.100305  -0.097  0  4.022856  0
C  C108  1  0.91610297  0.15638860  0.24248736  1  0  -0.154885  0  3.745003  0  0  -0.170506  0  3.994591  0  0  -0.173746  0  4.01436  0  0.049304  0  -0.096973  -0.168395  0  3.981393  0
C  C109  1  0.58389709  0.84361173  0.74248587  1  0  -0.154912  0  3.745015  0  0  -0.170554  0  3.994633  0  0  -0.173793  0  4.014402  0  0.049278  0  -0.097011  -0.168444  0  3.981433  0
C  C110  1  0.08390271  0.84361085  0.75751264  1  0  -0.154835  0  3.745113  0  0  -0.170464  0  3.994674  0  0  -0.173703  0  4.014444  0  0.049285  0  -0.096936  -0.168353  0  3.981475  0
C  C111  1  0.41610381  0.15638948  0.25751487  1  0  -0.154831  0  3.74494  0  0  -0.170474  0  3.99456  0  0  -0.173712  0  4.014328  0  0.049286  0  -0.096981  -0.168364  0  3.981361  0
C  C112  1  0.84160783  0.22290859  0.30641628  1  0  0.159449  0  3.797997  0  0  0.150026  0  4.04491  0  0  0.153953  0  4.067292  0  0.347063  0  0.093126  0.147315  0  4.030098  0
C  C113  1  0.65839219  0.77709086  0.80641480  1  0  0.159437  0  3.797967  0  0  0.149983  0  4.044903  0  0  0.153907  0  4.067286  0  0.347066  0  0.093126  0.147272  0  4.03009  0
C  C114  1  0.15839586  0.77708998  0.69358298  1  0  0.159592  0  3.798146  0  0  0.150183  0  4.045054  0  0  0.154109  0  4.067437  0  0.347085  0  0.093236  0.147471  0  4.030242  0
C  C115  1  0.34160770  0.22290947  0.19358669  1  0  0.1594  0  3.798045  0  0  0.149945  0  4.044978  0  0  0.153871  0  4.06736  0  0.34706  0  0.093123  0.147235  0  4.030164  0
C  C116  1  0.69717267  0.33607206  0.37862452  1  0  0.465574  0  3.703297  0  0  0.441013  0  3.973072  0  0  0.460744  0  3.984336  0  1.04211  0  0.235389  0.42792  0  3.96493  0
C  C117  1  0.80282735  0.66392739  0.87862378  1  0  0.465522  0  3.703383  0  0  0.440957  0  3.973128  0  0  0.460688  0  3.984391  0  1.04203  0  0.235373  0.427864  0  3.964986  0
C  C118  1  0.30283013  0.66392827  0.62137177  1  0  0.465471  0  3.703314  0  0  0.441011  0  3.973008  0  0  0.460767  0  3.984233  0  1.04247  0  0.235347  0.427917  0  3.964867  0
C  C119  1  0.19717254  0.33607295  0.12137622  1  0  0.465495  0  3.703362  0  0  0.440947  0  3.973125  0  0  0.460679  0  3.984387  0  1.041609  0  0.235393  0.427855  0  3.964983  0
C  C120  1  0.58745559  0.41580722  0.38951609  1  0  -0.41473  0  3.684381  0  0  -0.495008  0  3.92184  0  0  -0.499777  0  3.926661  0  -0.057332  0  -0.234628  -0.491547  0  3.918831  0
C  C121  1  0.91254438  0.58419135  0.88951534  1  0  -0.414731  0  3.684357  0  0  -0.495043  0  3.921815  0  0  -0.499808  0  3.926634  0  -0.057276  0  -0.234687  -0.491582  0  3.918807  0
C  C122  1  0.41254818  0.58419311  0.61047872  1  0  -0.414856  0  3.684583  0  0  -0.495144  0  3.921992  0  0  -0.499923  0  3.926807  0  -0.057162  0  -0.234644  -0.491684  0  3.918984  0
C  C123  1  0.08745449  0.41580810  0.11048466  1  0  -0.414718  0  3.684386  0  0  -0.495049  0  3.921792  0  0  -0.499816  0  3.926613  0  -0.057273  0  -0.234687  -0.49159  0  3.918783  0
C  C124  1  0.01712596  0.09570510  0.28531034  1  0  -0.068151  0  3.778355  0  0  -0.086451  0  4.035662  0  0  -0.087591  0  4.057352  0  -0.070998  0  -0.099777  -0.085644  0  4.021089  0
C  C125  1  0.48287570  0.90429523  0.78530960  1  0  -0.068088  0  3.778406  0  0  -0.086402  0  4.035713  0  0  -0.087544  0  4.057403  0  -0.070768  0  -0.099742  -0.085592  0  4.021137  0
C  C126  1  0.98287867  0.90429259  0.71469040  1  0  -0.068342  0  3.778465  0  0  -0.086601  0  4.035799  0  0  -0.087743  0  4.057489  0  -0.070753  0  -0.099827  -0.085793  0  4.021224  0
C  C127  1  0.51712613  0.09570510  0.21469114  1  0  -0.068163  0  3.778413  0  0  -0.08647  0  4.035738  0  0  -0.087609  0  4.057422  0  -0.071036  0  -0.099779  -0.085661  0  4.021163  0
N  N128  1  0.77288313  0.29956027  0.45257030  1  0  -0.509186  0  3.156548  0  0  -0.432035  0  3.43061  0  0  -0.455545  0  3.442748  0  -1.217763  0  -0.369362  -0.416103  0  3.42187  0
N  N129  1  0.72711595  0.70044006  0.95256956  1  0  -0.509171  0  3.156577  0  0  -0.432026  0  3.430641  0  0  -0.455537  0  3.442779  0  -1.217708  0  -0.369381  -0.416094  0  3.421901  0
N  N130  1  0.22711772  0.70044006  0.54742673  1  0  -0.50913  0  3.156666  0  0  -0.432027  0  3.430697  0  0  -0.455543  0  3.442822  0  -1.217843  0  -0.369329  -0.416095  0  3.421959  0
N  N131  1  0.27288394  0.29956027  0.04743119  1  0  -0.509119  0  3.156566  0  0  -0.43199  0  3.4306  0  0  -0.4555  0  3.442738  0  -1.217671  0  -0.369374  -0.416057  0  3.421858  0
N  N132  1  0.06899830  0.31606601  0.82741232  1  0  -0.541483  0  3.191264  0  0  -0.45955  0  3.464993  0  0  -0.484814  0  3.478714  0  -1.216393  0  -0.384598  -0.441791  0  3.454704  0
N  N133  1  0.43099849  0.68393432  0.32741010  1  0  -0.541497  0  3.19122  0  0  -0.459547  0  3.464961  0  0  -0.48481  0  3.478678  0  -1.21612  0  -0.38463  -0.441795  0  3.45467  0
N  N134  1  0.93099866  0.68393432  0.17258842  1  0  -0.541537  0  3.191231  0  0  -0.459598  0  3.464989  0  0  -0.484863  0  3.478711  0  -1.215944  0  -0.38467  -0.441845  0  3.454699  0
N  N135  1  0.56899945  0.31606601  0.67258916  1  0  -0.541532  0  3.191266  0  0  -0.459584  0  3.464984  0  0  -0.484855  0  3.47872  0  -1.21606  0  -0.384588  -0.441829  0  3.454693  0
N  N136  1  0.73531429  0.29131445  0.29032991  1  0  -0.394717  0  3.383693  0  0  -0.334165  0  3.605955  0  0  -0.35299  0  3.618596  0  -1.291652  0  -0.377236  -0.321417  0  3.597189  0
N  N137  1  0.76468669  0.70868500  0.79032991  1  0  -0.39473  0  3.383792  0  0  -0.33413  0  3.606021  0  0  -0.352949  0  3.618655  0  -1.291667  0  -0.377217  -0.321383  0  3.597255  0
N  N138  1  0.26469045  0.70868588  0.70966712  1  0  -0.39464  0  3.383747  0  0  -0.33421  0  3.606094  0  0  -0.353038  0  3.61872  0  -1.292207  0  -0.377251  -0.321462  0  3.597328  0
N  N139  1  0.23531319  0.29131533  0.20967157  1  0  -0.39472  0  3.383816  0  0  -0.334158  0  3.606076  0  0  -0.352983  0  3.61872  0  -1.291243  0  -0.377254  -0.321412  0  3.597311  0
N  N140  1  0.90516880  0.30312667  0.71553764  1  0  -0.538501  0  3.174908  0  0  -0.454966  0  3.447437  0  0  -0.480231  0  3.460718  0  -1.249426  0  -0.385709  -0.4374  0  3.437633  0
N  N141  1  0.59482939  0.69687542  0.21553615  1  0  -0.538462  0  3.174845  0  0  -0.454943  0  3.447357  0  0  -0.480213  0  3.460648  0  -1.249569  0  -0.385724  -0.437382  0  3.437545  0
N  N142  1  0.09482914  0.69687366  0.28446311  1  0  -0.538541  0  3.174977  0  0  -0.455029  0  3.447503  0  0  -0.480295  0  3.460782  0  -1.249414  0  -0.385728  -0.437467  0  3.437693  0
N  N143  1  0.40516862  0.30312667  0.78446385  1  0  -0.538499  0  3.174801  0  0  -0.454983  0  3.447336  0  0  -0.480247  0  3.460616  0  -1.249447  0  -0.38574  -0.437421  0  3.437531  0
Cl  Cl144  1  0.79108626  0.58587012  0.58291343  1  0  -0.599827  0  0.850412  0  0  -0.52807  0  1.091649  0  0  -0.545432  0  1.074317  0  -0.664591  0  -0.312318  -0.515609  0  1.103838  0
Cl  Cl145  1  0.70891278  0.41412933  0.08291268  1  0  -0.599811  0  0.850398  0  0  -0.528056  0  1.091633  0  0  -0.545416  0  1.074299  0  -0.66459  0  -0.3123  -0.515597  0  1.103825  0
Cl  Cl146  1  0.20891841  0.41412845  0.41708954  1  0  -0.599803  0  0.850413  0  0  -0.528062  0  1.091655  0  0  -0.545424  0  1.074326  0  -0.664585  0  -0.312291  -0.515598  0  1.103841  0
Cl  Cl147  1  0.29108224  0.58587100  0.91708360  1  0  -0.599806  0  0.850412  0  0  -0.528053  0  1.091641  0  0  -0.545415  0  1.074309  0  -0.664596  0  -0.312296  -0.51559  0  1.103829  0
