# generated using pymatgen
data_PrH7C14(NO4)2
_symmetry_space_group_name_H-M   'P 1'
_cell_length_a   8.39703851
_cell_length_b   12.41683166
_cell_length_c   13.79700707
_cell_angle_alpha   102.34637254
_cell_angle_beta   89.99998637
_cell_angle_gamma   90.00007765
_symmetry_Int_Tables_number   1
_chemical_formula_structural   PrH7C14(NO4)2
_chemical_formula_sum   'Pr4 H28 C56 N8 O32'
_cell_volume   1405.27027146
_cell_formula_units_Z   4
loop_
 _symmetry_equiv_pos_site_id
 _symmetry_equiv_pos_as_xyz
  1  'x, y, z'
loop_
 _atom_site_type_symbol
 _atom_site_label
 _atom_site_symmetry_multiplicity
 _atom_site_fract_x
 _atom_site_fract_y
 _atom_site_fract_z
 _atom_site_occupancy
 _atom_site_hle17_bader_spin_density
 _atom_site_hle17_ddec_charge
 _atom_site_hle17_ddec_spin_density
 _atom_site_hle17_ddec_sum_bond_order
 _atom_site_hle17_magmom
 _atom_site_hse06_10hf_bader_spin_density
 _atom_site_hse06_10hf_ddec_charge
 _atom_site_hse06_10hf_ddec_spin_density
 _atom_site_hse06_10hf_ddec_sum_bond_order
 _atom_site_hse06_10hf_magmom
 _atom_site_hse06_bader_spin_density
 _atom_site_hse06_ddec_charge
 _atom_site_hse06_ddec_spin_density
 _atom_site_hse06_ddec_sum_bond_order
 _atom_site_hse06_magmom
 _atom_site_pbe_bader_spin_density
 _atom_site_pbe_cm5_charge
 _atom_site_pbe_ddec_charge
 _atom_site_pbe_ddec_spin_density
 _atom_site_pbe_ddec_sum_bond_order
 _atom_site_pbe_magmom
Pr  Pr0  1  0.22735455  0.70382091  0.31738363  1  0  2.222747  0  1.74106  0  0  2.025909  0  2.247301  0  0  2.070704  0  2.198283  0  0  1.531855  1.990816  0  2.286185  0
Pr  Pr1  1  0.72734833  0.29618443  0.18261618  1  0  2.222664  0  1.741094  0  0  2.025903  0  2.247209  0  0  2.070796  0  2.198035  0  0  1.531865  1.990696  0  2.286278  0
Pr  Pr2  1  0.77264634  0.29617957  0.68261705  1  0  2.222743  0  1.741075  0  0  2.025938  0  2.24726  0  0  2.070743  0  2.198227  0  0  1.531879  1.990843  0  2.286149  0
Pr  Pr3  1  0.27265255  0.70381441  0.81738346  1  0  2.222702  0  1.741025  0  0  2.025948  0  2.247117  0  0  2.070821  0  2.197976  0  0  1.531872  1.99074  0  2.286184  0
H  H4  1  0.69808535  0.03140511  0.37872403  1  0  0.126227  0  0.956374  0  0  0.128594  0  1.027245  0  0  0.133467  0  1.023847  0  0  0.112424  0.12501  0  1.029935  0
H  H5  1  0.19807308  0.96860432  0.12128019  1  0  0.126221  0  0.956338  0  0  0.128477  0  1.027335  0  0  0.133354  0  1.023936  0  0  0.11236  0.124892  0  1.030025  0
H  H6  1  0.30192030  0.96859785  0.62127713  1  0  0.1262  0  0.956314  0  0  0.12851  0  1.027253  0  0  0.133382  0  1.023859  0  0  0.112412  0.124929  0  1.029935  0
H  H7  1  0.80192780  0.03139534  0.87871888  1  0  0.126269  0  0.95635  0  0  0.128515  0  1.027344  0  0  0.133392  0  1.023944  0  0  0.112382  0.124931  0  1.030033  0
H  H8  1  0.52357754  0.19799233  0.41143123  1  0  0.122165  0  0.949636  0  0  0.130093  0  1.007783  0  0  0.134565  0  1.003885  0  0  0.120764  0.126796  0  1.010705  0
H  H9  1  0.02356379  0.80201858  0.08857113  1  0  0.122309  0  0.949493  0  0  0.130208  0  1.007684  0  0  0.13468  0  1.003787  0  0  0.120801  0.126909  0  1.010607  0
H  H10  1  0.47643049  0.80201393  0.58856767  1  0  0.122257  0  0.949596  0  0  0.130149  0  1.007786  0  0  0.134621  0  1.003889  0  0  0.1208  0.126857  0  1.010709  0
H  H11  1  0.97643590  0.19798025  0.91143140  1  0  0.122337  0  0.94955  0  0  0.130219  0  1.007743  0  0  0.13469  0  1.00385  0  0  0.120835  0.126925  0  1.010667  0
H  H12  1  0.22382898  0.17152027  0.40793915  1  0  0.111034  0  0.965395  0  0  0.1183  0  1.029348  0  0  0.121043  0  1.029242  0  0  0.111286  0.11629  0  1.029609  0
H  H13  1  0.72381784  0.82848754  0.09206114  1  0  0.111026  0  0.965363  0  0  0.118296  0  1.029318  0  0  0.121045  0  1.029211  0  0  0.111275  0.116283  0  1.029586  0
H  H14  1  0.77617428  0.82848434  0.59205581  1  0  0.111028  0  0.965381  0  0  0.118326  0  1.029305  0  0  0.121072  0  1.029204  0  0  0.111281  0.116314  0  1.029569  0
H  H15  1  0.27618304  0.17151046  0.90794341  1  0  0.111126  0  0.965306  0  0  0.118395  0  1.029243  0  0  0.121149  0  1.029137  0  0  0.11131  0.116381  0  1.02951  0
H  H16  1  0.89666182  0.64926349  0.65826336  1  0  0.127801  0  0.945515  0  0  0.133827  0  1.009552  0  0  0.13787  0  1.007406  0  0  0.119433  0.130887  0  1.011213  0
H  H17  1  0.39666141  0.35072072  0.84173379  1  0  0.127751  0  0.945561  0  0  0.133806  0  1.009561  0  0  0.137847  0  1.007424  0  0  0.119414  0.130866  0  1.011223  0
H  H18  1  0.10332835  0.35073782  0.34173531  1  0  0.127733  0  0.945537  0  0  0.133801  0  1.009518  0  0  0.137845  0  1.007374  0  0  0.119398  0.130859  0  1.011183  0
H  H19  1  0.60333351  0.64927069  0.15826803  1  0  0.127727  0  0.945591  0  0  0.133747  0  1.009649  0  0  0.137798  0  1.007485  0  0  0.119398  0.130806  0  1.011309  0
H  H20  1  0.64659979  0.56876296  0.57318749  1  0  0.115675  0  0.955493  0  0  0.125918  0  1.010588  0  0  0.129988  0  1.007353  0  0  0.116812  0.122922  0  1.013032  0
H  H21  1  0.14659950  0.43122760  0.92680731  1  0  0.115767  0  0.95551  0  0  0.125959  0  1.01065  0  0  0.130032  0  1.007413  0  0  0.116873  0.122963  0  1.013096  0
H  H22  1  0.35339275  0.43123835  0.42681046  1  0  0.115712  0  0.955462  0  0  0.125928  0  1.010583  0  0  0.130001  0  1.007346  0  0  0.116857  0.122932  0  1.013029  0
H  H23  1  0.85340019  0.56877041  0.07319290  1  0  0.115727  0  0.955574  0  0  0.125985  0  1.010647  0  0  0.13004  0  1.007433  0  0  0.11687  0.122987  0  1.013097  0
H  H24  1  0.63832544  0.52175846  0.38576563  1  0  0.126306  0  0.953284  0  0  0.132907  0  1.016785  0  0  0.137408  0  1.013546  0  0  0.123154  0.129613  0  1.0193  0
H  H25  1  0.13832419  0.47824350  0.11422991  1  0  0.126341  0  0.953259  0  0  0.132937  0  1.016764  0  0  0.137442  0  1.013518  0  0  0.123175  0.129642  0  1.019281  0
H  H26  1  0.36167187  0.47824038  0.61423184  1  0  0.126361  0  0.953294  0  0  0.132961  0  1.016786  0  0  0.137461  0  1.013545  0  0  0.123174  0.129668  0  1.019301  0
H  H27  1  0.86167789  0.52175863  0.88577036  1  0  0.126351  0  0.953258  0  0  0.132924  0  1.016782  0  0  0.137427  0  1.013535  0  0  0.123163  0.12963  0  1.019299  0
H  H28  1  0.90505671  0.85803464  0.34364671  1  0  0.447679  0  0.852942  0  0  0.41032  0  0.926282  0  0  0.424176  0  0.906514  0  0  0.317126  0.400609  0  0.940082  0
H  H29  1  0.40504171  0.14197334  0.15636156  1  0  0.447665  0  0.852939  0  0  0.410252  0  0.92637  0  0  0.424108  0  0.906601  0  0  0.317095  0.400542  0  0.94017  0
H  H30  1  0.09494775  0.14196750  0.65635140  1  0  0.447681  0  0.852924  0  0  0.410251  0  0.926367  0  0  0.424102  0  0.90661  0  0  0.317111  0.400541  0  0.940166  0
H  H31  1  0.59495560  0.85802466  0.84364154  1  0  0.447739  0  0.852833  0  0  0.410311  0  0.926279  0  0  0.424164  0  0.906517  0  0  0.317125  0.400601  0  0.940079  0
C  C32  1  0.49839553  0.91881349  0.35861103  1  0  0.100233  0  3.742726  0  0  0.105684  0  3.98663  0  0  0.105469  0  4.006642  0  0  0.122061  0.105642  0  3.973063  0
C  C33  1  0.99838060  0.08119789  0.14139426  1  0  0.100286  0  3.742822  0  0  0.105879  0  3.986488  0  0  0.105666  0  4.006506  0  0  0.122171  0.105835  0  3.972913  0
C  C34  1  0.50161011  0.08119112  0.64138900  1  0  0.100189  0  3.742866  0  0  0.105705  0  3.986647  0  0  0.105493  0  4.006659  0  0  0.122076  0.105662  0  3.973082  0
C  C35  1  0.00161790  0.91880259  0.85860642  1  0  0.100307  0  3.742669  0  0  0.105828  0  3.986394  0  0  0.105615  0  4.006411  0  0  0.122153  0.10578  0  3.972819  0
C  C36  1  0.56866114  0.02335075  0.37743763  1  0  -0.084079  0  3.631971  0  0  -0.111634  0  3.889021  0  0  -0.11526  0  3.90817  0  0  -0.061713  -0.109189  0  3.876304  0
C  C37  1  0.06864413  0.97665773  0.12256281  1  0  -0.084176  0  3.631844  0  0  -0.111681  0  3.888891  0  0  -0.115309  0  3.90804  0  0  -0.061709  -0.109237  0  3.876178  0
C  C38  1  0.43134689  0.97665139  0.62256120  1  0  -0.084075  0  3.63187  0  0  -0.111597  0  3.888906  0  0  -0.115223  0  3.908055  0  0  -0.061714  -0.109153  0  3.876189  0
C  C39  1  0.93135437  0.02334193  0.87743771  1  0  -0.084216  0  3.63183  0  0  -0.111686  0  3.888861  0  0  -0.115314  0  3.908007  0  0  -0.061708  -0.109241  0  3.876148  0
C  C40  1  0.47025629  0.11618874  0.39516640  1  0  0.010887  0  3.64145  0  0  -0.007233  0  3.896978  0  0  -0.005322  0  3.912213  0  0  -0.050698  -0.008394  0  3.886659  0
C  C41  1  0.97023691  0.88382179  0.10483221  1  0  0.010954  0  3.641352  0  0  -0.007177  0  3.896921  0  0  -0.005266  0  3.912155  0  0  -0.050614  -0.008334  0  3.886604  0
C  C42  1  0.52975174  0.88381587  0.60482929  1  0  0.01091  0  3.64137  0  0  -0.007201  0  3.896952  0  0  -0.005289  0  3.912186  0  0  -0.050691  -0.008366  0  3.886638  0
C  C43  1  0.02976040  0.11617786  0.89517048  1  0  0.011056  0  3.641196  0  0  -0.007048  0  3.89672  0  0  -0.005136  0  3.911953  0  0  -0.050612  -0.008211  0  3.886408  0
C  C44  1  0.30571612  0.10210610  0.39413000  1  0  -0.075138  0  3.653031  0  0  -0.100997  0  3.900934  0  0  -0.10323  0  3.91965  0  0  -0.061843  -0.099556  0  3.888426  0
C  C45  1  0.80569915  0.89790262  0.10586972  1  0  -0.07514  0  3.652994  0  0  -0.100987  0  3.90091  0  0  -0.103221  0  3.919623  0  0  -0.061846  -0.099551  0  3.888407  0
C  C46  1  0.69429190  0.89789687  0.60586464  1  0  -0.075174  0  3.652912  0  0  -0.101083  0  3.900834  0  0  -0.103324  0  3.919555  0  0  -0.061835  -0.099644  0  3.88833  0
C  C47  1  0.19429935  0.10209538  0.89413410  1  0  -0.075402  0  3.652975  0  0  -0.10125  0  3.900913  0  0  -0.103493  0  3.919631  0  0  -0.061909  -0.099812  0  3.888411  0
C  C48  1  0.24503127  0.99508868  0.37453061  1  0  0.102501  0  3.771219  0  0  0.106951  0  4.015617  0  0  0.106454  0  4.034849  0  0  0.122051  0.107204  0  4.002582  0
C  C49  1  0.74501621  0.00492162  0.12547234  1  0  0.10249  0  3.771254  0  0  0.106906  0  4.01576  0  0  0.106405  0  4.03498  0  0  0.121993  0.107171  0  4.002734  0
C  C50  1  0.75497437  0.00491594  0.62546653  1  0  0.102587  0  3.771215  0  0  0.107096  0  4.01558  0  0  0.1066  0  4.03481  0  0  0.12201  0.107352  0  4.002547  0
C  C51  1  0.25498110  0.99507721  0.87452875  1  0  0.102503  0  3.77132  0  0  0.106893  0  4.015832  0  0  0.106395  0  4.035055  0  0  0.121964  0.107158  0  4.002808  0
C  C52  1  0.59488660  0.81270735  0.33869475  1  0  0.653968  0  3.908181  0  0  0.603659  0  4.206191  0  0  0.63743  0  4.196586  0  0  0.226768  0.580847  0  4.211837  0
C  C53  1  0.09487049  0.18730032  0.16131278  1  0  0.654143  0  3.907968  0  0  0.603852  0  4.205883  0  0  0.637623  0  4.196278  0  0  0.226829  0.581055  0  4.211509  0
C  C54  1  0.40512143  0.18729643  0.66130440  1  0  0.654069  0  3.907953  0  0  0.603774  0  4.205893  0  0  0.637544  0  4.19629  0  0  0.226766  0.580966  0  4.211535  0
C  C55  1  0.90512920  0.81269687  0.83868727  1  0  0.654117  0  3.907959  0  0  0.603887  0  4.205807  0  0  0.637657  0  4.196203  0  0  0.226831  0.581099  0  4.211422  0
C  C56  1  0.06881437  0.97684756  0.37272952  1  0  0.635911  0  3.807308  0  0  0.585359  0  4.106417  0  0  0.617128  0  4.098271  0  0  0.246477  0.56363  0  4.111567  0
C  C57  1  0.56880648  0.02316915  0.12727758  1  0  0.635919  0  3.806941  0  0  0.585308  0  4.106195  0  0  0.617114  0  4.097993  0  0  0.246375  0.563535  0  4.111413  0
C  C58  1  0.93119009  0.02315705  0.62726833  1  0  0.635743  0  3.807127  0  0  0.585108  0  4.106343  0  0  0.616884  0  4.098188  0  0  0.246395  0.56337  0  4.111505  0
C  C59  1  0.43118964  0.97683132  0.87272527  1  0  0.636049  0  3.806951  0  0  0.58547  0  4.106137  0  0  0.617268  0  4.097942  0  0  0.246474  0.563696  0  4.111358  0
C  C60  1  0.01176536  0.65759716  0.52008296  1  0  0.096055  0  3.7547  0  0  0.099903  0  3.999695  0  0  0.099732  0  4.018859  0  0  0.120158  0.09979  0  3.986848  0
C  C61  1  0.51176029  0.34239738  0.97991408  1  0  0.096141  0  3.754754  0  0  0.099864  0  3.999879  0  0  0.099698  0  4.019041  0  0  0.120164  0.09975  0  3.987032  0
C  C62  1  0.98822838  0.34240580  0.47991676  1  0  0.096124  0  3.754562  0  0  0.099923  0  3.99959  0  0  0.099751  0  4.018758  0  0  0.120202  0.099811  0  3.986744  0
C  C63  1  0.48823464  0.65759403  0.02008630  1  0  0.096115  0  3.754869  0  0  0.099955  0  3.999834  0  0  0.099786  0  4.019006  0  0  0.120171  0.099837  0  3.986986  0
C  C64  1  0.88604498  0.63246565  0.57765954  1  0  -0.085469  0  3.630696  0  0  -0.110627  0  3.883316  0  0  -0.113164  0  3.901445  0  0  -0.061  -0.108982  0  3.871377  0
C  C65  1  0.38604100  0.36752267  0.92233769  1  0  -0.085479  0  3.630772  0  0  -0.110643  0  3.883406  0  0  -0.113184  0  3.901533  0  0  -0.061005  -0.108998  0  3.87147  0
C  C66  1  0.11395352  0.36753648  0.42234001  1  0  -0.085457  0  3.630637  0  0  -0.110631  0  3.883252  0  0  -0.113174  0  3.901382  0  0  -0.061029  -0.108985  0  3.871312  0
C  C67  1  0.61395512  0.63246874  0.07766269  1  0  -0.085421  0  3.630919  0  0  -0.110588  0  3.883524  0  0  -0.113126  0  3.901652  0  0  -0.060989  -0.108943  0  3.871585  0
C  C68  1  0.74761877  0.58606254  0.52943532  1  0  0.007394  0  3.635792  0  0  -0.008502  0  3.885468  0  0  -0.007087  0  3.901786  0  0  -0.052659  -0.009343  0  3.874471  0
C  C69  1  0.24761485  0.41392812  0.97056093  1  0  0.007323  0  3.635816  0  0  -0.008523  0  3.885502  0  0  -0.00711  0  3.90182  0  0  -0.052669  -0.009363  0  3.874505  0
C  C70  1  0.25237735  0.41393794  0.47056392  1  0  0.007411  0  3.635805  0  0  -0.008477  0  3.885504  0  0  -0.007063  0  3.901821  0  0  -0.052678  -0.009318  0  3.874506  0
C  C71  1  0.75238484  0.58606742  0.02943879  1  0  0.007316  0  3.635892  0  0  -0.008605  0  3.885562  0  0  -0.007179  0  3.901889  0  0  -0.052702  -0.009443  0  3.874561  0
C  C72  1  0.74168930  0.56108979  0.42611995  1  0  -0.079337  0  3.637552  0  0  -0.105448  0  3.889418  0  0  -0.107826  0  3.90631  0  0  -0.055494  -0.103932  0  3.878235  0
C  C73  1  0.24168917  0.43890815  0.07387625  1  0  -0.079284  0  3.637645  0  0  -0.105424  0  3.889465  0  0  -0.107804  0  3.906358  0  0  -0.055514  -0.103909  0  3.878285  0
C  C74  1  0.25830682  0.43891069  0.57387929  1  0  -0.07942  0  3.637744  0  0  -0.105556  0  3.889543  0  0  -0.107931  0  3.906432  0  0  -0.05552  -0.10404  0  3.878361  0
C  C75  1  0.75831171  0.56108986  0.92612323  1  0  -0.079261  0  3.637588  0  0  -0.105365  0  3.889404  0  0  -0.10774  0  3.906289  0  0  -0.05548  -0.103849  0  3.878223  0
C  C76  1  0.87334527  0.58822464  0.37425956  1  0  0.116747  0  3.751338  0  0  0.11799  0  3.999352  0  0  0.119177  0  4.016235  0  0  0.12965  0.117016  0  3.988005  0
C  C77  1  0.37334031  0.41177590  0.12573857  1  0  0.116625  0  3.751439  0  0  0.11795  0  3.999335  0  0  0.119138  0  4.016221  0  0  0.129648  0.116977  0  3.987984  0
C  C78  1  0.12665204  0.41177419  0.62574008  1  0  0.116703  0  3.751598  0  0  0.118077  0  3.999418  0  0  0.119268  0  4.016302  0  0  0.129661  0.117103  0  3.988072  0
C  C79  1  0.62666057  0.58822458  0.87426211  1  0  0.116607  0  3.751399  0  0  0.117925  0  3.99928  0  0  0.119117  0  4.016169  0  0  0.129639  0.11695  0  3.98793  0
C  C80  1  0.16907085  0.70726923  0.56063027  1  0  0.694889  0  3.876212  0  0  0.645813  0  4.170071  0  0  0.680649  0  4.158821  0  0  0.240769  0.622188  0  4.17682  0
C  C81  1  0.66907166  0.29272710  0.93937796  1  0  0.695076  0  3.876054  0  0  0.64614  0  4.169722  0  0  0.680978  0  4.15846  0  0  0.240817  0.622513  0  4.176482  0
C  C82  1  0.83092288  0.29273290  0.43937146  1  0  0.69492  0  3.876217  0  0  0.645927  0  4.169959  0  0  0.680768  0  4.158698  0  0  0.24075  0.622297  0  4.176716  0
C  C83  1  0.33092207  0.70726926  0.06062047  1  0  0.694977  0  3.876131  0  0  0.645998  0  4.169797  0  0  0.680835  0  4.158538  0  0  0.240787  0.622378  0  4.176552  0
C  C84  1  0.88677620  0.56178871  0.26277989  1  0  0.69304  0  3.859373  0  0  0.642534  0  4.154502  0  0  0.67812  0  4.141033  0  0  0.246652  0.618319  0  4.162853  0
C  C85  1  0.38677838  0.43821019  0.23721938  1  0  0.693167  0  3.859218  0  0  0.642651  0  4.154321  0  0  0.678243  0  4.140835  0  0  0.246683  0.618435  0  4.162676  0
C  C86  1  0.11322349  0.43820930  0.73722031  1  0  0.69297  0  3.859258  0  0  0.642404  0  4.154438  0  0  0.677975  0  4.140996  0  0  0.246615  0.618189  0  4.162789  0
C  C87  1  0.61322488  0.56179029  0.76278058  1  0  0.69314  0  3.859267  0  0  0.642649  0  4.15433  0  0  0.678222  0  4.140876  0  0  0.246712  0.618433  0  4.162686  0
N  N88  1  0.33925370  0.90559302  0.35692128  1  0  -0.421172  0  3.270101  0  0  -0.373036  0  3.520445  0  0  -0.38421  0  3.539868  0  0  -0.378634  -0.364967  0  3.507171  0
N  N89  1  0.83923998  0.09441654  0.14308296  1  0  -0.421206  0  3.270087  0  0  -0.373098  0  3.520408  0  0  -0.384285  0  3.539837  0  0  -0.378626  -0.365015  0  3.50713  0
N  N90  1  0.66075195  0.09440994  0.64307626  1  0  -0.421187  0  3.270237  0  0  -0.373074  0  3.520533  0  0  -0.38425  0  3.539957  0  0  -0.378606  -0.365003  0  3.507257  0
N  N91  1  0.16075852  0.90558229  0.85691741  1  0  -0.421227  0  3.269995  0  0  -0.373096  0  3.520348  0  0  -0.38428  0  3.539775  0  0  -0.378653  -0.365014  0  3.507073  0
N  N92  1  0.00226796  0.63781892  0.42062502  1  0  -0.451405  0  3.334151  0  0  -0.400996  0  3.585273  0  0  -0.413326  0  3.605537  0  0  -0.393705  -0.392161  0  3.571504  0
N  N93  1  0.50226430  0.36217960  0.07937205  1  0  -0.451466  0  3.334148  0  0  -0.401054  0  3.585276  0  0  -0.413403  0  3.605548  0  0  -0.393727  -0.392203  0  3.571503  0
N  N94  1  0.99772696  0.36218238  0.57937510  1  0  -0.451444  0  3.334177  0  0  -0.401072  0  3.585263  0  0  -0.413401  0  3.605523  0  0  -0.393735  -0.392237  0  3.571496  0
N  N95  1  0.49773301  0.63781429  0.92062736  1  0  -0.451441  0  3.334034  0  0  -0.401084  0  3.585153  0  0  -0.413429  0  3.605424  0  0  -0.393726  -0.392235  0  3.571382  0
O  O96  1  0.51674230  0.72332379  0.33024466  1  0  -0.700767  0  2.015907  0  0  -0.649741  0  2.268348  0  0  -0.673749  0  2.257617  0  0  -0.39384  -0.632577  0  2.275184  0
O  O97  1  0.01673350  0.27668465  0.16975287  1  0  -0.700797  0  2.015927  0  0  -0.649844  0  2.268438  0  0  -0.673864  0  2.257701  0  0  -0.393847  -0.632669  0  2.275278  0
O  O98  1  0.48326215  0.27667918  0.66975215  1  0  -0.700746  0  2.015892  0  0  -0.649771  0  2.268373  0  0  -0.673778  0  2.257642  0  0  -0.393825  -0.632608  0  2.27521  0
O  O99  1  0.98326619  0.72331419  0.83024532  1  0  -0.700819  0  2.016015  0  0  -0.649883  0  2.268501  0  0  -0.673901  0  2.257765  0  0  -0.393866  -0.632714  0  2.275337  0
O  O100  1  0.74385937  0.81734928  0.32977347  1  0  -0.612641  0  2.021041  0  0  -0.561123  0  2.24965  0  0  -0.586384  0  2.239696  0  0  -0.309407  -0.543586  0  2.256034  0
O  O101  1  0.24384563  0.18265852  0.17024131  1  0  -0.612781  0  2.02086  0  0  -0.56125  0  2.249464  0  0  -0.586505  0  2.239505  0  0  -0.309473  -0.54372  0  2.255845  0
O  O102  1  0.25614628  0.18265201  0.67023317  1  0  -0.612724  0  2.020783  0  0  -0.561184  0  2.249402  0  0  -0.58644  0  2.239453  0  0  -0.309437  -0.543649  0  2.255784  0
O  O103  1  0.75615288  0.81733866  0.82976018  1  0  -0.612756  0  2.020764  0  0  -0.561245  0  2.249364  0  0  -0.586499  0  2.239408  0  0  -0.30945  -0.543718  0  2.255742  0
O  O104  1  0.97178305  0.05191689  0.39188136  1  0  -0.501883  0  1.917485  0  0  -0.459274  0  2.124205  0  0  -0.478757  0  2.118363  0  0  -0.261531  -0.446026  0  2.128104  0
O  O105  1  0.47176599  0.94809033  0.10812893  1  0  -0.501962  0  1.916818  0  0  -0.459251  0  2.123486  0  0  -0.478782  0  2.117689  0  0  -0.261494  -0.445966  0  2.12737  0
O  O106  1  0.02822617  0.94808277  0.60811771  1  0  -0.501791  0  1.917267  0  0  -0.459115  0  2.123968  0  0  -0.478602  0  2.118135  0  0  -0.261446  -0.445855  0  2.127854  0
O  O107  1  0.52823251  0.05191014  0.89187683  1  0  -0.502051  0  1.916883  0  0  -0.459362  0  2.12353  0  0  -0.478888  0  2.117731  0  0  -0.261553  -0.44607  0  2.127411  0
O  O108  1  0.26454384  0.73346122  0.49787973  1  0  -0.697005  0  1.999544  0  0  -0.645055  0  2.246825  0  0  -0.669062  0  2.235998  0  0  -0.380199  -0.627845  0  2.253644  0
O  O109  1  0.76453527  0.26653921  0.00211912  1  0  -0.697089  0  1.999847  0  0  -0.645193  0  2.247078  0  0  -0.669206  0  2.236236  0  0  -0.380261  -0.627964  0  2.253894  0
O  O110  1  0.73545109  0.26654009  0.50212184  1  0  -0.697045  0  1.999564  0  0  -0.645132  0  2.246814  0  0  -0.669141  0  2.235982  0  0  -0.380203  -0.627915  0  2.253625  0
O  O111  1  0.23546323  0.73345962  0.99788196  1  0  -0.697034  0  1.999967  0  0  -0.645133  0  2.247207  0  0  -0.669144  0  2.23637  0  0  -0.380236  -0.627884  0  2.253965  0
O  O112  1  0.19827280  0.71806507  0.65210165  1  0  -0.725381  0  2.02868  0  0  -0.671257  0  2.293136  0  0  -0.695869  0  2.28055  0  0  -0.402482  -0.653489  0  2.301183  0
O  O113  1  0.69827125  0.28192966  0.84789467  1  0  -0.72552  0  2.028385  0  0  -0.671431  0  2.292783  0  0  -0.696034  0  2.280198  0  0  -0.402522  -0.653683  0  2.300834  0
O  O114  1  0.80172212  0.28193459  0.34789887  1  0  -0.725357  0  2.028691  0  0  -0.671249  0  2.293101  0  0  -0.695872  0  2.280523  0  0  -0.402437  -0.653477  0  2.301146  0
O  O115  1  0.30172248  0.71806504  0.15210562  1  0  -0.725498  0  2.028262  0  0  -0.671394  0  2.292673  0  0  -0.695997  0  2.280086  0  0  -0.402517  -0.65365  0  2.30072  0
O  O116  1  0.98922309  0.61448550  0.22373873  1  0  -0.688691  0  1.986453  0  0  -0.63892  0  2.232486  0  0  -0.661547  0  2.218892  0  0  -0.369356  -0.622803  0  2.241461  0
O  O117  1  0.48921444  0.38551928  0.27625804  1  0  -0.688695  0  1.986783  0  0  -0.638929  0  2.232804  0  0  -0.661568  0  2.219198  0  0  -0.369338  -0.622799  0  2.241786  0
O  O118  1  0.01077541  0.38551580  0.77626211  1  0  -0.688655  0  1.986474  0  0  -0.638859  0  2.232485  0  0  -0.661482  0  2.218901  0  0  -0.369337  -0.622741  0  2.241457  0
O  O119  1  0.51078763  0.61448038  0.72374103  1  0  -0.688688  0  1.986826  0  0  -0.638936  0  2.232837  0  0  -0.661567  0  2.219242  0  0  -0.369343  -0.622805  0  2.241819  0
O  O120  1  0.79833067  0.48573348  0.21481699  1  0  -0.724374  0  2.03775  0  0  -0.667085  0  2.301258  0  0  -0.692428  0  2.288636  0  0  -0.409193  -0.648757  0  2.309337  0
O  O121  1  0.29832345  0.51427194  0.28518210  1  0  -0.724472  0  2.037415  0  0  -0.667172  0  2.300917  0  0  -0.692506  0  2.2883  0  0  -0.409247  -0.64886  0  2.30899  0
O  O122  1  0.20167259  0.51426536  0.78518338  1  0  -0.724342  0  2.037619  0  0  -0.66703  0  2.301108  0  0  -0.692366  0  2.2885  0  0  -0.40919  -0.648705  0  2.309189  0
O  O123  1  0.70167863  0.48572772  0.71481842  1  0  -0.724454  0  2.037411  0  0  -0.667171  0  2.300901  0  0  -0.692498  0  2.28829  0  0  -0.409262  -0.648859  0  2.308976  0
O  O124  1  0.02874777  0.86922719  0.34731210  1  0  -0.663861  0  2.176514  0  0  -0.602815  0  2.413118  0  0  -0.626159  0  2.393479  0  0  -0.365698  -0.585934  0  2.426143  0
O  O125  1  0.52873054  0.13078702  0.15269307  1  0  -0.663843  0  2.176653  0  0  -0.602766  0  2.413315  0  0  -0.626134  0  2.393669  0  0  -0.365642  -0.58586  0  2.426357  0
O  O126  1  0.97126145  0.13077496  0.65268166  1  0  -0.663897  0  2.176622  0  0  -0.602788  0  2.413324  0  0  -0.626138  0  2.393689  0  0  -0.365707  -0.585904  0  2.426349  0
O  O127  1  0.47126558  0.86921428  0.84730994  1  0  -0.66394  0  2.176629  0  0  -0.602848  0  2.413303  0  0  -0.626207  0  2.393655  0  0  -0.365672  -0.585944  0  2.426349  0
