# generated using pymatgen
data_ZnH9C13N3O4
_symmetry_space_group_name_H-M   'P 1'
_cell_length_a   7.74322914
_cell_length_b   14.80148410
_cell_length_c   16.04470000
_cell_angle_alpha   107.76362012
_cell_angle_beta   90.00000000
_cell_angle_gamma   90.00000000
_symmetry_Int_Tables_number   1
_chemical_formula_structural   ZnH9C13N3O4
_chemical_formula_sum   'Zn4 H36 C52 N12 O16'
_cell_volume   1751.23079757
_cell_formula_units_Z   4
loop_
 _symmetry_equiv_pos_site_id
 _symmetry_equiv_pos_as_xyz
  1  'x, y, z'
loop_
 _atom_site_type_symbol
 _atom_site_label
 _atom_site_symmetry_multiplicity
 _atom_site_fract_x
 _atom_site_fract_y
 _atom_site_fract_z
 _atom_site_occupancy
 _atom_site_hle17_bader_spin_density
 _atom_site_hle17_ddec_charge
 _atom_site_hle17_ddec_spin_density
 _atom_site_hle17_ddec_sum_bond_order
 _atom_site_hle17_magmom
 _atom_site_hse06_10hf_bader_spin_density
 _atom_site_hse06_10hf_ddec_charge
 _atom_site_hse06_10hf_ddec_spin_density
 _atom_site_hse06_10hf_ddec_sum_bond_order
 _atom_site_hse06_10hf_magmom
 _atom_site_hse06_bader_spin_density
 _atom_site_hse06_ddec_charge
 _atom_site_hse06_ddec_spin_density
 _atom_site_hse06_ddec_sum_bond_order
 _atom_site_hse06_magmom
 _atom_site_pbe_bader_charge
 _atom_site_pbe_bader_spin_density
 _atom_site_pbe_cm5_charge
 _atom_site_pbe_ddec_charge
 _atom_site_pbe_ddec_spin_density
 _atom_site_pbe_ddec_sum_bond_order
 _atom_site_pbe_magmom
Zn  Zn0  1  0.00432636  0.63638681  0.80907542  1  0  1.016684  0  1.804278  0  0  0.826148  0  2.271051  0  0  0.872828  0  2.216876  0  1.243995  0  0.693435  0.793741  0  2.308207  0
Zn  Zn1  1  0.50432706  0.36361261  0.69092473  1  0  1.016675  0  1.804167  0  0  0.826157  0  2.270925  0  0  0.872838  0  2.216752  0  1.243762  0  0.693444  0.793752  0  2.308079  0
Zn  Zn2  1  0.99567117  0.36361261  0.19092535  1  0  1.016654  0  1.804267  0  0  0.826129  0  2.271043  0  0  0.872807  0  2.216869  0  1.2438  0  0.69343  0.793724  0  2.308198  0
Zn  Zn3  1  0.49567692  0.63638681  0.30907542  1  0  1.016651  0  1.804231  0  0  0.826112  0  2.270985  0  0  0.872794  0  2.216814  0  1.243876  0  0.693404  0.793703  0  2.308141  0
H  H4  1  0.02115784  0.48721540  0.85693063  1  0  0.330373  0  0.890497  0  0  0.315961  0  0.947833  0  0  0.32345  0  0.941744  0  0.496654  0  0.299224  0.310603  0  0.952196  0
H  H5  1  0.52115983  0.51278401  0.64307014  1  0  0.330334  0  0.890551  0  0  0.315969  0  0.94782  0  0  0.323459  0  0.94173  0  0.496653  0  0.299248  0.310609  0  0.95218  0
H  H6  1  0.97883969  0.51278401  0.14306889  1  0  0.330304  0  0.890568  0  0  0.315915  0  0.947873  0  0  0.323403  0  0.941786  0  0.496655  0  0.299222  0.31056  0  0.952238  0
H  H7  1  0.47884286  0.48721469  0.35692981  1  0  0.330353  0  0.89051  0  0  0.315948  0  0.947832  0  0  0.323438  0  0.941743  0  0.49664  0  0.299217  0.31059  0  0.952193  0
H  H8  1  0.16626009  0.47466556  0.77774981  1  0  0.32647  0  0.913336  0  0  0.309573  0  0.975037  0  0  0.31717  0  0.969233  0  0.488542  0  0.293642  0.304139  0  0.979188  0
H  H9  1  0.66625821  0.52533385  0.72225096  1  0  0.32652  0  0.913256  0  0  0.309587  0  0.97501  0  0  0.317184  0  0.969206  0  0.488535  0  0.293662  0.304153  0  0.979162  0
H  H10  1  0.83373873  0.52533527  0.22225074  1  0  0.326491  0  0.913255  0  0  0.309607  0  0.974955  0  0  0.317203  0  0.969151  0  0.488532  0  0.293658  0.304172  0  0.979108  0
H  H11  1  0.33374190  0.47466485  0.27774836  1  0  0.326549  0  0.913186  0  0  0.309614  0  0.974948  0  0  0.317213  0  0.969143  0  0.488527  0  0.293674  0.304181  0  0.979098  0
H  H12  1  0.02717083  0.76009459  0.99771148  1  0  0.108988  0  0.957431  0  0  0.117501  0  1.015414  0  0  0.12055  0  1.012593  0  0.190757  0  0.126337  0.115173  0  1.017591  0
H  H13  1  0.52716766  0.23990553  0.50228887  1  0  0.108973  0  0.957418  0  0  0.117488  0  1.015404  0  0  0.120536  0  1.012585  0  0.190722  0  0.126335  0.115159  0  1.017582  0
H  H14  1  0.97282928  0.23990553  0.00228887  1  0  0.109011  0  0.957358  0  0  0.117527  0  1.015338  0  0  0.120575  0  1.012518  0  0.190771  0  0.126344  0.115199  0  1.017516  0
H  H15  1  0.47282858  0.76009530  0.49770981  1  0  0.109015  0  0.957352  0  0  0.117528  0  1.015337  0  0  0.120577  0  1.012518  0  0.190657  0  0.126359  0.115199  0  1.017515  0
H  H16  1  0.10164493  0.55189283  0.00984094  1  0  0.114247  0  0.951973  0  0  0.122995  0  1.017067  0  0  0.126912  0  1.013598  0  0.094489  0  0.10742  0.1201  0  1.019754  0
H  H17  1  0.60164563  0.44810942  0.49016063  1  0  0.114227  0  0.952014  0  0  0.122988  0  1.017088  0  0  0.126903  0  1.013623  0  0.094696  0  0.107404  0.120073  0  1.0198  0
H  H18  1  0.89835260  0.44810659  0.99015983  1  0  0.114255  0  0.952006  0  0  0.123014  0  1.017075  0  0  0.126929  0  1.013611  0  0.094731  0  0.107432  0.120119  0  1.019761  0
H  H19  1  0.39835577  0.55189141  0.50983992  1  0  0.114217  0  0.951982  0  0  0.122973  0  1.017069  0  0  0.126891  0  1.013599  0  0.094458  0  0.107396  0.120065  0  1.019774  0
H  H20  1  0.42923049  0.57387385  0.80048157  1  0  0.116644  0  0.972969  0  0  0.124569  0  1.041885  0  0  0.128613  0  1.038236  0  0.125835  0  0.107682  0.121625  0  1.044547  0
H  H21  1  0.92923248  0.42612699  0.69951960  1  0  0.11659  0  0.973008  0  0  0.124507  0  1.041935  0  0  0.128549  0  1.03829  0  0.125765  0  0.107659  0.121563  0  1.044597  0
H  H22  1  0.57076704  0.42612628  0.19951878  1  0  0.1166  0  0.973004  0  0  0.12452  0  1.041924  0  0  0.128562  0  1.038278  0  0.125809  0  0.107657  0.121576  0  1.044586  0
H  H23  1  0.07077151  0.57387314  0.30048075  1  0  0.116612  0  0.973092  0  0  0.124533  0  1.042004  0  0  0.128575  0  1.038357  0  0.125803  0  0.107677  0.121589  0  1.044666  0
H  H24  1  0.26354509  0.75763074  0.76620598  1  0  0.094522  0  0.94752  0  0  0.102531  0  1.006968  0  0  0.105278  0  1.004664  0  0.139685  0  0.124001  0.100461  0  1.008658  0
H  H25  1  0.76354321  0.24236726  0.73379252  1  0  0.094563  0  0.94753  0  0  0.102573  0  1.006973  0  0  0.105319  0  1.004669  0  0.139732  0  0.124019  0.100503  0  1.008663  0
H  H26  1  0.73645632  0.24236726  0.23379377  1  0  0.094541  0  0.947563  0  0  0.102552  0  1.007004  0  0  0.105298  0  1.004701  0  0.139706  0  0.123992  0.100482  0  1.008694  0
H  H27  1  0.23645561  0.75763499  0.26620531  1  0  0.094518  0  0.947578  0  0  0.102551  0  1.007001  0  0  0.105298  0  1.004696  0  0.13969  0  0.123985  0.100482  0  1.008692  0
H  H28  1  0.45502463  0.89624155  0.84215492  1  0  0.12394  0  0.935945  0  0  0.1288  0  0.99702  0  0  0.133033  0  0.995001  0  0.126844  0  0.118047  0.125729  0  0.998704  0
H  H29  1  0.95502404  0.10375858  0.65784355  1  0  0.123908  0  0.936021  0  0  0.12879  0  0.997068  0  0  0.133024  0  0.995049  0  0.126864  0  0.118032  0.12572  0  0.998754  0
H  H30  1  0.54497419  0.10375787  0.15784460  1  0  0.123879  0  0.936001  0  0  0.128769  0  0.997043  0  0  0.133003  0  0.995023  0  0.12683  0  0.118015  0.125697  0  0.998728  0
H  H31  1  0.04497994  0.89624509  0.34215468  1  0  0.123886  0  0.936002  0  0  0.12877  0  0.99705  0  0  0.133003  0  0.995031  0  0.126781  0  0.118019  0.125699  0  0.998733  0
H  H32  1  0.21226028  0.89952338  0.08498215  1  0  0.122926  0  0.921249  0  0  0.132766  0  0.975397  0  0  0.136537  0  0.974285  0  0.098352  0  0.120583  0.130001  0  0.976443  0
H  H33  1  0.71225711  0.10047604  0.41501612  1  0  0.122944  0  0.921212  0  0  0.132777  0  0.975365  0  0  0.136548  0  0.974253  0  0.098317  0  0.120587  0.130012  0  0.976411  0
H  H34  1  0.78773983  0.10047533  0.91501717  1  0  0.122907  0  0.921258  0  0  0.132734  0  0.975417  0  0  0.136505  0  0.974306  0  0.098344  0  0.120578  0.12997  0  0.976461  0
H  H35  1  0.28774171  0.89952621  0.58498295  1  0  0.122891  0  0.921254  0  0  0.132718  0  0.975414  0  0  0.136489  0  0.974302  0  0.098353  0  0.120565  0.129952  0  0.976459  0
H  H36  1  0.62416079  0.65077123  0.06444119  1  0  0.119699  0  0.942951  0  0  0.125931  0  1.007215  0  0  0.130968  0  1.002289  0  0.132193  0  0.105599  0.122289  0  1.010752  0
H  H37  1  0.12416009  0.34923031  0.43555894  1  0  0.119717  0  0.942947  0  0  0.125957  0  1.007203  0  0  0.130993  0  1.002279  0  0.132417  0  0.105609  0.122317  0  1.010741  0
H  H38  1  0.37583932  0.34922747  0.93555876  1  0  0.119681  0  0.942974  0  0  0.125911  0  1.007236  0  0  0.130947  0  1.002311  0  0.132478  0  0.105599  0.12227  0  1.010773  0
H  H39  1  0.87584002  0.65077123  0.56444056  1  0  0.119711  0  0.942928  0  0  0.125944  0  1.007189  0  0  0.13098  0  1.002264  0  0.132189  0  0.105613  0.122302  0  1.010726  0
C  C40  1  0.12310755  0.79375214  0.96721048  1  0  0.140723  0  3.672321  0  0  0.108275  0  3.918981  0  0  0.115347  0  3.938346  0  0.499828  0  0.058626  0.10379  0  3.905803  0
C  C41  1  0.62310567  0.20624586  0.53278865  1  0  0.140749  0  3.672335  0  0  0.108302  0  3.919001  0  0  0.115372  0  3.938366  0  0.499831  0  0.058614  0.103818  0  3.905821  0
C  C42  1  0.87689127  0.20624586  0.03278927  1  0  0.14068  0  3.672368  0  0  0.108238  0  3.91901  0  0  0.115309  0  3.938375  0  0.499859  0  0.058603  0.103754  0  3.90583  0
C  C43  1  0.37689315  0.79375569  0.46720961  1  0  0.14072  0  3.672331  0  0  0.108253  0  3.919004  0  0  0.115323  0  3.938371  0  0.499983  0  0.058587  0.103768  0  3.905825  0
C  C44  1  0.25387212  0.55543928  0.89790585  1  0  0.267476  0  3.777295  0  0  0.268741  0  4.025837  0  0  0.272653  0  4.04916  0  0.305344  0  0.08132  0.265733  0  4.010018  0
C  C45  1  0.75387282  0.44456014  0.60209555  1  0  0.26736  0  3.777393  0  0  0.268651  0  4.025891  0  0  0.272566  0  4.049215  0  0.305279  0  0.081286  0.265645  0  4.010067  0
C  C46  1  0.74612412  0.44455943  0.10209535  1  0  0.2674  0  3.777339  0  0  0.268694  0  4.02584  0  0  0.272604  0  4.049164  0  0.305339  0  0.081301  0.265688  0  4.010019  0
C  C47  1  0.24612858  0.55543928  0.39790398  1  0  0.267441  0  3.777294  0  0  0.268711  0  4.02581  0  0  0.272626  0  4.049132  0  0.305298  0  0.081286  0.265705  0  4.009989  0
C  C48  1  0.22604652  0.56873615  0.98669379  1  0  -0.138089  0  3.66633  0  0  -0.172675  0  3.918571  0  0  -0.172922  0  3.937019  0  -0.044931  0  -0.080305  -0.172177  0  3.906068  0
C  C49  1  0.72604464  0.43126682  0.51330736  1  0  -0.13802  0  3.666288  0  0  -0.172636  0  3.918518  0  0  -0.172885  0  3.936966  0  -0.044975  0  -0.080268  -0.172125  0  3.906027  0
C  C50  1  0.77395359  0.43126327  0.01330636  1  0  -0.138094  0  3.666298  0  0  -0.172687  0  3.918537  0  0  -0.172935  0  3.936985  0  -0.044897  0  -0.080302  -0.172191  0  3.906033  0
C  C51  1  0.27395547  0.56873402  0.48669381  1  0  -0.138051  0  3.666159  0  0  -0.172645  0  3.918397  0  0  -0.172891  0  3.936843  0  -0.044955  0  -0.080236  -0.17214  0  3.905905  0
C  C52  1  0.41286135  0.57991750  0.86935116  1  0  -0.1572  0  3.671727  0  0  -0.194275  0  3.929317  0  0  -0.194345  0  3.947803  0  -0.035896  0  -0.090271  -0.193836  0  3.916793  0
C  C53  1  0.91285946  0.42008405  0.63065084  1  0  -0.157065  0  3.671709  0  0  -0.194172  0  3.929346  0  0  -0.194238  0  3.947826  0  -0.035828  0  -0.090248  -0.193733  0  3.916822  0
C  C54  1  0.58713877  0.42008263  0.13065044  1  0  -0.157117  0  3.671616  0  0  -0.194228  0  3.929261  0  0  -0.194294  0  3.947744  0  -0.03593  0  -0.090259  -0.193788  0  3.916736  0
C  C55  1  0.08714323  0.57991679  0.36934847  1  0  -0.157079  0  3.671644  0  0  -0.19416  0  3.929255  0  0  -0.194227  0  3.947738  0  -0.035515  0  -0.090211  -0.193721  0  3.916731  0
C  C56  1  0.33355464  0.61309618  0.14181921  1  0  0.63731  0  3.931971  0  0  0.589043  0  4.226579  0  0  0.622569  0  4.21998  0  1.562208  0  0.20153  0.566348  0  4.230266  0
C  C57  1  0.83355147  0.38690395  0.35818114  1  0  0.6373  0  3.931852  0  0  0.589081  0  4.226382  0  0  0.622607  0  4.219786  0  1.561995  0  0.201573  0.566387  0  4.230067  0
C  C58  1  0.66644547  0.38690253  0.85818136  1  0  0.637208  0  3.932029  0  0  0.588966  0  4.226608  0  0  0.622492  0  4.220009  0  1.561978  0  0.201494  0.566271  0  4.230294  0
C  C59  1  0.16644865  0.61309547  0.64181901  1  0  0.637135  0  3.931861  0  0  0.588891  0  4.226448  0  0  0.622415  0  4.219853  0  1.561866  0  0.201494  0.566196  0  4.230132  0
C  C60  1  0.35904917  0.60416515  0.04693238  1  0  -0.065029  0  3.79299  0  0  -0.039121  0  4.028885  0  0  -0.048255  0  4.054272  0  -0.036939  0  -0.023435  -0.033245  0  4.011725  0
C  C61  1  0.85905116  0.39583640  0.45306961  1  0  -0.065032  0  3.793045  0  0  -0.039119  0  4.028911  0  0  -0.04825  0  4.054294  0  -0.036325  0  -0.02345  -0.033242  0  4.011744  0
C  C62  1  0.64094965  0.39583356  0.95306757  1  0  -0.065027  0  3.792996  0  0  -0.039148  0  4.028909  0  0  -0.048281  0  4.054294  0  -0.036915  0  -0.023484  -0.033274  0  4.01175  0
C  C63  1  0.14095153  0.60416373  0.54693260  1  0  -0.064926  0  3.792909  0  0  -0.039038  0  4.028808  0  0  -0.048169  0  4.054193  0  -0.036919  0  -0.023454  -0.033162  0  4.011645  0
C  C64  1  0.25518165  0.79274830  0.83642067  1  0  0.1433  0  3.687792  0  0  0.11312  0  3.93329  0  0  0.119597  0  3.952824  0  0.427721  0  0.056764  0.109024  0  3.920137  0
C  C65  1  0.75518106  0.20725041  0.66357865  1  0  0.14329  0  3.687709  0  0  0.113107  0  3.933212  0  0  0.119582  0  3.952746  0  0.427739  0  0.056765  0.109011  0  3.920061  0
C  C66  1  0.74481846  0.20725041  0.16357927  1  0  0.143257  0  3.68783  0  0  0.113076  0  3.933324  0  0  0.119552  0  3.952859  0  0.427731  0  0.056761  0.10898  0  3.920171  0
C  C67  1  0.24482163  0.79275184  0.33642043  1  0  0.143314  0  3.687844  0  0  0.113111  0  3.933334  0  0  0.119589  0  3.952867  0  0.427739  0  0.056789  0.109016  0  3.920181  0
C  C68  1  0.36097860  0.86834174  0.87832327  1  0  -0.163239  0  3.680063  0  0  -0.18007  0  3.920613  0  0  -0.189192  0  3.943605  0  0.095858  0  -0.06957  -0.174285  0  3.905262  0
C  C69  1  0.86097801  0.13165625  0.62167524  1  0  -0.163218  0  3.680049  0  0  -0.180054  0  3.920597  0  0  -0.189177  0  3.943591  0  0.095832  0  -0.069531  -0.174269  0  3.905248  0
C  C70  1  0.63902151  0.13165625  0.12167648  1  0  -0.163188  0  3.680051  0  0  -0.180026  0  3.920596  0  0  -0.189149  0  3.94359  0  0.095817  0  -0.069507  -0.174241  0  3.905246  0
C  C71  1  0.13902856  0.86834600  0.37832384  1  0  -0.163208  0  3.680047  0  0  -0.180033  0  3.920609  0  0  -0.189156  0  3.943601  0  0.095882  0  -0.069523  -0.174248  0  3.905259  0
C  C72  1  0.34512346  0.90782443  0.96936054  1  0  0.200552  0  3.797923  0  0  0.202417  0  4.047943  0  0  0.206887  0  4.071413  0  0.244169  0  0.106342  0.199731  0  4.031888  0
C  C73  1  0.84512157  0.09217570  0.53063794  1  0  0.200621  0  3.797818  0  0  0.202473  0  4.047854  0  0  0.206943  0  4.071323  0  0.243809  0  0.106352  0.199786  0  4.0318  0
C  C74  1  0.65487536  0.09217428  0.03063941  1  0  0.20063  0  3.797858  0  0  0.20245  0  4.047936  0  0  0.20692  0  4.071406  0  0.244192  0  0.106316  0.199764  0  4.031882  0
C  C75  1  0.15487854  0.90782798  0.46936029  1  0  0.200614  0  3.79774  0  0  0.202421  0  4.047818  0  0  0.206893  0  4.071286  0  0.24417  0  0.106299  0.199734  0  4.031766  0
C  C76  1  0.22459235  0.86975422  0.01425030  1  0  -0.157244  0  3.673211  0  0  -0.176948  0  3.919782  0  0  -0.186252  0  3.942089  0  -0.034321  0  -0.064544  -0.170916  0  3.90471  0
C  C77  1  0.72459046  0.13024591  0.48574880  1  0  -0.157334  0  3.673263  0  0  -0.177024  0  3.919843  0  0  -0.186327  0  3.942149  0  -0.034308  0  -0.064571  -0.170992  0  3.904771  0
C  C78  1  0.77540776  0.13024520  0.98574985  1  0  -0.157247  0  3.673325  0  0  -0.176921  0  3.919885  0  0  -0.186226  0  3.942194  0  -0.034316  0  -0.064521  -0.17089  0  3.904813  0
C  C79  1  0.27541094  0.86975635  0.51424903  1  0  -0.15725  0  3.6733  0  0  -0.176904  0  3.91986  0  0  -0.186207  0  3.942167  0  -0.034323  0  -0.064495  -0.170872  0  3.904787  0
C  C80  1  0.72303039  0.63238490  0.90058465  1  0  0.630651  0  3.916948  0  0  0.581133  0  4.205851  0  0  0.614834  0  4.2  0  1.532829  0  0.198358  0.558338  0  4.208904  0
C  C81  1  0.22303486  0.36761309  0.59941509  1  0  0.630731  0  3.917019  0  0  0.581222  0  4.205907  0  0  0.614923  0  4.200057  0  1.533223  0  0.198392  0.558428  0  4.208961  0
C  C82  1  0.27696584  0.36761522  0.09941507  1  0  0.630638  0  3.917006  0  0  0.581134  0  4.205894  0  0  0.614836  0  4.200045  0  1.53291  0  0.198405  0.558338  0  4.208946  0
C  C83  1  0.77697042  0.63238632  0.40058505  1  0  0.630638  0  3.916977  0  0  0.581123  0  4.205871  0  0  0.614825  0  4.200021  0  1.53284  0  0.198348  0.558328  0  4.208924  0
C  C84  1  0.54653813  0.61394820  0.92926039  1  0  -0.057304  0  3.793197  0  0  -0.031229  0  4.029978  0  0  -0.040241  0  4.05446  0  -0.014029  0  -0.023646  -0.025435  0  4.013405  0
C  C85  1  0.04653614  0.38605618  0.57074178  1  0  -0.057334  0  3.79317  0  0  -0.031254  0  4.029933  0  0  -0.040267  0  4.054418  0  -0.014192  0  -0.023635  -0.025461  0  4.01336  0
C  C86  1  0.45345681  0.38605121  0.07074038  1  0  -0.057383  0  3.793222  0  0  -0.031308  0  4.029985  0  0  -0.040322  0  4.054467  0  -0.014287  0  -0.023658  -0.025514  0  4.013413  0
C  C87  1  0.95346397  0.61394820  0.42926039  1  0  -0.057398  0  3.793155  0  0  -0.031347  0  4.029953  0  0  -0.040362  0  4.054437  0  -0.014152  0  -0.023696  -0.025554  0  4.01338  0
C  C88  1  0.51903152  0.62631714  0.01818045  1  0  -0.079576  0  3.713016  0  0  -0.1208  0  3.96545  0  0  -0.118895  0  3.984936  0  -0.013692  0  -0.084869  -0.121777  0  3.952186  0
C  C89  1  0.01903599  0.37368441  0.48182030  1  0  -0.079675  0  3.713097  0  0  -0.120919  0  3.965547  0  0  -0.119016  0  3.985035  0  -0.014602  0  -0.084917  -0.121898  0  3.952285  0
C  C90  1  0.48096601  0.37368086  0.98181993  1  0  -0.079487  0  3.713011  0  0  -0.120683  0  3.965417  0  0  -0.118777  0  3.984902  0  -0.014027  0  -0.084815  -0.12166  0  3.952152  0
C  C91  1  0.98096929  0.62631856  0.51817960  1  0  -0.07961  0  3.712996  0  0  -0.120823  0  3.965431  0  0  -0.118917  0  3.984917  0  -0.013795  0  -0.084885  -0.121798  0  3.952165  0
N  N92  1  0.11867659  0.52185055  0.83506579  1  0  -0.676938  0  3.148355  0  0  -0.60883  0  3.393413  0  0  -0.629944  0  3.387143  0  -1.242066  0  -0.603114  -0.594036  0  3.397695  0
N  N93  1  0.61867729  0.47815029  0.66493476  1  0  -0.676914  0  3.148392  0  0  -0.608819  0  3.39344  0  0  -0.629938  0  3.387173  0  -1.242077  0  -0.603152  -0.594022  0  3.397722  0
N  N94  1  0.88132094  0.47814887  0.16493373  1  0  -0.676819  0  3.148251  0  0  -0.608753  0  3.393257  0  0  -0.629862  0  3.386983  0  -1.242022  0  -0.60309  -0.593965  0  3.397541  0
N  N95  1  0.38132412  0.52184913  0.33506539  1  0  -0.677006  0  3.148296  0  0  -0.608871  0  3.393367  0  0  -0.629995  0  3.387109  0  -1.242049  0  -0.603159  -0.594075  0  3.397648  0
N  N96  1  0.13785980  0.75642258  0.87979017  1  0  -0.319184  0  3.283215  0  0  -0.23363  0  3.555234  0  0  -0.253508  0  3.571064  0  -1.237529  0  -0.315962  -0.220495  0  3.544631  0
N  N97  1  0.63785792  0.24357613  0.62020916  1  0  -0.319208  0  3.283143  0  0  -0.233671  0  3.555183  0  0  -0.253546  0  3.571008  0  -1.237384  0  -0.315985  -0.220536  0  3.544579  0
N  N98  1  0.86214031  0.24357613  0.12020978  1  0  -0.319184  0  3.28321  0  0  -0.233636  0  3.555228  0  0  -0.253513  0  3.571055  0  -1.237354  0  -0.315977  -0.2205  0  3.544624  0
N  N99  1  0.36214090  0.75642470  0.37978952  1  0  -0.319201  0  3.28318  0  0  -0.233646  0  3.555221  0  0  -0.253523  0  3.571049  0  -1.237409  0  -0.315969  -0.220509  0  3.544616  0
N  N100  1  0.44398531  0.98517940  0.02131098  1  0  -0.131438  0  2.95688  0  0  -0.113973  0  3.235969  0  0  -0.111984  0  3.239357  0  -0.412716  0  -0.129712  -0.115421  0  3.233855  0
N  N101  1  0.94398601  0.01482002  0.47868793  1  0  -0.131467  0  2.956794  0  0  -0.114004  0  3.235886  0  0  -0.112014  0  3.239275  0  -0.453879  0  -0.129741  -0.115453  0  3.233773  0
N  N102  1  0.55601351  0.01482002  0.97868855  1  0  -0.131437  0  2.956874  0  0  -0.113953  0  3.235965  0  0  -0.111964  0  3.239355  0  -0.454035  0  -0.12971  -0.115402  0  3.233853  0
N  N103  1  0.05601668  0.98518295  0.52131135  1  0  -0.131427  0  2.956795  0  0  -0.113938  0  3.235886  0  0  -0.111951  0  3.239276  0  -0.412538  0  -0.129685  -0.115387  0  3.233774  0
O  O104  1  0.46732829  0.64515254  0.19063720  1  0  -0.659169  0  2.067064  0  0  -0.584542  0  2.340081  0  0  -0.613077  0  2.324109  0  -1.180061  0  -0.341289  -0.564534  0  2.350307  0
O  O105  1  0.96732382  0.35484333  0.30936133  1  0  -0.659201  0  2.066931  0  0  -0.584578  0  2.339911  0  0  -0.613114  0  2.323943  0  -1.180078  0  -0.341323  -0.564571  0  2.350138  0
O  O106  1  0.53267312  0.35484404  0.80936278  1  0  -0.65915  0  2.067029  0  0  -0.584527  0  2.340016  0  0  -0.613062  0  2.324048  0  -1.180033  0  -0.341277  -0.56452  0  2.350241  0
O  O107  1  0.03267112  0.64515325  0.69063802  1  0  -0.659174  0  2.066976  0  0  -0.584533  0  2.339963  0  0  -0.613067  0  2.323994  0  -1.180067  0  -0.341308  -0.564525  0  2.350189  0
O  O108  1  0.19266639  0.59061572  0.16885635  1  0  -0.624879  0  1.932735  0  0  -0.578574  0  2.157498  0  0  -0.601249  0  2.148226  0  -1.195323  0  -0.323501  -0.562712  0  2.163302  0
O  O109  1  0.69266451  0.40938441  0.33114337  1  0  -0.624865  0  1.932795  0  0  -0.578573  0  2.157532  0  0  -0.601242  0  2.14825  0  -1.19505  0  -0.323507  -0.562709  0  2.163333  0
O  O110  1  0.80733114  0.40938441  0.83114400  1  0  -0.624814  0  1.93276  0  0  -0.578512  0  2.157513  0  0  -0.601187  0  2.148242  0  -1.194982  0  -0.32346  -0.562649  0  2.163314  0
O  O111  1  0.30733560  0.59061501  0.66885802  1  0  -0.624764  0  1.932651  0  0  -0.578473  0  2.157396  0  0  -0.601155  0  2.148146  0  -1.194966  0  -0.323444  -0.562607  0  2.163194  0
O  O112  1  0.74711337  0.62366670  0.81787388  1  0  -0.650079  0  2.020873  0  0  -0.56887  0  2.270232  0  0  -0.597393  0  2.255617  0  -1.170243  0  -0.331747  -0.548872  0  2.279521  0
O  O113  1  0.24711138  0.37633342  0.68212585  1  0  -0.650054  0  2.020782  0  0  -0.568859  0  2.270138  0  0  -0.597384  0  2.255527  0  -1.170277  0  -0.331725  -0.548861  0  2.279429  0
O  O114  1  0.25288545  0.37633413  0.18212729  1  0  -0.650036  0  2.020816  0  0  -0.568841  0  2.270185  0  0  -0.59737  0  2.255578  0  -1.17026  0  -0.331736  -0.548841  0  2.279472  0
O  O115  1  0.75289261  0.62366528  0.31787348  1  0  -0.650041  0  2.020867  0  0  -0.568808  0  2.27019  0  0  -0.597336  0  2.255582  0  -1.170273  0  -0.331692  -0.548809  0  2.279479  0
O  O116  1  0.84414395  0.65359335  0.95507324  1  0  -0.615132  0  1.947095  0  0  -0.565969  0  2.173878  0  0  -0.589967  0  2.164897  0  -1.167052  0  -0.316935  -0.549085  0  2.179328  0
O  O117  1  0.34414066  0.34640748  0.54492980  1  0  -0.615146  0  1.947284  0  0  -0.565989  0  2.174068  0  0  -0.589983  0  2.165089  0  -1.167045  0  -0.316958  -0.54911  0  2.179523  0
O  O118  1  0.15585229  0.34640536  0.04492733  1  0  -0.615133  0  1.947059  0  0  -0.56599  0  2.17385  0  0  -0.589986  0  2.164868  0  -1.166859  0  -0.317006  -0.549111  0  2.17931  0
O  O119  1  0.65585687  0.65359264  0.45507117  1  0  -0.615117  0  1.947191  0  0  -0.565958  0  2.173971  0  0  -0.589956  0  2.16499  0  -1.167017  0  -0.31694  -0.549076  0  2.179424  0
