# generated using pymatgen
data_Ni4H27C36(N4O)3
_symmetry_space_group_name_H-M   'P 1'
_cell_length_a   17.87489717
_cell_length_b   17.87361407
_cell_length_c   17.87459778
_cell_angle_alpha   59.99470254
_cell_angle_beta   59.99816915
_cell_angle_gamma   59.99611534
_symmetry_Int_Tables_number   1
_chemical_formula_structural   Ni4H27C36(N4O)3
_chemical_formula_sum   'Ni8 H54 C72 N24 O6'
_cell_volume   4037.76518255
_cell_formula_units_Z   2
loop_
 _symmetry_equiv_pos_site_id
 _symmetry_equiv_pos_as_xyz
  1  'x, y, z'
loop_
 _atom_site_type_symbol
 _atom_site_label
 _atom_site_symmetry_multiplicity
 _atom_site_fract_x
 _atom_site_fract_y
 _atom_site_fract_z
 _atom_site_occupancy
 _atom_site_pbe_bader_charge
 _atom_site_pbe_bader_spin_density
 _atom_site_pbe_cm5_charge
 _atom_site_pbe_ddec_charge
 _atom_site_pbe_ddec_spin_density
 _atom_site_pbe_ddec_sum_bond_order
 _atom_site_pbe_magmom
Ni  Ni0  1  0.05904774  0.82278168  0.05905763  1  1.132546  1.343722  0.691128  0.699577  1.520035  2.741534  1.329
Ni  Ni1  1  0.82274798  0.05902232  0.05908290  1  1.132748  1.342947  0.691661  0.70046  1.519219  2.742429  1.328
Ni  Ni2  1  0.05912291  0.05906551  0.05912171  1  1.129399  1.341524  0.692195  0.700776  1.517935  2.744059  1.327
Ni  Ni3  1  0.05908926  0.05903605  0.82272702  1  1.132657  1.342582  0.691687  0.700094  1.518813  2.743383  1.328
Ni  Ni4  1  0.17725153  0.94097782  0.94091747  1  1.132714  1.342823  0.691649  0.700419  1.519069  2.742552  1.328
Ni  Ni5  1  0.94095046  0.17721939  0.94094449  1  1.132533  1.343581  0.691154  0.699631  1.519872  2.741533  1.328
Ni  Ni6  1  0.94087685  0.94093711  0.94088003  1  1.129534  1.341201  0.692311  0.700934  1.517579  2.744249  1.326
Ni  Ni7  1  0.94090991  0.94096488  0.17727358  1  1.132772  1.342384  0.691725  0.700155  1.518587  2.743411  1.327
H  H8  1  0.11830923  0.88166433  0.88175143  1  0.583014  -0.001388  0.320785  0.388574  -0.001306  0.870271  -0.001
H  H9  1  0.88168903  0.11833568  0.11824825  1  0.582093  -0.001388  0.320788  0.388568  -0.001306  0.870287  -0.001
H  H10  1  0.11824243  0.88157990  0.11836456  1  0.581187  -0.001387  0.320678  0.388557  -0.001306  0.869927  -0.001
H  H11  1  0.88175830  0.11841810  0.88163535  1  0.581192  -0.001386  0.320701  0.388575  -0.001306  0.869927  -0.001
H  H12  1  0.88179640  0.88159654  0.11838020  1  0.58156  -0.001387  0.320779  0.388726  -0.001307  0.869834  -0.001
H  H13  1  0.11820329  0.11840379  0.88161842  1  0.581531  -0.001387  0.320828  0.388856  -0.001307  0.869749  -0.001
H  H14  1  0.65356549  0.51714522  0.91463774  1  0.043992  6.1e-05  0.095911  0.094655  3.2e-05  1.009183  0.0
H  H15  1  0.78334461  0.38804750  0.91425919  1  0.026921  0.001759  0.113162  0.095628  0.000571  1.030596  0.001
H  H16  1  0.51698056  0.65365063  0.91468186  1  0.044736  6.1e-05  0.095913  0.094493  3.2e-05  1.009401  0.0
H  H17  1  0.38794162  0.78331854  0.91434340  1  0.028464  0.001761  0.113071  0.095553  0.000571  1.030658  0.001
H  H18  1  0.91468502  0.91467912  0.65363256  1  0.047056  6.2e-05  0.09588  0.094455  3.2e-05  1.009492  0.0
H  H19  1  0.91440764  0.91433688  0.78335300  1  0.048851  0.001748  0.113098  0.09544  0.000572  1.030832  0.001
H  H20  1  0.91465685  0.91464201  0.51713137  1  0.054505  6.1e-05  0.095918  0.094707  3.2e-05  1.009172  0.0
H  H21  1  0.91437255  0.91426356  0.38798207  1  0.014463  0.001758  0.113094  0.095458  0.000573  1.03069  0.001
H  H22  1  0.91466095  0.51707947  0.65359778  1  0.044299  6.2e-05  0.095939  0.094615  3.2e-05  1.009261  0.0
H  H23  1  0.91432748  0.38805705  0.78327981  1  0.029594  0.001761  0.113082  0.095452  0.000572  1.030511  0.001
H  H24  1  0.91467390  0.65363063  0.51701881  1  0.044595  6.2e-05  0.095952  0.094507  3.2e-05  1.00948  0.0
H  H25  1  0.91433805  0.78328959  0.38801707  1  0.029557  0.001761  0.113062  0.095357  0.000571  1.030418  0.001
H  H26  1  0.51708912  0.91465894  0.91466092  1  0.054431  6.1e-05  0.095924  0.094681  3.2e-05  1.009212  0.0
H  H27  1  0.38791836  0.91433098  0.91435785  1  0.015035  0.001755  0.113057  0.095492  0.000572  1.030603  0.001
H  H28  1  0.65360583  0.91466601  0.91466933  1  0.046836  6.1e-05  0.095833  0.094522  3.2e-05  1.009247  0.0
H  H29  1  0.78339275  0.91433337  0.91436591  1  0.045592  0.001747  0.113049  0.095482  0.000572  1.030645  0.001
H  H30  1  0.91464914  0.51715623  0.91463552  1  0.054216  6.1e-05  0.095937  0.094695  3.2e-05  1.009125  0.0
H  H31  1  0.91434782  0.38804389  0.91426522  1  0.083449  0.00175  0.113193  0.095675  0.000572  1.030406  0.001
H  H32  1  0.91468954  0.65365873  0.91468602  1  0.046836  6.2e-05  0.095875  0.094492  3.2e-05  1.009465  0.0
H  H33  1  0.91439678  0.78332509  0.91435984  1  0.051348  0.001747  0.113048  0.095403  0.000572  1.030855  0.001
H  H34  1  0.65357931  0.91464158  0.51711965  1  0.044371  6.1e-05  0.095947  0.094694  3.2e-05  1.009159  0.0
H  H35  1  0.78337249  0.91425465  0.38799364  1  0.027433  0.001762  0.113114  0.095447  0.000572  1.030734  0.001
H  H36  1  0.51701781  0.91467361  0.65362927  1  0.044701  6.1e-05  0.095912  0.094504  3.2e-05  1.009484  0.0
H  H37  1  0.38793363  0.91432155  0.78334503  1  0.02821  0.001761  0.113084  0.095525  0.000572  1.030528  0.001
H  H38  1  0.48302761  0.34635594  0.08530958  1  0.044918  6.1e-05  0.095977  0.094537  3.2e-05  1.009363  0.0
H  H39  1  0.61206078  0.21668561  0.08565073  1  0.028284  0.001761  0.113067  0.095544  0.000571  1.030695  0.001
H  H40  1  0.34644268  0.48286135  0.08535370  1  0.044047  6.1e-05  0.095996  0.094745  3.2e-05  1.00912  0.0
H  H41  1  0.21666319  0.61195198  0.08573627  1  0.027363  0.001759  0.113118  0.095512  0.000571  1.030548  0.001
H  H42  1  0.08530742  0.08531171  0.34637802  1  0.047357  6.2e-05  0.095969  0.094499  3.2e-05  1.009461  0.0
H  H43  1  0.08558440  0.08565578  0.21666025  1  0.049239  0.001748  0.113129  0.095451  0.000572  1.030828  0.001
H  H44  1  0.08533568  0.08534891  0.48287834  1  0.054669  6.1e-05  0.095964  0.094722  3.2e-05  1.009043  0.0
H  H45  1  0.08562025  0.08572876  0.61202460  1  0.015002  0.001758  0.113101  0.095487  0.000573  1.030704  0.001
H  H46  1  0.48299058  0.08531750  0.34637878  1  0.044975  6.1e-05  0.095944  0.094483  3.2e-05  1.009512  0.0
H  H47  1  0.61206840  0.08567216  0.21666404  1  0.02584  0.001762  0.113084  0.095531  0.000572  1.03065  0.001
H  H48  1  0.34643061  0.08534883  0.48288688  1  0.044575  6.1e-05  0.095967  0.094717  3.2e-05  1.009163  0.0
H  H49  1  0.21663942  0.08573887  0.61200575  1  0.027474  0.001762  0.113112  0.095417  0.000572  1.030631  0.001
H  H50  1  0.08534244  0.48285723  0.08535397  1  0.054384  6.1e-05  0.095991  0.094724  3.2e-05  1.008989  0.0
H  H51  1  0.08564607  0.61196182  0.08572834  1  0.083572  0.00175  0.113067  0.09551  0.000572  1.030483  0.001
H  H52  1  0.08530123  0.34635729  0.08530241  1  0.047042  6.2e-05  0.095989  0.094531  3.2e-05  1.009447  0.0
H  H53  1  0.08559811  0.21668834  0.08563323  1  0.051398  0.001747  0.113034  0.095329  0.000572  1.030847  0.001
H  H54  1  0.48292438  0.08533058  0.08532854  1  0.054765  6.1e-05  0.095885  0.094623  3.2e-05  1.00936  0.0
H  H55  1  0.61208515  0.08566309  0.08563567  1  0.015224  0.001755  0.113011  0.095508  0.000572  1.030477  0.001
H  H56  1  0.34640935  0.08532294  0.08531971  1  0.047321  6.1e-05  0.095884  0.094552  3.2e-05  1.009409  0.0
H  H57  1  0.21662260  0.08566023  0.08562652  1  0.045797  0.001747  0.11306  0.095518  0.000572  1.030565  0.001
H  H58  1  0.08531737  0.34637806  0.48298947  1  0.044887  6.2e-05  0.095924  0.094456  3.2e-05  1.009473  0.0
H  H59  1  0.08565183  0.21672106  0.61198858  1  0.027827  0.001761  0.113055  0.095372  0.000571  1.0303  0.001
H  H60  1  0.08533014  0.48292792  0.34641266  1  0.047965  6.1e-05  0.095996  0.094755  3.2e-05  1.009459  0.0
H  H61  1  0.08566462  0.61194575  0.21673079  1  0.068701  0.001744  0.113024  0.095321  0.000572  1.030415  0.001
C  C62  1  0.57996183  0.42008610  0.99997040  1  0.046232  0.00374  -0.013608  0.081036  0.002135  4.055638  0.003
C  C63  1  0.66161593  0.33845557  0.99995451  1  0.04697  0.011041  -0.036043  -0.036805  0.00643  4.082534  0.008
C  C64  1  0.42004687  0.57991987  0.00001907  1  0.049741  0.003739  -0.01359  0.081295  0.002135  4.055473  0.003
C  C65  1  0.33838971  0.66154847  0.00003925  1  0.046959  0.01104  -0.036014  -0.036866  0.00643  4.082665  0.008
C  C66  1  0.00000960  0.00001570  0.57995653  1  0.050502  0.003723  -0.013487  0.081102  0.002132  4.055147  0.003
C  C67  1  0.00001152  0.00002970  0.66160355  1  0.064747  0.010984  -0.035868  -0.036822  0.006432  4.081755  0.008
C  C68  1  0.99998404  0.99997521  0.42005277  1  0.049826  0.003723  -0.013634  0.080994  0.002132  4.054953  0.003
C  C69  1  0.99998022  0.99996267  0.33840552  1  0.064956  0.010984  -0.035831  -0.036866  0.006431  4.081992  0.008
C  C70  1  0.99999030  0.42008377  0.57993594  1  0.058748  0.003739  -0.013464  0.081564  0.002136  4.055191  0.003
C  C71  1  0.99998707  0.33845619  0.66157141  1  0.046592  0.011046  -0.036154  -0.037614  0.006433  4.083683  0.008
C  C72  1  0.00000109  0.57992279  0.42007230  1  0.046071  0.003742  -0.013333  0.081824  0.002136  4.055168  0.003
C  C73  1  0.00000329  0.66155158  0.33843595  1  0.046474  0.011046  -0.036151  -0.037615  0.006433  4.083866  0.008
C  C74  1  0.42003503  0.99999070  0.99999064  1  0.05033  0.003721  -0.013547  0.081199  0.00213  4.055056  0.003
C  C75  1  0.33837354  0.99999419  0.99999435  1  0.065747  0.010975  -0.036206  -0.037573  0.006428  4.082182  0.008
C  C76  1  0.57998148  0.99999747  0.99999759  1  0.050908  0.00372  -0.013406  0.081299  0.00213  4.055118  0.003
C  C77  1  0.66163800  0.99999682  0.99999670  1  0.065561  0.010975  -0.036216  -0.037562  0.006428  4.082279  0.008
C  C78  1  0.99997792  0.42008012  0.99996594  1  0.049345  0.003727  -0.013628  0.080988  0.002134  4.055095  0.003
C  C79  1  0.99997181  0.33843982  0.99995067  1  0.065597  0.01098  -0.035935  -0.036802  0.00643  4.082735  0.008
C  C80  1  0.00001375  0.57993344  0.00002268  1  0.04972  0.003727  -0.013637  0.081031  0.002134  4.05529  0.003
C  C81  1  0.00002148  0.66157200  0.00004080  1  0.06604  0.010979  -0.035933  -0.036916  0.00643  4.08239  0.008
C  C82  1  0.57997174  0.99997828  0.42006251  1  0.046688  0.003735  -0.013587  0.081171  0.002133  4.055275  0.003
C  C83  1  0.66162639  0.99996592  0.33842254  1  0.04775  0.011037  -0.035996  -0.036876  0.00643  4.082349  0.008
C  C84  1  0.42003748  0.00001367  0.57994250  1  0.046945  0.003734  -0.013473  0.081357  0.002133  4.055211  0.003
C  C85  1  0.33838226  0.00002881  0.66158163  1  0.046291  0.011042  -0.036045  -0.036976  0.00643  4.082529  0.008
C  C86  1  0.58635515  0.50870507  0.95246480  1  -0.132941  0.001441  -0.096833  -0.132734  0.000807  4.009109  0.001
C  C87  1  0.75418758  0.33338974  0.95618674  1  0.435076  -0.000982  0.005915  -0.055199  -0.002079  3.971582  0.001
C  C88  1  0.50862186  0.58639884  0.95248760  1  -0.005175  0.001418  -0.097199  -0.133192  0.000808  4.009448  0.001
C  C89  1  0.33330418  0.75413596  0.95627287  1  0.444983  -0.001006  0.005867  -0.05537  -0.002085  3.972575  0.001
C  C90  1  0.95249709  0.95249325  0.58639093  1  -0.00133  0.001409  -0.097272  -0.133111  0.000805  4.009202  0.001
C  C91  1  0.95628390  0.95625993  0.75418406  1  0.393127  -0.000959  0.006043  -0.05481  -0.002129  3.972224  0.001
C  C92  1  0.95248259  0.95247332  0.50868641  1  -0.140023  0.001442  -0.096919  -0.132942  0.000804  4.008827  0.001
C  C93  1  0.95625157  0.95619426  0.33332665  1  0.439748  -0.001026  0.006121  -0.054792  -0.002129  3.971356  0.001
C  C94  1  0.95247370  0.50868213  0.58636936  1  -0.132586  0.001441  -0.097088  -0.133111  0.000807  4.009223  0.001
C  C95  1  0.95623567  0.33338895  0.75414251  1  0.443203  -0.001  0.006008  -0.054613  -0.002078  3.971422  0.001
C  C96  1  0.95248006  0.58638595  0.50865302  1  -0.050006  0.001437  -0.097111  -0.133028  0.000808  4.009535  0.001
C  C97  1  0.95624784  0.75413281  0.33336410  1  0.436875  -0.000983  0.006008  -0.054565  -0.002079  3.971314  0.001
C  C98  1  0.50866170  0.95248324  0.95248390  1  -0.139717  0.001441  -0.097098  -0.133119  0.000804  4.00843  0.001
C  C99  1  0.33328398  0.95624399  0.95624771  1  0.436855  -0.001029  0.006313  -0.054418  -0.002139  3.970858  0.001
C  C100  1  0.58637863  0.95248830  0.95249088  1  -0.001653  0.001409  -0.097119  -0.133028  0.000805  4.008414  0.001
C  C101  1  0.75422639  0.95624122  0.95624967  1  0.392847  -0.000965  0.006366  -0.054498  -0.002135  3.970961  0.001
C  C102  1  0.95247320  0.50871140  0.95246441  1  -0.139777  0.001443  -0.096849  -0.132787  0.000804  4.008929  0.001
C  C103  1  0.95623973  0.33336954  0.95618636  1  0.369862  -0.000993  0.005987  -0.055043  -0.002103  3.971437  0.001
C  C104  1  0.95249438  0.58640414  0.95249151  1  -0.001224  0.001412  -0.097246  -0.133214  0.000807  4.009351  0.001
C  C105  1  0.95628609  0.75415406  0.95627414  1  0.393521  -0.000936  0.005966  -0.05498  -0.002106  3.972551  0.001
C  C106  1  0.58636410  0.95247214  0.50868140  1  -0.133412  0.001439  -0.096956  -0.132945  0.000806  4.00863  0.001
C  C107  1  0.75420313  0.95619354  0.33335040  1  0.435123  -0.001005  0.006082  -0.054822  -0.002103  3.971416  0.001
C  C108  1  0.50863288  0.95248844  0.58638851  1  -0.00158  0.001414  -0.097214  -0.133222  0.000806  4.009081  0.001
C  C109  1  0.33329969  0.95625968  0.75416245  1  0.442196  -0.001027  0.00594  -0.055042  -0.002108  3.971885  0.001
C  C110  1  0.49138619  0.41360648  0.04750315  1  -0.001658  0.001417  -0.097312  -0.133125  0.000808  4.009352  0.001
C  C111  1  0.66669813  0.24586921  0.04372172  1  0.445086  -0.001006  0.005943  -0.055279  -0.002084  3.972591  0.001
C  C112  1  0.41365378  0.49130113  0.04752489  1  -0.133512  0.001441  -0.097008  -0.133062  0.000807  4.009109  0.001
C  C113  1  0.24581910  0.66661198  0.04380831  1  0.434729  -0.000979  0.00598  -0.055002  -0.002077  3.971521  0.001
C  C114  1  0.04749511  0.04749734  0.41361943  1  -0.001828  0.001409  -0.097349  -0.133051  0.000805  4.008785  0.001
C  C115  1  0.04370767  0.04373339  0.24582832  1  0.393137  -0.00096  0.005891  -0.054867  -0.002129  3.972399  0.001
C  C116  1  0.04751105  0.04751759  0.49132288  1  -0.140479  0.001442  -0.097136  -0.133161  0.000804  4.008622  0.001
C  C117  1  0.04374215  0.04379897  0.66668094  1  0.439441  -0.001028  0.006063  -0.054915  -0.00213  3.971321  0.001
C  C118  1  0.49137727  0.04750332  0.41361783  1  -0.001503  0.001413  -0.09726  -0.133071  0.000806  4.009029  0.001
C  C119  1  0.66670377  0.04373435  0.24584556  1  0.443171  -0.001022  0.005977  -0.055101  -0.002106  3.97201  0.001
C  C120  1  0.41364670  0.04751915  0.49132406  1  -0.134156  0.00144  -0.097136  -0.133212  0.000806  4.008794  0.001
C  C121  1  0.24580661  0.04379892  0.66665222  1  0.435379  -0.001004  0.006142  -0.054695  -0.002101  3.971397  0.001
C  C122  1  0.04751712  0.49130305  0.04752398  1  -0.141319  0.001443  -0.096901  -0.132839  0.000804  4.008861  0.001
C  C123  1  0.04375362  0.66663899  0.04380834  1  0.36946  -0.000994  0.006161  -0.054696  -0.002105  3.971029  0.001
C  C124  1  0.04749728  0.41361053  0.04749669  1  -0.000377  0.001412  -0.09736  -0.13316  0.000807  4.009151  0.001
C  C125  1  0.04370746  0.24585914  0.04371912  1  0.394155  -0.000935  0.006046  -0.054894  -0.002105  3.972911  0.001
C  C126  1  0.49135324  0.04750548  0.04750491  1  -0.140467  0.001441  -0.097205  -0.133229  0.000804  4.008658  0.001
C  C127  1  0.66672097  0.04374929  0.04374517  1  0.436723  -0.00103  0.00643  -0.054312  -0.00214  3.970944  0.001
C  C128  1  0.41363623  0.04749922  0.04749922  1  -0.001696  0.001408  -0.097182  -0.13306  0.000805  4.008736  0.001
C  C129  1  0.24578841  0.04375184  0.04374317  1  0.392856  -0.000965  0.006323  -0.054553  -0.002134  3.971367  0.001
C  C130  1  0.04751057  0.41362209  0.49135654  1  -0.015403  0.00142  -0.097103  -0.132864  0.000808  4.009491  0.001
C  C131  1  0.04374149  0.24587618  0.66664238  1  0.438937  -0.000987  0.005969  -0.054604  -0.002077  3.97137  0.001
C  C132  1  0.04751670  0.49132568  0.41363998  1  -0.089352  0.001422  -0.097187  -0.133433  0.000807  4.009712  0.001
C  C133  1  0.04375415  0.66661716  0.24586569  1  0.404216  -0.000983  0.006132  -0.054438  -0.002078  3.971347  0.001
N  N134  1  0.80847993  0.24500546  0.97324265  1  -0.682963  0.087344  -0.274925  -0.173804  0.050807  3.665818  0.076
N  N135  1  0.24493788  0.80843300  0.97331202  1  -0.789138  0.087945  -0.274754  -0.173659  0.050729  3.665639  0.076
N  N136  1  0.97331122  0.97330111  0.80846957  1  -0.785344  0.088004  -0.275322  -0.173985  0.050763  3.667699  0.076
N  N137  1  0.97328507  0.97325404  0.24495508  1  -0.675611  0.087379  -0.275244  -0.173538  0.050817  3.667  0.076
N  N138  1  0.97328125  0.24500479  0.80843772  1  -0.685461  0.087457  -0.274998  -0.174262  0.050866  3.665225  0.076
N  N139  1  0.97328500  0.80843231  0.24499063  1  -0.786191  0.088017  -0.274948  -0.174087  0.050771  3.665055  0.076
N  N140  1  0.24490687  0.97329751  0.97329492  1  -0.675697  0.087327  -0.275591  -0.174343  0.050764  3.668064  0.076
N  N141  1  0.80850702  0.97328211  0.97328745  1  -0.783209  0.087814  -0.275295  -0.173511  0.050687  3.6673  0.076
N  N142  1  0.97328010  0.24498637  0.97324395  1  -0.675318  0.087451  -0.275193  -0.173976  0.050861  3.666503  0.076
N  N143  1  0.97331006  0.80844983  0.97330871  1  -0.785517  0.087903  -0.275179  -0.173907  0.050704  3.666638  0.076
N  N144  1  0.80849030  0.97324719  0.24497842  1  -0.684348  0.087281  -0.27511  -0.173845  0.050777  3.666395  0.076
N  N145  1  0.24493046  0.97330703  0.80845186  1  -0.787845  0.088068  -0.27518  -0.174027  0.050794  3.66663  0.076
N  N146  1  0.75506324  0.19156986  0.02668470  1  -0.789097  0.087942  -0.274736  -0.173671  0.050727  3.665712  0.076
N  N147  1  0.19152277  0.75499563  0.02675494  1  -0.683039  0.087345  -0.274908  -0.173841  0.050808  3.665704  0.076
N  N148  1  0.02668172  0.02669582  0.19153851  1  -0.785758  0.088014  -0.275323  -0.174086  0.050763  3.667542  0.076
N  N149  1  0.02670784  0.02674286  0.75505102  1  -0.675754  0.087371  -0.275225  -0.173535  0.050809  3.667167  0.076
N  N150  1  0.75507203  0.02668937  0.19155200  1  -0.787744  0.088062  -0.275086  -0.173787  0.05079  3.666381  0.076
N  N151  1  0.19151437  0.02674915  0.75502264  1  -0.68445  0.08728  -0.274956  -0.173626  0.050776  3.666235  0.076
N  N152  1  0.02671432  0.75502098  0.02675361  1  -0.675336  0.08744  -0.275079  -0.173862  0.050851  3.666446  0.076
N  N153  1  0.02668458  0.19155887  0.02668866  1  -0.785809  0.087918  -0.275067  -0.1737  0.050705  3.666567  0.076
N  N154  1  0.75509624  0.02669952  0.02670085  1  -0.675693  0.087322  -0.275628  -0.174414  0.050758  3.66786  0.076
N  N155  1  0.19150058  0.02671493  0.02670862  1  -0.783463  0.087829  -0.275164  -0.173348  0.050689  3.66745  0.076
N  N156  1  0.02670534  0.19157320  0.75501559  1  -0.786975  0.088019  -0.274747  -0.173802  0.050769  3.664838  0.076
N  N157  1  0.02670964  0.75500127  0.19156808  1  -0.686081  0.087451  -0.274998  -0.174149  0.050862  3.665166  0.076
O  O158  1  0.07959274  0.92040728  0.92029044  1  -1.11329  0.155357  -0.515262  -0.723706  0.09197  2.251433  0.132
O  O159  1  0.92040322  0.07959154  0.07971137  1  -1.11242  0.15536  -0.515298  -0.723758  0.091972  2.251517  0.132
O  O160  1  0.07964243  0.92043505  0.07968140  1  -1.110871  0.155496  -0.515206  -0.723798  0.092022  2.250837  0.132
O  O161  1  0.92035553  0.07956131  0.92032018  1  -1.11094  0.155503  -0.515239  -0.723812  0.092026  2.250817  0.132
O  O162  1  0.92029543  0.92037926  0.07962377  1  -1.111267  0.155461  -0.515301  -0.724024  0.09202  2.251194  0.132
O  O163  1  0.07970357  0.07962260  0.92037333  1  -1.111246  0.155455  -0.515358  -0.72418  0.09202  2.251266  0.132
