# generated using pymatgen
data_CuH14C13N2Cl
_symmetry_space_group_name_H-M   'P 1'
_cell_length_a   6.96910254
_cell_length_b   12.43047727
_cell_length_c   13.92400061
_cell_angle_alpha   90.00002317
_cell_angle_beta   89.99996553
_cell_angle_gamma   90.00004704
_symmetry_Int_Tables_number   1
_chemical_formula_structural   CuH14C13N2Cl
_chemical_formula_sum   'Cu4 H56 C52 N8 Cl4'
_cell_volume   1206.22601883
_cell_formula_units_Z   4
loop_
 _symmetry_equiv_pos_site_id
 _symmetry_equiv_pos_as_xyz
  1  'x, y, z'
loop_
 _atom_site_type_symbol
 _atom_site_label
 _atom_site_symmetry_multiplicity
 _atom_site_fract_x
 _atom_site_fract_y
 _atom_site_fract_z
 _atom_site_occupancy
 _atom_site_hle17_bader_spin_density
 _atom_site_hle17_ddec_charge
 _atom_site_hle17_ddec_spin_density
 _atom_site_hle17_ddec_sum_bond_order
 _atom_site_hle17_magmom
 _atom_site_hse06_10hf_bader_spin_density
 _atom_site_hse06_10hf_ddec_charge
 _atom_site_hse06_10hf_ddec_spin_density
 _atom_site_hse06_10hf_ddec_sum_bond_order
 _atom_site_hse06_10hf_magmom
 _atom_site_hse06_bader_spin_density
 _atom_site_hse06_ddec_charge
 _atom_site_hse06_ddec_spin_density
 _atom_site_hse06_ddec_sum_bond_order
 _atom_site_hse06_magmom
 _atom_site_pbe_bader_spin_density
 _atom_site_pbe_cm5_charge
 _atom_site_pbe_ddec_charge
 _atom_site_pbe_ddec_spin_density
 _atom_site_pbe_ddec_sum_bond_order
 _atom_site_pbe_magmom
Cu  Cu0  1  0.10408912  0.16596486  0.74999998  1  0  0.428713  0  1.829715  0  0  0.306118  0  2.304517  0  0  0.3137  0  2.259141  0  0  0.454468  0.304726  0  2.333217  0
Cu  Cu1  1  0.39590899  0.66596503  0.75000003  1  0  0.428682  0  1.829691  0  0  0.306114  0  2.304518  0  0  0.313632  0  2.259081  0  0  0.454453  0.3047  0  2.333212  0
Cu  Cu2  1  0.60409080  0.33403644  0.24999996  1  0  0.42872  0  1.829712  0  0  0.306109  0  2.304534  0  0  0.313665  0  2.259139  0  0  0.454451  0.30467  0  2.333297  0
Cu  Cu3  1  0.89591067  0.83403420  0.25000072  1  0  0.428678  0  1.829719  0  0  0.306101  0  2.30452  0  0  0.313677  0  2.259141  0  0  0.454481  0.304746  0  2.333162  0
H  H4  1  0.15375283  0.38226387  0.67209496  1  0  0.069407  0  0.983968  0  0  0.076708  0  1.054912  0  0  0.079662  0  1.051146  0  0  0.100776  0.074458  0  1.057665  0
H  H5  1  0.34624714  0.88226483  0.67209574  1  0  0.069495  0  0.98404  0  0  0.076787  0  1.054981  0  0  0.079744  0  1.051212  0  0  0.100814  0.074539  0  1.05773  0
H  H6  1  0.15375417  0.38226471  0.82790435  1  0  0.069461  0  0.984057  0  0  0.076764  0  1.054991  0  0  0.079718  0  1.051226  0  0  0.100806  0.074512  0  1.057746  0
H  H7  1  0.65375418  0.11773581  0.17209558  1  0  0.069475  0  0.984057  0  0  0.076772  0  1.054994  0  0  0.079728  0  1.051226  0  0  0.100818  0.074523  0  1.057743  0
H  H8  1  0.84624553  0.61773359  0.32790646  1  0  0.069474  0  0.984061  0  0  0.076769  0  1.054996  0  0  0.079724  0  1.051231  0  0  0.100831  0.074517  0  1.057752  0
H  H9  1  0.65374978  0.11773665  0.32790496  1  0  0.069432  0  0.984037  0  0  0.076699  0  1.055012  0  0  0.079654  0  1.051243  0  0  0.100742  0.074448  0  1.057764  0
H  H10  1  0.84624562  0.61773516  0.17209492  1  0  0.069444  0  0.983986  0  0  0.076741  0  1.054925  0  0  0.079697  0  1.051159  0  0  0.100801  0.074491  0  1.05768  0
H  H11  1  0.34624561  0.88226406  0.82790513  1  0  0.06945  0  0.984006  0  0  0.076752  0  1.054942  0  0  0.079708  0  1.051172  0  0  0.100796  0.074502  0  1.057693  0
H  H12  1  0.14955876  0.46729275  0.51231690  1  0  0.098688  0  0.966221  0  0  0.111914  0  1.025868  0  0  0.114104  0  1.026544  0  0  0.10385  0.110296  0  1.02562  0
H  H13  1  0.35044153  0.96729290  0.51231768  1  0  0.098689  0  0.966194  0  0  0.111913  0  1.025843  0  0  0.114104  0  1.02652  0  0  0.103848  0.110297  0  1.025594  0
H  H14  1  0.14955848  0.46729205  0.98768244  1  0  0.098705  0  0.966205  0  0  0.11193  0  1.025848  0  0  0.11412  0  1.026526  0  0  0.103858  0.110313  0  1.025601  0
H  H15  1  0.64955855  0.03270766  0.01231677  1  0  0.098699  0  0.96623  0  0  0.111923  0  1.025875  0  0  0.114114  0  1.026553  0  0  0.103861  0.110306  0  1.025627  0
H  H16  1  0.85043960  0.53270712  0.48768452  1  0  0.098734  0  0.966186  0  0  0.111963  0  1.025822  0  0  0.114153  0  1.026497  0  0  0.103876  0.110345  0  1.025575  0
H  H17  1  0.64955826  0.03270616  0.48768230  1  0  0.098707  0  0.966178  0  0  0.111932  0  1.025824  0  0  0.114124  0  1.026505  0  0  0.103856  0.110316  0  1.025578  0
H  H18  1  0.85043988  0.53270540  0.01231755  1  0  0.098747  0  0.966108  0  0  0.111944  0  1.025784  0  0  0.114146  0  1.026449  0  0  0.103866  0.110328  0  1.025535  0
H  H19  1  0.35044124  0.96729381  0.98768250  1  0  0.098697  0  0.966169  0  0  0.111918  0  1.025825  0  0  0.114111  0  1.026501  0  0  0.103846  0.1103  0  1.025578  0
H  H20  1  0.08154553  0.15127427  0.38795030  1  0  0.111474  0  0.97592  0  0  0.119414  0  1.040731  0  0  0.122281  0  1.040738  0  0  0.096813  0.117324  0  1.040854  0
H  H21  1  0.41845586  0.65127686  0.38794962  1  0  0.111474  0  0.975943  0  0  0.119426  0  1.040728  0  0  0.122291  0  1.040738  0  0  0.096809  0.117334  0  1.040844  0
H  H22  1  0.08154426  0.15127501  0.11204971  1  0  0.111471  0  0.975915  0  0  0.119429  0  1.040705  0  0  0.122295  0  1.040713  0  0  0.096817  0.117336  0  1.040828  0
H  H23  1  0.58154377  0.34872467  0.88794952  1  0  0.111441  0  0.975907  0  0  0.119398  0  1.040702  0  0  0.122264  0  1.040711  0  0  0.096804  0.117305  0  1.040826  0
H  H24  1  0.91845569  0.84872560  0.61205040  1  0  0.111471  0  0.975887  0  0  0.119426  0  1.040682  0  0  0.122292  0  1.040691  0  0  0.096815  0.117334  0  1.040804  0
H  H25  1  0.58154537  0.34872542  0.61205036  1  0  0.111439  0  0.975905  0  0  0.11938  0  1.040719  0  0  0.122244  0  1.04073  0  0  0.096805  0.11729  0  1.040842  0
H  H26  1  0.91845409  0.84872325  0.88794884  1  0  0.111476  0  0.975955  0  0  0.119416  0  1.040754  0  0  0.122282  0  1.040766  0  0  0.09681  0.117326  0  1.040874  0
H  H27  1  0.41845459  0.65127761  0.11205047  1  0  0.111487  0  0.975941  0  0  0.119443  0  1.040719  0  0  0.122308  0  1.040728  0  0  0.096812  0.117351  0  1.040833  0
H  H28  1  0.08513121  0.07821195  0.55473999  1  0  0.069576  0  0.950793  0  0  0.077891  0  1.018179  0  0  0.080709  0  1.015212  0  0  0.107401  0.075731  0  1.02048  0
H  H29  1  0.41486988  0.57821213  0.55473932  1  0  0.069622  0  0.950779  0  0  0.077935  0  1.018165  0  0  0.080755  0  1.015196  0  0  0.107408  0.075774  0  1.020466  0
H  H30  1  0.08513241  0.07821284  0.94525994  1  0  0.069614  0  0.950776  0  0  0.077928  0  1.018159  0  0  0.080746  0  1.015192  0  0  0.107415  0.075767  0  1.02046  0
H  H31  1  0.58513158  0.42178845  0.05474000  1  0  0.069581  0  0.950827  0  0  0.077893  0  1.018211  0  0  0.080713  0  1.015244  0  0  0.107392  0.075734  0  1.020511  0
H  H32  1  0.91487002  0.92178792  0.44525999  1  0  0.069611  0  0.950788  0  0  0.077925  0  1.01817  0  0  0.080743  0  1.015203  0  0  0.1074  0.075764  0  1.020475  0
H  H33  1  0.58512991  0.42178854  0.44525995  1  0  0.069591  0  0.950787  0  0  0.077904  0  1.018175  0  0  0.080724  0  1.015206  0  0  0.107397  0.075745  0  1.020474  0
H  H34  1  0.91486882  0.92178703  0.05473860  1  0  0.069637  0  0.950782  0  0  0.077948  0  1.018166  0  0  0.080767  0  1.015198  0  0  0.107416  0.075786  0  1.02047  0
H  H35  1  0.41486965  0.57821302  0.94526070  1  0  0.069632  0  0.950793  0  0  0.077944  0  1.018174  0  0  0.080764  0  1.015205  0  0  0.107419  0.075784  0  1.020475  0
H  H36  1  0.22064546  0.43166336  0.33552574  1  0  0.085471  0  0.947955  0  0  0.100681  0  1.013323  0  0  0.102506  0  1.012321  0  0  0.088375  0.099315  0  1.014058  0
H  H37  1  0.27935641  0.93166670  0.33552510  1  0  0.085481  0  0.947942  0  0  0.100741  0  1.013256  0  0  0.102566  0  1.012254  0  0  0.088405  0.099374  0  1.013994  0
H  H38  1  0.22064557  0.43166412  0.16447433  1  0  0.085478  0  0.947926  0  0  0.100685  0  1.013305  0  0  0.102509  0  1.012302  0  0  0.088373  0.099318  0  1.01404  0
H  H39  1  0.72064471  0.06833482  0.83552558  1  0  0.085469  0  0.947931  0  0  0.100678  0  1.013308  0  0  0.102504  0  1.012306  0  0  0.088373  0.099311  0  1.014044  0
H  H40  1  0.77935720  0.56833410  0.66447424  1  0  0.085493  0  0.94792  0  0  0.100734  0  1.013256  0  0  0.102561  0  1.012255  0  0  0.088404  0.099369  0  1.013991  0
H  H41  1  0.72064625  0.06833478  0.66447488  1  0  0.085501  0  0.947943  0  0  0.100718  0  1.013308  0  0  0.102543  0  1.012308  0  0  0.088373  0.09935  0  1.014045  0
H  H42  1  0.77935423  0.56833413  0.83552566  1  0  0.085493  0  0.94798  0  0  0.100747  0  1.013285  0  0  0.102572  0  1.012284  0  0  0.088397  0.099381  0  1.014023  0
H  H43  1  0.27935651  0.93166666  0.16447441  1  0  0.085466  0  0.947957  0  0  0.100717  0  1.013266  0  0  0.102542  0  1.012265  0  0  0.088405  0.099351  0  1.014003  0
H  H44  1  0.96936596  0.42004933  0.33677167  1  0  0.076709  0  0.937632  0  0  0.093451  0  1.006505  0  0  0.095219  0  1.004875  0  0  0.092072  0.092041  0  1.007838  0
H  H45  1  0.53063553  0.92005256  0.33677111  1  0  0.076757  0  0.937665  0  0  0.093515  0  1.006524  0  0  0.09528  0  1.004897  0  0  0.092086  0.092098  0  1.007874  0
H  H46  1  0.96936607  0.42004929  0.16322816  1  0  0.076715  0  0.937632  0  0  0.093458  0  1.006503  0  0  0.095227  0  1.004871  0  0  0.09207  0.092048  0  1.007836  0
H  H47  1  0.46936416  0.07994896  0.83677095  1  0  0.076726  0  0.937657  0  0  0.093472  0  1.006527  0  0  0.095237  0  1.0049  0  0  0.092089  0.092057  0  1.007865  0
H  H48  1  0.03063526  0.57994893  0.66322831  1  0  0.076745  0  0.93768  0  0  0.093496  0  1.006544  0  0  0.095262  0  1.004916  0  0  0.092084  0.092083  0  1.007884  0
H  H49  1  0.46936570  0.07994892  0.66322887  1  0  0.076714  0  0.93768  0  0  0.093469  0  1.006538  0  0  0.095235  0  1.004909  0  0  0.092078  0.092053  0  1.00788  0
H  H50  1  0.03063372  0.57994897  0.83677111  1  0  0.07675  0  0.93767  0  0  0.093504  0  1.006521  0  0  0.095272  0  1.004889  0  0  0.092086  0.09209  0  1.007864  0
H  H51  1  0.53063563  0.92005252  0.16322832  1  0  0.07676  0  0.937639  0  0  0.093503  0  1.006504  0  0  0.095267  0  1.004879  0  0  0.092084  0.092087  0  1.007852  0
H  H52  1  0.24326092  0.25279089  0.24999928  1  0  0.059604  0  0.943195  0  0  0.074865  0  1.01496  0  0  0.077971  0  1.011167  0  0  0.080681  0.07245  0  1.01787  0
H  H53  1  0.25674079  0.75279422  0.25000009  1  0  0.059686  0  0.943209  0  0  0.074932  0  1.014949  0  0  0.078029  0  1.011165  0  0  0.080704  0.072513  0  1.017866  0
H  H54  1  0.74325900  0.24720806  0.74999990  1  0  0.059636  0  0.943218  0  0  0.074892  0  1.014972  0  0  0.077988  0  1.011189  0  0  0.080692  0.072475  0  1.017884  0
H  H55  1  0.75674031  0.74720657  0.74999999  1  0  0.059685  0  0.943149  0  0  0.07494  0  1.014901  0  0  0.078043  0  1.011105  0  0  0.08072  0.072526  0  1.01781  0
H  H56  1  0.99014618  0.24361924  0.24999988  1  0  0.065461  0  0.959253  0  0  0.078994  0  1.032892  0  0  0.081105  0  1.030874  0  0  0.080042  0.077325  0  1.034559  0
H  H57  1  0.50985515  0.74362246  0.24999933  1  0  0.065481  0  0.959279  0  0  0.079016  0  1.03287  0  0  0.081127  0  1.030848  0  0  0.080022  0.077345  0  1.034542  0
H  H58  1  0.49014464  0.25637982  0.74999922  1  0  0.06545  0  0.959288  0  0  0.078982  0  1.032918  0  0  0.081093  0  1.030897  0  0  0.080021  0.077312  0  1.034587  0
H  H59  1  0.00985361  0.75637901  0.75000010  1  0  0.06546  0  0.959275  0  0  0.079005  0  1.032877  0  0  0.081118  0  1.03085  0  0  0.080021  0.077336  0  1.034544  0
C  C60  1  0.13287783  0.33338640  0.60806235  1  0  0.117168  0  3.731648  0  0  0.086603  0  3.982183  0  0  0.093789  0  3.999023  0  0  0.031648  0.0819  0  3.971165  0
C  C61  1  0.36712214  0.83338656  0.60806312  1  0  0.117055  0  3.731778  0  0  0.086489  0  3.982308  0  0  0.093672  0  3.999143  0  0  0.031593  0.081775  0  3.971308  0
C  C62  1  0.13287910  0.33338647  0.89193623  1  0  0.117147  0  3.7317  0  0  0.08656  0  3.982227  0  0  0.093745  0  3.999067  0  0  0.031638  0.081863  0  3.971198  0
C  C63  1  0.63287782  0.16661404  0.10806370  1  0  0.117152  0  3.731699  0  0  0.086575  0  3.982227  0  0  0.09376  0  3.999064  0  0  0.03164  0.08188  0  3.97119  0
C  C64  1  0.86712053  0.66661347  0.39193620  1  0  0.117118  0  3.731753  0  0  0.086554  0  3.982291  0  0  0.093739  0  3.999131  0  0  0.031579  0.081848  0  3.971282  0
C  C65  1  0.63287478  0.16661330  0.39193830  1  0  0.117172  0  3.731752  0  0  0.086623  0  3.982269  0  0  0.093809  0  3.999108  0  0  0.031683  0.081932  0  3.971229  0
C  C66  1  0.86712213  0.66661260  0.10806232  1  0  0.117069  0  3.731682  0  0  0.086514  0  3.982218  0  0  0.093697  0  3.999063  0  0  0.031598  0.081795  0  3.971232  0
C  C67  1  0.36711767  0.83338582  0.89193700  1  0  0.117079  0  3.731745  0  0  0.086522  0  3.982293  0  0  0.093708  0  3.999126  0  0  0.031624  0.08182  0  3.971271  0
C  C68  1  0.13188927  0.38044733  0.51808247  1  0  -0.183641  0  3.739782  0  0  -0.201308  0  3.987004  0  0  -0.210651  0  4.010308  0  0  -0.09206  -0.195314  0  3.971609  0
C  C69  1  0.36810801  0.88044749  0.51808325  1  0  -0.18358  0  3.73979  0  0  -0.20126  0  3.98699  0  0  -0.210607  0  4.010301  0  0  -0.09204  -0.195265  0  3.971595  0
C  C70  1  0.13189330  0.38044663  0.98191684  1  0  -0.183646  0  3.73972  0  0  -0.201318  0  3.986929  0  0  -0.210664  0  4.010237  0  0  -0.09206  -0.195327  0  3.971538  0
C  C71  1  0.63189206  0.11955308  0.01808309  1  0  -0.183671  0  3.739683  0  0  -0.20133  0  3.986904  0  0  -0.210675  0  4.010211  0  0  -0.092078  -0.195339  0  3.971511  0
C  C72  1  0.86810622  0.61955254  0.48191751  1  0  -0.183777  0  3.739813  0  0  -0.20147  0  3.987053  0  0  -0.210814  0  4.010357  0  0  -0.092115  -0.195475  0  3.971662  0
C  C73  1  0.63189035  0.11955238  0.48191674  1  0  -0.18363  0  3.739665  0  0  -0.201293  0  3.986871  0  0  -0.210642  0  4.010184  0  0  -0.092055  -0.195303  0  3.971479  0
C  C74  1  0.86810936  0.61955083  0.01808314  1  0  -0.183582  0  3.7396  0  0  -0.201236  0  3.986818  0  0  -0.210591  0  4.010124  0  0  -0.092015  -0.195239  0  3.971422  0
C  C75  1  0.36810486  0.88044759  0.98191689  1  0  -0.183529  0  3.739751  0  0  -0.201224  0  3.986948  0  0  -0.210573  0  4.01026  0  0  -0.091986  -0.19523  0  3.971554  0
C  C76  1  0.11124099  0.31756798  0.43509123  1  0  0.166162  0  3.697059  0  0  0.181989  0  3.93122  0  0  0.188482  0  3.953362  0  0  0.012905  0.177616  0  3.916309  0
C  C77  1  0.38876060  0.81756976  0.43509128  1  0  0.166055  0  3.697057  0  0  0.181935  0  3.931162  0  0  0.188428  0  3.953304  0  0  0.012906  0.177565  0  3.91625  0
C  C78  1  0.11124121  0.31756789  0.06490811  1  0  0.166044  0  3.697095  0  0  0.181908  0  3.93121  0  0  0.1884  0  3.953351  0  0  0.012861  0.177534  0  3.916299  0
C  C79  1  0.61123897  0.18243261  0.93509039  1  0  0.166019  0  3.69709  0  0  0.181843  0  3.931257  0  0  0.188335  0  3.953397  0  0  0.012855  0.177468  0  3.916346  0
C  C80  1  0.88875880  0.68243269  0.56490875  1  0  0.166158  0  3.697101  0  0  0.182036  0  3.931203  0  0  0.188529  0  3.953346  0  0  0.012891  0.177661  0  3.916295  0
C  C81  1  0.61124206  0.18243091  0.56491086  1  0  0.166101  0  3.696872  0  0  0.181936  0  3.931032  0  0  0.18843  0  3.953173  0  0  0.012905  0.177562  0  3.916125  0
C  C82  1  0.88875858  0.68243036  0.93509116  1  0  0.16604  0  3.697007  0  0  0.181891  0  3.93114  0  0  0.188383  0  3.953287  0  0  0.012856  0.177519  0  3.916229  0
C  C83  1  0.38875938  0.81756968  0.06490816  1  0  0.165962  0  3.6971  0  0  0.181873  0  3.931147  0  0  0.188365  0  3.95329  0  0  0.012842  0.177502  0  3.916236  0
C  C84  1  0.09773701  0.20616196  0.44865269  1  0  -0.166738  0  3.683615  0  0  -0.180822  0  3.923203  0  0  -0.190238  0  3.946995  0  0  -0.087177  -0.174805  0  3.907565  0
C  C85  1  0.40226440  0.70616375  0.44865201  1  0  -0.166572  0  3.683459  0  0  -0.180657  0  3.922988  0  0  -0.190074  0  3.946783  0  0  -0.087129  -0.174634  0  3.907341  0
C  C86  1  0.09773724  0.20616267  0.05134805  1  0  -0.166639  0  3.683518  0  0  -0.180747  0  3.923076  0  0  -0.190164  0  3.946871  0  0  -0.087162  -0.174727  0  3.907431  0
C  C87  1  0.59773372  0.29383621  0.94865261  1  0  -0.166569  0  3.68363  0  0  -0.180651  0  3.923179  0  0  -0.190067  0  3.946975  0  0  -0.087128  -0.174635  0  3.907539  0
C  C88  1  0.90226565  0.79383630  0.55134873  1  0  -0.166573  0  3.683507  0  0  -0.180672  0  3.923042  0  0  -0.190085  0  3.946828  0  0  -0.087104  -0.174651  0  3.907399  0
C  C89  1  0.59773539  0.29383612  0.55134725  1  0  -0.166632  0  3.683403  0  0  -0.180702  0  3.922988  0  0  -0.190114  0  3.946772  0  0  -0.087171  -0.174687  0  3.90735  0
C  C90  1  0.90226398  0.79383559  0.94865193  1  0  -0.166613  0  3.683516  0  0  -0.180687  0  3.923072  0  0  -0.190097  0  3.946848  0  0  -0.087137  -0.174672  0  3.907437  0
C  C91  1  0.40226463  0.70616446  0.05134810  1  0  -0.166577  0  3.683476  0  0  -0.180675  0  3.922991  0  0  -0.190094  0  3.94679  0  0  -0.087118  -0.174651  0  3.907342  0
C  C92  1  0.09969126  0.16438482  0.54140763  1  0  0.1225  0  3.709426  0  0  0.093543  0  3.9595  0  0  0.100997  0  3.976818  0  0  0.037027  0.088674  0  3.948115  0
C  C93  1  0.40031141  0.66438500  0.54140696  1  0  0.122312  0  3.709351  0  0  0.09335  0  3.959427  0  0  0.100798  0  3.976745  0  0  0.036961  0.088481  0  3.948038  0
C  C94  1  0.09969101  0.16438572  0.95859233  1  0  0.122379  0  3.709366  0  0  0.093415  0  3.959444  0  0  0.100866  0  3.976763  0  0  0.036977  0.088546  0  3.948056  0
C  C95  1  0.59968720  0.33561638  0.04140689  1  0  0.122418  0  3.709388  0  0  0.093456  0  3.959455  0  0  0.100907  0  3.976771  0  0  0.037029  0.088588  0  3.948065  0
C  C96  1  0.90031283  0.83561585  0.45859307  1  0  0.122332  0  3.709247  0  0  0.093377  0  3.959325  0  0  0.100829  0  3.976643  0  0  0.036977  0.088506  0  3.947946  0
C  C97  1  0.59968552  0.33561567  0.45859374  1  0  0.122428  0  3.709356  0  0  0.093456  0  3.959424  0  0  0.10091  0  3.976739  0  0  0.037015  0.088588  0  3.948034  0
C  C98  1  0.90031165  0.83561495  0.04140693  1  0  0.12228  0  3.709396  0  0  0.093338  0  3.959472  0  0  0.100791  0  3.97679  0  0  0.036966  0.088468  0  3.948089  0
C  C99  1  0.40031116  0.66438510  0.95859309  1  0  0.122287  0  3.709397  0  0  0.093346  0  3.95948  0  0  0.100794  0  3.976796  0  0  0.036959  0.088475  0  3.948093  0
C  C100  1  0.10314822  0.37220624  0.33909656  1  0  -0.167585  0  3.711155  0  0  -0.20639  0  3.954957  0  0  -0.208494  0  3.966784  0  0  -0.161615  -0.204773  0  3.946861  0
C  C101  1  0.39685499  0.87220883  0.33909661  1  0  -0.167665  0  3.711244  0  0  -0.206584  0  3.955076  0  0  -0.208686  0  3.966897  0  0  -0.161705  -0.204975  0  3.947002  0
C  C102  1  0.10314833  0.37220620  0.16090352  1  0  -0.167588  0  3.711118  0  0  -0.206414  0  3.954929  0  0  -0.208517  0  3.966755  0  0  -0.16162  -0.204798  0  3.946837  0
C  C103  1  0.60314613  0.12779268  0.83909642  1  0  -0.167551  0  3.711175  0  0  -0.206376  0  3.954989  0  0  -0.208477  0  3.966811  0  0  -0.161629  -0.204758  0  3.946895  0
C  C104  1  0.89685444  0.62779201  0.66090271  1  0  -0.167649  0  3.711191  0  0  -0.206536  0  3.955031  0  0  -0.208641  0  3.966855  0  0  -0.161659  -0.204921  0  3.946944  0
C  C105  1  0.60314767  0.12779184  0.66090481  1  0  -0.167593  0  3.711182  0  0  -0.206452  0  3.955011  0  0  -0.208556  0  3.966837  0  0  -0.161613  -0.204833  0  3.946919  0
C  C106  1  0.89685146  0.62779125  0.83909646  1  0  -0.167673  0  3.711175  0  0  -0.206558  0  3.95501  0  0  -0.208662  0  3.966832  0  0  -0.161675  -0.204946  0  3.946929  0
C  C107  1  0.39685367  0.87220879  0.16090285  1  0  -0.16759  0  3.711249  0  0  -0.206474  0  3.955019  0  0  -0.208574  0  3.96684  0  0  -0.161674  -0.204867  0  3.946946  0
C  C108  1  0.11035432  0.30110035  0.25000003  1  0  -0.101021  0  3.706821  0  0  -0.141592  0  3.965539  0  0  -0.142217  0  3.977248  0  0  -0.172817  -0.140982  0  3.957681  0
C  C109  1  0.38964747  0.80110293  0.24999936  1  0  -0.101162  0  3.707029  0  0  -0.141711  0  3.965755  0  0  -0.14233  0  3.977462  0  0  -0.17281  -0.141106  0  3.957924  0
C  C110  1  0.61035376  0.19889935  0.75000063  1  0  -0.101095  0  3.706942  0  0  -0.141652  0  3.965657  0  0  -0.142271  0  3.977367  0  0  -0.172814  -0.141044  0  3.957808  0
C  C111  1  0.88964548  0.69889791  0.74999924  1  0  -0.101103  0  3.706834  0  0  -0.141673  0  3.965564  0  0  -0.142288  0  3.97727  0  0  -0.172826  -0.141063  0  3.957715  0
N  N112  1  0.11572632  0.22585473  0.62103921  1  0  -0.30717  0  3.413965  0  0  -0.229963  0  3.716157  0  0  -0.243045  0  3.723716  0  0  -0.378286  -0.222059  0  3.711139  0
N  N113  1  0.38427491  0.72585490  0.62103854  1  0  -0.307113  0  3.413909  0  0  -0.229895  0  3.71609  0  0  -0.242952  0  3.7236  0  0  -0.378266  -0.221983  0  3.711059  0
N  N114  1  0.11572617  0.22585398  0.87896077  1  0  -0.307153  0  3.413994  0  0  -0.229906  0  3.716142  0  0  -0.242986  0  3.723703  0  0  -0.378274  -0.222004  0  3.711125  0
N  N115  1  0.61572504  0.27414491  0.12103988  1  0  -0.307163  0  3.413868  0  0  -0.229937  0  3.716051  0  0  -0.243007  0  3.723591  0  0  -0.378316  -0.222029  0  3.71102  0
N  N116  1  0.88427490  0.77414514  0.37896149  1  0  -0.30711  0  3.413906  0  0  -0.229893  0  3.716073  0  0  -0.242972  0  3.72363  0  0  -0.378273  -0.221992  0  3.711073  0
N  N117  1  0.61572345  0.27414577  0.37896073  1  0  -0.307199  0  3.413888  0  0  -0.229952  0  3.716046  0  0  -0.243026  0  3.723592  0  0  -0.378282  -0.222043  0  3.711016  0
N  N118  1  0.88427362  0.77414427  0.12103849  1  0  -0.30704  0  3.4139  0  0  -0.22985  0  3.716091  0  0  -0.242929  0  3.723647  0  0  -0.378262  -0.221946  0  3.711085  0
N  N119  1  0.38427188  0.72585496  0.87896082  1  0  -0.307061  0  3.413952  0  0  -0.229897  0  3.716179  0  0  -0.242955  0  3.72369  0  0  -0.378282  -0.221987  0  3.711151  0
Cl  Cl120  1  0.04874545  0.98536460  0.75000014  1  0  -0.636774  0  0.979313  0  0  -0.565787  0  1.275209  0  0  -0.581177  0  1.247073  0  0  -0.345807  -0.554285  0  1.293683  0
Cl  Cl121  1  0.45125314  0.48536297  0.74999999  1  0  -0.63676  0  0.979277  0  0  -0.565782  0  1.275187  0  0  -0.581154  0  1.247025  0  0  -0.345785  -0.554274  0  1.293656  0
Cl  Cl122  1  0.54874665  0.51463770  0.25000000  1  0  -0.636784  0  0.979321  0  0  -0.565787  0  1.275212  0  0  -0.581169  0  1.247067  0  0  -0.345789  -0.554276  0  1.293686  0
Cl  Cl123  1  0.95125434  0.01463446  0.24999985  1  0  -0.636754  0  0.979281  0  0  -0.565787  0  1.275193  0  0  -0.581171  0  1.24705  0  0  -0.345815  -0.554296  0  1.293669  0
