# generated using pymatgen
data_SrCoH18C14(NO7)2
_symmetry_space_group_name_H-M   'P 1'
_cell_length_a   7.34682715
_cell_length_b   9.82765987
_cell_length_c   16.22100653
_cell_angle_alpha   92.05624246
_cell_angle_beta   76.87899936
_cell_angle_gamma   68.05682892
_symmetry_Int_Tables_number   1
_chemical_formula_structural   SrCoH18C14(NO7)2
_chemical_formula_sum   'Sr2 Co2 H36 C28 N4 O28'
_cell_volume   1048.49436358
_cell_formula_units_Z   2
loop_
 _symmetry_equiv_pos_site_id
 _symmetry_equiv_pos_as_xyz
  1  'x, y, z'
loop_
 _atom_site_type_symbol
 _atom_site_label
 _atom_site_symmetry_multiplicity
 _atom_site_fract_x
 _atom_site_fract_y
 _atom_site_fract_z
 _atom_site_occupancy
 _atom_site_pbe_bader_charge
 _atom_site_pbe_bader_spin_density
 _atom_site_pbe_cm5_charge
 _atom_site_pbe_ddec_charge
 _atom_site_pbe_ddec_spin_density
 _atom_site_pbe_ddec_sum_bond_order
 _atom_site_pbe_magmom
Sr  Sr0  1  0.23078243  0.74993635  0.75002559  1  1.698002  -0.000146  0.898309  1.483454  -0.000241  1.415079  0.0
Sr  Sr1  1  0.76921765  0.25006431  0.24997799  1  1.697896  -0.000146  0.898298  1.483436  -0.000241  1.415061  0.0
Co  Co2  1  0.00000732  0.50000116  0.50000453  1  1.286159  2.631248  0.674748  0.898453  2.851421  2.513783  2.614
Co  Co3  1  0.49999206  0.00000039  0.99999802  1  1.288291  2.6313  0.674919  0.898055  2.851521  2.516083  2.614
H  H4  1  0.23849370  0.59833856  0.56766986  1  0.644094  0.000521  0.295745  0.37357  0.000209  0.98131  0.001
H  H5  1  0.35074256  0.41770961  0.54755285  1  0.663383  0.00047  0.29622  0.388049  0.000272  0.953767  0.001
H  H6  1  0.61746918  0.52062136  0.65892062  1  0.628059  0.00029  0.289415  0.37015  0.000117  0.982079  0.0
H  H7  1  0.51919717  0.40954547  0.64088210  1  0.628429  8.8e-05  0.299413  0.393475  0.000101  0.929725  0.0
H  H8  1  0.79578420  0.97302427  0.82364541  1  0.632721  0.000148  0.295187  0.387713  -7e-05  0.947045  0.0
H  H9  1  0.73739771  0.90684387  0.74956088  1  0.624762  9.1e-05  0.312037  0.399501  3.3e-05  0.908072  0.0
H  H10  1  0.57289538  0.03973126  0.59842264  1  0.158767  0.000701  0.118871  0.1343  0.000348  0.992223  0.0
H  H11  1  0.99064396  0.96937084  0.35035612  1  0.159106  0.000739  0.120856  0.128608  0.000364  1.022747  0.0
H  H12  1  0.11390333  0.69840114  0.35949559  1  0.095504  0.001507  0.1238  0.094016  0.000331  0.995978  0.001
H  H13  1  0.90465796  0.90153048  0.93236171  1  0.642346  0.000521  0.29649  0.374683  0.000205  0.979863  0.001
H  H14  1  0.81623242  0.08218156  0.95242281  1  0.655555  0.000498  0.296664  0.387551  0.000273  0.954344  0.001
H  H15  1  0.29717550  0.97921337  0.84102618  1  0.633111  0.000296  0.289957  0.371614  0.000119  0.980165  0.0
H  H16  1  0.06980447  0.09029266  0.85904775  1  0.606884  9.9e-05  0.299664  0.394063  0.000101  0.928901  0.0
H  H17  1  0.09207246  0.52705014  0.67652254  1  0.633632  0.000148  0.295713  0.387938  -6.8e-05  0.946575  0.0
H  H18  1  0.89340921  0.59329269  0.75064281  1  0.601475  9.2e-05  0.311897  0.39777  3.3e-05  0.910446  0.0
H  H19  1  0.71080414  0.46034864  0.90151638  1  0.143253  0.00071  0.119049  0.135193  0.000348  0.990428  0.0
H  H20  1  0.81080134  0.53042995  0.14940272  1  0.135227  0.000762  0.120679  0.128221  0.000364  1.02341  0.0
H  H21  1  0.67226862  0.80142218  0.14033048  1  0.098717  0.001507  0.12348  0.094183  0.000332  0.99632  0.001
H  H22  1  0.76152725  0.40166272  0.43233927  1  0.643803  0.000521  0.29578  0.373757  0.000208  0.981012  0.001
H  H23  1  0.64928147  0.58229044  0.45245512  1  0.663434  0.00047  0.296271  0.388205  0.000271  0.953514  0.001
H  H24  1  0.38253980  0.47939297  0.34108716  1  0.628082  0.00029  0.289457  0.370211  0.000117  0.982013  0.0
H  H25  1  0.48080934  0.59047117  0.35911679  1  0.628676  8.8e-05  0.299391  0.393409  0.000101  0.929802  0.0
H  H26  1  0.20418730  0.02697404  0.17634692  1  0.632201  0.000148  0.295167  0.387702  -7e-05  0.947061  0.0
H  H27  1  0.26258888  0.09315486  0.25042553  1  0.62508  9.1e-05  0.312025  0.399389  3.3e-05  0.908166  0.0
H  H28  1  0.42712232  0.96026857  0.40158331  1  0.158544  0.000701  0.118879  0.134277  0.000348  0.992129  0.0
H  H29  1  0.00935809  0.03063111  0.64964913  1  0.159083  0.000739  0.120842  0.128581  0.000364  1.02268  0.0
H  H30  1  0.88610521  0.30160502  0.64050798  1  0.095363  0.001508  0.123794  0.093997  0.000332  0.995973  0.001
H  H31  1  0.09532088  0.09846273  0.06763429  1  0.64232  0.00052  0.296437  0.374598  0.000204  0.98001  0.001
H  H32  1  0.18374310  0.91780828  0.04757255  1  0.655329  0.000499  0.296784  0.387689  0.000273  0.95412  0.001
H  H33  1  0.70280936  0.02078520  0.15897840  1  0.633088  0.000296  0.289911  0.371525  0.000119  0.980274  0.0
H  H34  1  0.93017479  0.90970654  0.14096244  1  0.607092  9.9e-05  0.29969  0.394048  0.000101  0.928923  0.0
H  H35  1  0.90794085  0.47294987  0.32348502  1  0.633304  0.000148  0.295699  0.387886  -6.7e-05  0.9466  0.0
H  H36  1  0.10659255  0.40671730  0.24935568  1  0.601067  9.2e-05  0.311916  0.397871  3.3e-05  0.91032  0.0
H  H37  1  0.28920037  0.53964268  0.09847250  1  0.143235  0.00071  0.119044  0.135124  0.000348  0.990594  0.0
H  H38  1  0.18918246  0.46956198  0.85059162  1  0.135124  0.000762  0.120625  0.128168  0.000364  1.023431  0.0
H  H39  1  0.32771913  0.19857305  0.85966388  1  0.098368  0.001507  0.123538  0.094256  0.000332  0.99629  0.001
C  C40  1  0.77163647  0.81565141  0.54449456  1  0.449724  -0.008777  0.109571  0.097239  -0.010099  3.968389  -0.006
C  C41  1  0.69393400  0.96807557  0.54462754  1  0.008795  0.004622  -0.063437  -0.13162  0.002174  3.915142  0.004
C  C42  1  0.77211787  0.02689303  0.47469153  1  -0.054517  -0.011943  0.004009  -0.005745  -0.012868  3.949666  -0.007
C  C43  1  0.92416120  0.92909294  0.40636825  1  -0.022352  0.005202  -0.057983  -0.113147  0.00235  3.887258  0.004
C  C44  1  0.99444710  0.77748742  0.41135565  1  0.516482  -0.008579  0.056025  0.106847  -0.009098  3.904414  -0.005
C  C45  1  0.68424413  0.74591565  0.61533840  1  1.581044  -0.001408  0.220449  0.544494  -0.002031  4.217186  -0.001
C  C46  1  0.69262044  0.19233598  0.47526391  1  1.600966  -0.001494  0.224932  0.594653  -0.001756  4.195754  0.0
C  C47  1  0.63153192  0.68436920  0.95553323  1  0.440627  -0.008797  0.108365  0.094215  -0.010135  3.97193  -0.006
C  C48  1  0.70647928  0.53192853  0.95533181  1  0.049161  0.004615  -0.063075  -0.13093  0.002176  3.911609  0.004
C  C49  1  0.77377029  0.47301735  0.02517991  1  -0.038153  -0.011984  0.004407  -0.005917  -0.012907  3.946576  -0.007
C  C50  1  0.75991938  0.57075633  0.09344410  1  -0.083782  0.005204  -0.058925  -0.113974  0.002356  3.887544  0.004
C  C51  1  0.68350490  0.72240139  0.08852632  1  0.560876  -0.008552  0.055998  0.106144  -0.009075  3.903515  -0.005
C  C52  1  0.54521356  0.75416081  0.88474130  1  1.5725  -0.001419  0.221938  0.545923  -0.00204  4.215624  -0.001
C  C53  1  0.86030796  0.30760778  0.02460957  1  1.599339  -0.001508  0.224969  0.594803  -0.00177  4.194288  0.0
C  C54  1  0.22838313  0.18434852  0.45551227  1  0.44921  -0.008775  0.109461  0.096967  -0.010098  3.969027  -0.006
C  C55  1  0.30607635  0.03192862  0.45537807  1  0.009352  0.004622  -0.06343  -0.131593  0.002174  3.915197  0.004
C  C56  1  0.22789249  0.97311188  0.52531075  1  -0.055111  -0.011942  0.004026  -0.005586  -0.012867  3.949357  -0.007
C  C57  1  0.07584969  0.07090983  0.59363457  1  -0.022274  0.005203  -0.057997  -0.113121  0.00235  3.887138  0.004
C  C58  1  0.00555953  0.22251864  0.58864705  1  0.516881  -0.008581  0.056077  0.106861  -0.009099  3.904517  -0.005
C  C59  1  0.31577450  0.25408917  0.38467286  1  1.581392  -0.001408  0.220435  0.544661  -0.002032  4.217402  -0.001
C  C60  1  0.30739741  0.80766710  0.52474168  1  1.601021  -0.001493  0.224891  0.594433  -0.001756  4.195771  0.0
C  C61  1  0.36846706  0.31562451  0.04445735  1  0.440223  -0.008802  0.108443  0.094426  -0.01014  3.971896  -0.006
C  C62  1  0.29352350  0.46806595  0.04465583  1  0.049414  0.004616  -0.062976  -0.130847  0.002176  3.911624  0.004
C  C63  1  0.22622234  0.52697525  0.97481062  1  -0.038047  -0.011988  0.004392  -0.005939  -0.01291  3.946379  -0.007
C  C64  1  0.24007308  0.42923301  0.90654679  1  -0.08452  0.005206  -0.058945  -0.113967  0.002356  3.887484  0.004
C  C65  1  0.31649219  0.27759164  0.91146809  1  0.561622  -0.008553  0.056016  0.106138  -0.009075  3.90359  -0.005
C  C66  1  0.45478050  0.24583521  0.11525036  1  1.572792  -0.001419  0.221797  0.545862  -0.002041  4.21541  -0.001
C  C67  1  0.13968245  0.69239059  0.97538331  1  1.599372  -0.001508  0.225082  0.595035  -0.00177  4.194249  0.0
N  N68  1  0.92203208  0.72113151  0.47952083  1  -1.221841  0.051693  -0.322341  -0.262228  0.027192  3.561952  0.048
N  N69  1  0.62250271  0.77883370  0.02048058  1  -1.218186  0.051657  -0.321178  -0.25985  0.027187  3.561174  0.048
N  N70  1  0.07798956  0.27887162  0.52048514  1  -1.221752  0.051692  -0.322289  -0.262092  0.027191  3.562257  0.048
N  N71  1  0.37749234  0.22115686  0.97951136  1  -1.21808  0.051659  -0.32127  -0.259995  0.027187  3.561251  0.048
O  O72  1  0.77351641  0.60345043  0.61020813  1  -1.160254  0.072029  -0.305797  -0.564452  0.037398  2.391834  0.062
O  O73  1  0.53026623  0.82605442  0.67263597  1  -1.187605  0.007018  -0.332266  -0.563393  0.003441  2.211326  0.006
O  O74  1  0.76794452  0.24135597  0.40988248  1  -1.217634  0.000164  -0.354431  -0.613311  -0.000382  2.279898  0.0
O  O75  1  0.55806807  0.27152751  0.54095394  1  -1.196618  -0.000903  -0.311061  -0.562851  -0.001346  2.204615  -0.001
O  O76  1  0.21491039  0.50312930  0.56388198  1  -1.275499  0.069373  -0.561465  -0.778736  0.036377  2.270287  0.057
O  O77  1  0.50777662  0.48647261  0.68419929  1  -1.276706  0.001911  -0.633074  -0.808233  0.000881  1.952592  0.001
O  O78  1  0.84588837  0.93152293  0.76229587  1  -1.27192  0.001006  -0.611209  -0.799939  0.000429  1.958171  0.001
O  O79  1  0.48697647  0.89663161  0.88983664  1  -1.153072  0.072009  -0.306077  -0.564958  0.037448  2.39034  0.062
O  O80  1  0.52872500  0.67400054  0.82747187  1  -1.182488  0.007019  -0.332509  -0.563285  0.00344  2.210752  0.006
O  O81  1  0.91918698  0.25859500  0.08997988  1  -1.213409  0.000149  -0.354369  -0.612775  -0.000394  2.278746  0.0
O  O82  1  0.87074697  0.22842711  0.95891795  1  -1.200705  -0.000909  -0.311116  -0.563131  -0.001356  2.204361  -0.001
O  O83  1  0.78209888  0.99678340  0.93613609  1  -1.266393  0.069387  -0.562927  -0.779735  0.036452  2.271312  0.057
O  O84  1  0.17865709  0.01326998  0.81576169  1  -1.259535  0.001906  -0.634014  -0.810146  0.000887  1.951218  0.001
O  O85  1  0.03934931  0.56854886  0.73786890  1  -1.249142  0.000999  -0.611613  -0.79829  0.00043  1.960671  0.001
O  O86  1  0.22651207  0.39655062  0.38979902  1  -1.160245  0.072031  -0.305819  -0.564582  0.037402  2.391898  0.062
O  O87  1  0.46974223  0.17396204  0.32737127  1  -1.187556  0.007019  -0.332299  -0.563398  0.003441  2.211369  0.006
O  O88  1  0.23206789  0.75865158  0.59012365  1  -1.217639  0.000164  -0.354391  -0.613153  -0.000382  2.280027  0.0
O  O89  1  0.44194651  0.72847251  0.45905375  1  -1.196605  -0.000902  -0.311075  -0.562822  -0.001345  2.204568  -0.001
O  O90  1  0.78511065  0.49687405  0.43612599  1  -1.275241  0.069365  -0.56152  -0.77898  0.036382  2.270024  0.057
O  O91  1  0.49222253  0.51354839  0.31579928  1  -1.27696  0.00191  -0.633075  -0.808216  0.000881  1.952539  0.001
O  O92  1  0.15409144  0.06847761  0.23769682  1  -1.271654  0.001006  -0.611215  -0.799824  0.000429  1.95815  0.001
O  O93  1  0.51299245  0.10336490  0.11015935  1  -1.153187  0.072017  -0.306107  -0.564991  0.037453  2.390354  0.062
O  O94  1  0.47129147  0.32599068  0.17251616  1  -1.182413  0.00702  -0.332425  -0.563288  0.00344  2.210616  0.006
O  O95  1  0.08079753  0.74139892  0.91001268  1  -1.213178  0.00015  -0.354437  -0.612938  -0.000394  2.278885  0.0
O  O96  1  0.12923125  0.77156617  0.04107868  1  -1.200784  -0.000909  -0.311192  -0.56322  -0.001356  2.204405  -0.001
O  O97  1  0.21787669  0.00320690  0.06386339  1  -1.26624  0.069373  -0.56301  -0.779792  0.036444  2.271254  0.057
O  O98  1  0.82132062  0.98673652  0.18424494  1  -1.259671  0.001907  -0.633975  -0.810012  0.000887  1.951468  0.001
O  O99  1  0.96065150  0.43145322  0.26213760  1  -1.248393  0.000999  -0.611628  -0.798384  0.00043  1.960557  0.001
