# generated using pymatgen
data_AlH15C21N2O7F5
_symmetry_space_group_name_H-M   'P 1'
_cell_length_a   6.65251764
_cell_length_b   23.64302330
_cell_length_c   25.56731157
_cell_angle_alpha   100.99461018
_cell_angle_beta   90.51364468
_cell_angle_gamma   89.84738148
_symmetry_Int_Tables_number   1
_chemical_formula_structural   AlH15C21N2O7F5
_chemical_formula_sum   'Al4 H60 C84 N8 O28 F20'
_cell_volume   3947.39846418
_cell_formula_units_Z   4
loop_
 _symmetry_equiv_pos_site_id
 _symmetry_equiv_pos_as_xyz
  1  'x, y, z'
loop_
 _atom_site_type_symbol
 _atom_site_label
 _atom_site_symmetry_multiplicity
 _atom_site_fract_x
 _atom_site_fract_y
 _atom_site_fract_z
 _atom_site_occupancy
 _atom_site_pbe_bader_charge
 _atom_site_pbe_bader_spin_density
 _atom_site_pbe_cm5_charge
 _atom_site_pbe_ddec_charge
 _atom_site_pbe_ddec_spin_density
 _atom_site_pbe_ddec_sum_bond_order
 _atom_site_pbe_magmom
Al  Al0  1  0.77607134  0.74870005  0.74991865  1  2.500551  0  0.402598  1.648178  0  2.580651  0
Al  Al1  1  0.22471883  0.25011352  0.25068558  1  2.503261  0  0.401958  1.646946  0  2.58102  0
Al  Al2  1  0.27611493  0.74990191  0.75070665  1  2.501222  0  0.402335  1.649584  0  2.579118  0
Al  Al3  1  0.72481136  0.24897157  0.24960749  1  2.501169  0  0.402797  1.648106  0  2.578454  0
H  H4  1  0.20034909  0.57483114  0.39308243  1  0.033233  0  0.095998  0.06003  0  0.978926  0
H  H5  1  0.40359469  0.53549374  0.41562845  1  0.066391  0  0.097151  0.06293  0  0.99016  0
H  H6  1  0.38339754  0.66729140  0.43259027  1  0.027909  0  0.096477  0.093069  0  0.960708  0
H  H7  1  0.58796928  0.62579384  0.44879590  1  0.036818  0  0.091429  0.087586  0  0.982598  0
H  H8  1  0.62347126  0.58092925  0.34999333  1  0.031529  0  0.082369  0.111677  0  1.017371  0
H  H9  1  0.65501954  0.65681083  0.36225422  1  0.031509  0  0.088523  0.118179  0  0.997251  0
H  H10  1  0.42495980  0.62593334  0.33513124  1  0.029976  0  0.082301  0.102591  0  1.023232  0
H  H11  1  0.59298854  0.46482347  0.58378065  1  0.034724  0  0.096631  0.06207  0  0.990362  0
H  H12  1  0.79817654  0.42638299  0.60655943  1  0.043562  0  0.096027  0.059849  0  0.980026  0
H  H13  1  0.41215881  0.37357369  0.55137292  1  0.03967  0  0.092185  0.088434  0  0.980007  0
H  H14  1  0.61826238  0.33318195  0.56846953  1  0.030781  0  0.096192  0.092497  0  0.962214  0
H  H15  1  0.57400676  0.37657910  0.66573924  1  0.013642  0  0.081736  0.103675  0  1.013325  0
H  H16  1  0.34667972  0.34373240  0.63857236  1  0.029406  0  0.08856  0.118356  0  0.997414  0
H  H17  1  0.37231405  0.41974429  0.64943106  1  0.0288  0  0.082088  0.111467  0  1.020328  0
H  H18  1  0.70443431  0.92577434  0.10691563  1  0.053077  0  0.096436  0.060374  0  0.978836  0
H  H19  1  0.90861685  0.96438150  0.08493849  1  0.03987  0  0.097068  0.062775  0  0.989982  0
H  H20  1  0.88423850  0.83271484  0.06928015  1  0.030298  0  0.096433  0.09317  0  0.961188  0
H  H21  1  0.08896932  0.87306606  0.05240857  1  0.044286  0  0.091946  0.08855  0  0.980447  0
H  H22  1  0.13381399  0.91919902  0.15038659  1  0.038227  0  0.082284  0.110889  0  1.019705  0
H  H23  1  0.15888042  0.84313743  0.13972951  1  0.009437  0  0.088726  0.118335  0  0.997554  0
H  H24  1  0.93297614  0.87635271  0.16663268  1  0.024587  0  0.082181  0.1039  0  1.013474  0
H  H25  1  0.09079990  0.03547346  0.91488812  1  0.037231  0  0.097011  0.062849  0  0.990351  0
H  H26  1  0.29516303  0.07401941  0.89290790  1  0.052364  0  0.096311  0.060595  0  0.978986  0
H  H27  1  0.91093873  0.12684160  0.94750410  1  0.046372  0  0.092003  0.088823  0  0.98022  0
H  H28  1  0.11583837  0.16713785  0.93064694  1  0.033421  0  0.096507  0.093017  0  0.961504  0
H  H29  1  0.06661544  0.12366242  0.83325956  1  0.025393  0  0.082083  0.103834  0  1.013274  0
H  H30  1  0.84105859  0.15697731  0.86028628  1  0.006548  0  0.088642  0.118152  0  0.997838  0
H  H31  1  0.86550959  0.08090329  0.84950132  1  0.038088  0  0.082393  0.110622  0  1.019461  0
H  H32  1  0.56901315  0.54094619  0.09860784  1  0.076743  0  0.106959  0.081187  0  0.967298  0
H  H33  1  0.79819661  0.53321688  0.13386795  1  0.043989  0  0.095567  0.058281  0  0.983518  0
H  H34  1  0.37653281  0.50242930  0.16717816  1  0.031824  0  0.090833  0.087529  0  0.981634  0
H  H35  1  0.59914720  0.49745868  0.20434132  1  0.02819  0  0.087513  0.083122  0  0.988081  0
H  H36  1  0.64746299  0.60553344  0.21632922  1  0.034091  0  0.084785  0.109008  0  1.002181  0
H  H37  1  0.41162141  0.58873407  0.24112390  1  0.031357  0  0.086896  0.114195  0  1.016211  0
H  H38  1  0.42486535  0.61049562  0.17846894  1  0.01842  0  0.086542  0.112141  0  1.0018  0
H  H39  1  0.34766793  0.49845021  0.82202296  1  0.026694  0  0.095121  0.058668  0  0.987281  0
H  H40  1  0.20272476  0.46313947  0.86501543  1  0.064567  0  0.09395  0.056166  0  0.975617  0
H  H41  1  0.66182788  0.47742916  0.86883372  1  0.045657  0  0.08855  0.08055  0  0.996951  0
H  H42  1  0.52283744  0.44499765  0.91305740  1  0.033255  0  0.095695  0.096909  0  0.972379  0
H  H43  1  0.40372181  0.36732705  0.83665103  1  0.046484  0  0.083966  0.106611  0  1.005517  0
H  H44  1  0.66974393  0.36988009  0.84096786  1  0.029323  0  0.089297  0.118076  0  0.996684  0
H  H45  1  0.54278488  0.39988709  0.79124861  1  0.025404  0  0.082709  0.105628  0  1.012314  0
H  H46  1  0.30621292  0.96096956  0.36114608  1  0.029169  0  0.094111  0.056734  0  0.976253  0
H  H47  1  0.15972908  0.99685555  0.31817850  1  0.048386  0  0.095732  0.059915  0  0.984937  0
H  H48  1  0.98875360  0.94429171  0.40939545  1  0.0516  0  0.095282  0.096402  0  0.972918  0
H  H49  1  0.84792625  0.97729781  0.36528297  1  0.037148  0  0.088508  0.080753  0  0.996341  0
H  H50  1  0.95684693  0.89888489  0.28772043  1  0.009564  0  0.082468  0.10493  0  1.013894  0
H  H51  1  0.83257381  0.86991471  0.33787817  1  0.024788  0  0.089216  0.117886  0  0.997309  0
H  H52  1  0.09799836  0.86571283  0.33301489  1  0.000191  0  0.084089  0.106934  0  1.005216  0
H  H53  1  0.84054764  0.00335693  0.68244944  1  0.043698  0  0.095127  0.059163  0  0.983524  0
H  H54  1  0.69370514  0.03884294  0.63924408  1  0.029538  0  0.093924  0.056194  0  0.977022  0
H  H55  1  0.15211155  0.02284456  0.63515718  1  0.039649  0  0.089028  0.08145  0  0.996527  0
H  H56  1  0.01082623  0.05553854  0.59091009  1  0.058278  0  0.09554  0.096855  0  0.972538  0
H  H57  1  0.90126061  0.13434768  0.66704107  1  -0.002327  0  0.084239  0.107393  0  1.004834  0
H  H58  1  0.16670380  0.13027493  0.66215644  1  0.029593  0  0.089169  0.118051  0  0.997455  0
H  H59  1  0.04284492  0.10149744  0.71249997  1  0.005431  0  0.082435  0.104768  0  1.014161  0
H  H60  1  0.52446183  0.67627026  0.75550482  1  0.629585  0  0.360107  0.443408  0  0.835419  0
H  H61  1  0.47532374  0.32125962  0.24140163  1  0.642894  0  0.356724  0.438778  0  0.842104  0
H  H62  1  0.02285978  0.82284838  0.74660976  1  0.637927  0  0.359832  0.442683  0  0.836915  0
H  H63  1  0.97797657  0.17688801  0.25666909  1  0.629742  0  0.359565  0.442239  0  0.83759  0
C  C64  1  0.52488988  0.81095323  0.68501616  1  1.636957  0  0.276566  0.687761  0  4.078114  0
C  C65  1  0.48006643  0.18852626  0.31597091  1  1.647513  0  0.27687  0.685735  0  4.079577  0
C  C66  1  0.02841007  0.68829643  0.81625110  1  1.643129  0  0.27672  0.686688  0  4.079598  0
C  C67  1  0.96890882  0.31070573  0.18455364  1  1.651218  0  0.275578  0.686142  0  4.076795  0
C  C68  1  0.52866053  0.82525748  0.82837149  1  1.689739  0  0.274758  0.714605  0  4.167877  0
C  C69  1  0.46813655  0.17355575  0.17219905  1  1.698126  0  0.27495  0.7131  0  4.172792  0
C  C70  1  0.02711826  0.67384816  0.67198078  1  1.691283  0  0.275703  0.714965  0  4.170263  0
C  C71  1  0.97739824  0.32550535  0.32804079  1  1.691202  0  0.275976  0.714518  0  4.169029  0
C  C72  1  0.91833640  0.51734407  0.45632650  1  0.581834  0  0.102184  0.138075  0  3.728428  0
C  C73  1  0.07902045  0.48282063  0.54310297  1  0.58374  0  0.104249  0.139839  0  3.728107  0
C  C74  1  0.42035528  0.98210596  0.04279119  1  0.564129  0  0.103573  0.139499  0  3.727505  0
C  C75  1  0.57922468  0.01759652  0.95704872  1  0.585665  0  0.104079  0.140729  0  3.728355  0
C  C76  1  0.12155190  0.54207101  0.48498363  1  0.631646  0  0.089138  0.098665  0  3.79475  0
C  C77  1  0.87581447  0.45810558  0.51447810  1  0.635854  0  0.090469  0.100268  0  3.792573  0
C  C78  1  0.62381213  0.95792183  0.01487434  1  0.631393  0  0.089803  0.100835  0  3.793336  0
C  C79  1  0.37575735  0.04181242  0.98497577  1  0.644126  0  0.08964  0.098068  0  3.795833  0
C  C80  1  0.02649098  0.63073245  0.62383050  1  0.257018  0  -0.028026  -0.178541  0  3.940011  0
C  C81  1  0.97435712  0.36904851  0.37590718  1  0.239747  0  -0.029269  -0.179429  0  3.939872  0
C  C82  1  0.53077873  0.86904101  0.87604918  1  0.057273  0  -0.028571  -0.179301  0  3.939076  0
C  C83  1  0.46847140  0.13013608  0.12424520  1  0.269147  0  -0.02862  -0.17779  0  3.938827  0
C  C84  1  0.81096913  0.52237005  0.51124723  1  0.598506  0  0.101034  0.134092  0  3.738267  0
C  C85  1  0.18639273  0.47781863  0.48821763  1  0.597238  0  0.101426  0.134931  0  3.742199  0
C  C86  1  0.31241560  0.97737494  0.98748151  1  0.614088  0  0.10083  0.134691  0  3.738588  0
C  C87  1  0.68710868  0.02234648  0.01235983  1  0.592531  0  0.101102  0.134141  0  3.739013  0
C  C88  1  0.01151615  0.54649247  0.54071352  1  0.100691  0  -0.004373  -0.033541  0  3.869771  0
C  C89  1  0.98583011  0.45369825  0.45871900  1  0.073086  0  -0.004567  -0.035011  0  3.874126  0
C  C90  1  0.51342054  0.95371618  0.95870894  1  0.064723  0  -0.004151  -0.03555  0  3.872608  0
C  C91  1  0.48610964  0.04601166  0.04112679  1  0.078763  0  -0.005478  -0.034092  0  3.872114  0
C  C92  1  0.02309717  0.59265519  0.58446900  1  -0.51249  0  -0.026647  0.002072  0  4.087029  0
C  C93  1  0.97538174  0.40738918  0.41505967  1  -0.45799  0  -0.02616  0.003156  0  4.088219  0
C  C94  1  0.52625338  0.90753563  0.91505456  1  -0.272842  0  -0.026653  0.003232  0  4.087726  0
C  C95  1  0.47322670  0.09199044  0.08496876  1  -0.512715  0  -0.026336  0.00219  0  4.08762  0
C  C96  1  0.13853478  0.35052727  0.11121500  1  0.521043  0  0.10325  0.181155  0  4.065705  0
C  C97  1  0.87670490  0.65573303  0.89601110  1  0.564146  0  0.10461  0.182606  0  4.063189  0
C  C98  1  0.63748646  0.15316347  0.39444592  1  0.556127  0  0.105019  0.181925  0  4.059897  0
C  C99  1  0.36456322  0.84637401  0.60703090  1  0.550244  0  0.104668  0.180788  0  4.066026  0
C  C100  1  0.14615508  0.38895410  0.07619938  1  0.587981  0  0.093638  0.142334  0  4.094298  0
C  C101  1  0.87793659  0.62090777  0.93426514  1  0.502076  0  0.094546  0.143172  0  4.089968  0
C  C102  1  0.63942332  0.11685420  0.43146559  1  0.555466  0  0.093896  0.143123  0  4.086813  0
C  C103  1  0.36151719  0.88255204  0.56990251  1  0.568398  0  0.093943  0.143873  0  4.089686  0
C  C104  1  0.98777590  0.42680272  0.07255547  1  0.07892  0  -0.014821  -0.164607  0  4.053349  0
C  C105  1  0.03170047  0.58120228  0.93619338  1  0.10502  0  -0.011526  -0.155749  0  4.046795  0
C  C106  1  0.48546243  0.07726433  0.43249188  1  0.054678  0  -0.011695  -0.156348  0  4.051375  0
C  C107  1  0.51516265  0.92220602  0.56864103  1  0.101458  0  -0.011817  -0.157656  0  4.047414  0
C  C108  1  0.81490783  0.42518594  0.10367010  1  0.672727  0  0.079982  0.115679  0  4.104989  0
C  C109  1  0.18937116  0.57661282  0.89941997  1  0.616657  0  0.077483  0.111039  0  4.107321  0
C  C110  1  0.32465716  0.07429425  0.39606937  1  0.66465  0  0.078388  0.111933  0  4.111645  0
C  C111  1  0.67676522  0.92534461  0.60487418  1  0.607543  0  0.077304  0.111061  0  4.108057  0
C  C112  1  0.81175864  0.38676123  0.13916228  1  0.458352  0  0.104427  0.188997  0  4.029014  0
C  C113  1  0.18520950  0.61188177  0.86117197  1  0.504917  0  0.10333  0.185628  0  4.027704  0
C  C114  1  0.32604824  0.11081422  0.35891489  1  0.463875  0  0.104158  0.187166  0  4.028498  0
C  C115  1  0.67666176  0.88878064  0.64198129  1  0.503287  0  0.103376  0.185764  0  4.03187  0
C  C116  1  0.97171520  0.34920637  0.14430125  1  0.083762  0  -0.020843  -0.226766  0  3.97487  0
C  C117  1  0.03063402  0.65173703  0.85815900  1  0.096956  0  -0.020747  -0.224757  0  3.972832  0
C  C118  1  0.48060905  0.15069144  0.35681778  1  0.08411  0  -0.021445  -0.226003  0  3.969622  0
C  C119  1  0.52252048  0.84892221  0.64426785  1  0.097921  0  -0.021102  -0.225584  0  3.977928  0
C  C120  1  0.02260954  0.54090589  0.97390865  1  1.055059  0  0.257278  0.291981  0  3.980509  0
C  C121  1  0.00090545  0.46818649  0.03606818  1  0.981683  0  0.257541  0.292121  0  3.980502  0
C  C122  1  0.50681371  0.96295152  0.53131955  1  0.997971  0  0.258399  0.29325  0  3.97978  0
C  C123  1  0.49296934  0.03633727  0.46966730  1  1.044697  0  0.257825  0.289761  0  3.984736  0
C  C124  1  0.32280351  0.57700647  0.42279687  1  0.379725  0  -0.066993  0.030932  0  3.875598  0
C  C125  1  0.46454382  0.62638252  0.42002011  1  0.009573  0  -0.166711  -0.127812  0  3.982703  0
C  C126  1  0.54652971  0.62222767  0.36373464  1  -0.074326  0  -0.24316  -0.355119  0  3.983749  0
C  C127  1  0.67518519  0.42354782  0.57693375  1  0.399099  0  -0.066629  0.03268  0  3.874506  0
C  C128  1  0.53544869  0.37391503  0.58035781  1  0.008111  0  -0.166896  -0.127657  0  3.981807  0
C  C129  1  0.45262292  0.37881654  0.63667217  1  -0.058309  0  -0.243863  -0.356914  0  3.984925  0
C  C130  1  0.82672382  0.92309561  0.07766481  1  0.370706  0  -0.067445  0.031455  0  3.87607  0
C  C131  1  0.96714448  0.87342214  0.08126262  1  0.007532  0  -0.166979  -0.128718  0  3.984504  0
C  C132  1  0.05287417  0.87834856  0.13766004  1  -0.045266  0  -0.24355  -0.355576  0  3.985291  0
C  C133  1  0.17289303  0.07672847  0.92216418  1  0.396428  0  -0.06705  0.031185  0  3.875143  0
C  C134  1  0.03269561  0.12647514  0.91862888  1  -0.018168  0  -0.167242  -0.129694  0  3.985415  0
C  C135  1  0.94681856  0.12168648  0.86226253  1  -0.045183  0  -0.243743  -0.354996  0  3.984815  0
C  C136  1  0.64350163  0.51682768  0.12608615  1  0.373982  0  -0.064216  0.032805  0  3.866434  0
C  C137  1  0.52479525  0.52223459  0.17736131  1  0.003171  0  -0.17224  -0.139794  0  3.993446  0
C  C138  1  0.50097972  0.58523060  0.20475059  1  -0.074217  0  -0.241384  -0.347559  0  3.975763  0
C  C139  1  0.34357695  0.48686291  0.86177407  1  0.359458  0  -0.066117  0.037712  0  3.876914  0
C  C140  1  0.52603404  0.45188289  0.87172444  1  0.030964  0  -0.170326  -0.132095  0  3.986895  0
C  C141  1  0.53569892  0.39417876  0.83292236  1  -0.099057  0  -0.241398  -0.347016  0  3.980779  0
C  C142  1  0.16578632  0.98519327  0.35791569  1  0.392372  0  -0.066783  0.036438  0  3.878603  0
C  C143  1  0.98280911  0.95105190  0.36802668  1  -0.009906  0  -0.170232  -0.132384  0  3.989886  0
C  C144  1  0.96717263  0.89333033  0.32943256  1  -0.019639  0  -0.241234  -0.345852  0  3.982206  0
C  C145  1  0.83439946  0.01477681  0.64261002  1  0.405373  0  -0.065762  0.038088  0  3.876392  0
C  C146  1  0.01702349  0.04898320  0.63234196  1  -0.019  0  -0.170662  -0.133287  0  3.9889  0
C  C147  1  0.03231012  0.10684849  0.67072917  1  -0.020906  0  -0.242205  -0.347302  0  3.981911  0
N  N148  1  0.87061376  0.46150068  0.99462247  1  -0.556999  0  -0.14162  -0.124729  0  3.141739  0
N  N149  1  0.15362709  0.54750514  0.01512527  1  -0.54227  0  -0.149363  -0.134479  0  3.139516  0
N  N150  1  0.36134454  0.04353986  0.51015956  1  -0.55455  0  -0.143259  -0.127849  0  3.138868  0
N  N151  1  0.63783983  0.95560324  0.49067934  1  -0.520238  0  -0.144893  -0.131572  0  3.134278  0
N  N152  1  0.88201211  0.49926739  0.96265762  1  -0.535783  0  -0.137784  -0.131326  0  3.176423  0
N  N153  1  0.14178096  0.50987361  0.04739807  1  -0.539429  0  -0.144187  -0.13838  0  3.153299  0
N  N154  1  0.36909461  0.00542698  0.54198655  1  -0.534964  0  -0.136328  -0.13077  0  3.174505  0
N  N155  1  0.63011528  0.99371933  0.45885156  1  -0.567764  0  -0.135276  -0.127243  0  3.170316  0
O  O156  1  0.35573661  0.80807958  0.81052286  1  -1.231798  0  -0.228138  -0.580052  0  2.289738  0
O  O157  1  0.63981157  0.18780726  0.19288835  1  -1.235103  0  -0.229602  -0.583127  0  2.290687  0
O  O158  1  0.85571444  0.68912909  0.69153763  1  -1.23583  0  -0.228085  -0.580218  0  2.288298  0
O  O159  1  0.15002986  0.30719974  0.31170843  1  -1.230164  0  -0.227186  -0.575891  0  2.284358  0
O  O160  1  0.69538049  0.79432824  0.69857055  1  -1.232518  0  -0.225208  -0.578606  0  2.345047  0
O  O161  1  0.31004630  0.20187525  0.29914454  1  -1.244064  0  -0.226281  -0.58189  0  2.355942  0
O  O162  1  0.19745746  0.70259870  0.80044299  1  -1.238578  0  -0.226092  -0.581247  0  2.350153  0
O  O163  1  0.79954170  0.29250956  0.19634922  1  -1.239018  0  -0.225053  -0.577296  0  2.341206  0
O  O164  1  0.69836817  0.80898837  0.80825573  1  -1.23589  0  -0.228755  -0.583001  0  2.285938  0
O  O165  1  0.29745130  0.19243343  0.18964663  1  -1.237701  0  -0.228038  -0.579301  0  2.286394  0
O  O166  1  0.19832166  0.69149367  0.69077600  1  -1.232298  0  -0.228205  -0.581397  0  2.288452  0
O  O167  1  0.80795233  0.31056485  0.30629129  1  -1.242052  0  -0.229751  -0.584391  0  2.288508  0
O  O168  1  0.85711032  0.70115485  0.79970465  1  -1.246047  0  -0.228006  -0.58449  0  2.343787  0
O  O169  1  0.13788906  0.30060371  0.20432941  1  -1.242716  0  -0.227905  -0.587559  0  2.348346  0
O  O170  1  0.35573891  0.79942156  0.70292054  1  -1.235491  0  -0.227797  -0.585194  0  2.340347  0
O  O171  1  0.65011987  0.20332742  0.30110280  1  -1.239644  0  -0.22667  -0.581665  0  2.34714  0
O  O172  1  0.52564508  0.71488728  0.74791999  1  -1.426808  0  -0.447199  -0.999471  0  2.203895  0
O  O173  1  0.47520287  0.28408526  0.25214270  1  -1.439873  0  -0.445419  -0.993985  0  2.197143  0
O  O174  1  0.02505543  0.78368246  0.75280557  1  -1.434121  0  -0.44667  -0.998298  0  2.20618  0
O  O175  1  0.97568974  0.21501537  0.24795313  1  -1.426916  0  -0.448209  -0.998598  0  2.202895  0
O  O176  1  0.23519000  0.58663886  0.47574950  1  -1.056096  0  -0.192715  -0.198537  0  2.524622  0
O  O177  1  0.76206441  0.41362804  0.52386881  1  -1.052946  0  -0.193124  -0.199943  0  2.522992  0
O  O178  1  0.73875224  0.91342324  0.02434335  1  -1.05282  0  -0.192535  -0.199325  0  2.524073  0
O  O179  1  0.26091579  0.08632867  0.97547249  1  -1.054085  0  -0.193113  -0.199098  0  2.522866  0
O  O180  1  0.65047723  0.45759909  0.09707694  1  -1.056262  0  -0.195312  -0.216587  0  2.573034  0
O  O181  1  0.34341990  0.53915106  0.90253553  1  -1.053221  0  -0.194062  -0.211492  0  2.538253  0
O  O182  1  0.16931432  0.03742123  0.39869775  1  -1.062182  0  -0.194073  -0.213522  0  2.547031  0
O  O183  1  0.83150416  0.96236443  0.60203898  1  -1.068047  0  -0.194263  -0.213315  0  2.543361  0
F  F184  1  0.83604012  0.53210752  0.41180620  1  -0.632628  0  -0.091622  -0.128438  0  1.36707  0
F  F185  1  0.16150122  0.46810616  0.58761128  1  -0.631168  0  -0.091943  -0.128287  0  1.367656  0
F  F186  1  0.33898770  0.96680103  0.08677969  1  -0.629562  0  -0.091387  -0.128448  0  1.367783  0
F  F187  1  0.66062237  0.03293820  0.91307203  1  -0.630353  0  -0.09226  -0.128972  0  1.366629  0
F  F188  1  0.36806275  0.45264683  0.47601033  1  -0.62506  0  -0.093447  -0.120634  0  1.375783  0
F  F189  1  0.62917949  0.54747755  0.52347624  1  -0.626359  0  -0.093641  -0.120543  0  1.374279  0
F  F190  1  0.86870534  0.04748131  0.02537628  1  -0.624785  0  -0.094645  -0.121807  0  1.368965  0
F  F191  1  0.13085744  0.95222524  0.97442689  1  -0.625942  0  -0.09427  -0.121381  0  1.369621  0
F  F192  1  0.29353279  0.31381324  0.11101996  1  -0.606649  0  -0.076023  -0.090718  0  1.386328  0
F  F193  1  0.72602427  0.69410496  0.89750285  1  -0.609916  0  -0.077722  -0.091781  0  1.373875  0
F  F194  1  0.78825161  0.19147658  0.39700384  1  -0.609395  0  -0.077631  -0.091441  0  1.37715  0
F  F195  1  0.21436239  0.80795209  0.60501300  1  -0.613046  0  -0.078047  -0.091929  0  1.374515  0
F  F196  1  0.30586513  0.38735698  0.04365865  1  -0.618182  0  -0.087819  -0.102513  0  1.38645  0
F  F197  1  0.72800919  0.62645976  0.97031644  1  -0.621235  0  -0.092785  -0.109265  0  1.356571  0
F  F198  1  0.79184947  0.12114530  0.46739821  1  -0.612358  0  -0.091544  -0.107675  0  1.356264  0
F  F199  1  0.20850681  0.87810465  0.53413949  1  -0.6221  0  -0.091477  -0.107497  0  1.357629  0
F  F200  1  0.64806581  0.38810430  0.17035716  1  -0.624056  0  -0.078296  -0.104888  0  1.407859  0
F  F201  1  0.33607399  0.60490598  0.82525194  1  -0.623842  0  -0.082426  -0.107848  0  1.383045  0
F  F202  1  0.17195307  0.10506170  0.32330815  1  -0.616337  0  -0.082427  -0.107641  0  1.384224  0
F  F203  1  0.83110482  0.89441490  0.67750963  1  -0.633513  0  -0.083322  -0.108311  0  1.378383  0
