# generated using pymatgen
data_Na2CdH15C7N7O10
_symmetry_space_group_name_H-M   'P 1'
_cell_length_a   6.88690269
_cell_length_b   10.64795862
_cell_length_c   13.19699270
_cell_angle_alpha   113.79104032
_cell_angle_beta   104.62857884
_cell_angle_gamma   90.00923896
_symmetry_Int_Tables_number   1
_chemical_formula_structural   Na2CdH15C7N7O10
_chemical_formula_sum   'Na4 Cd2 H30 C14 N14 O20'
_cell_volume   851.10227491
_cell_formula_units_Z   2
loop_
 _symmetry_equiv_pos_site_id
 _symmetry_equiv_pos_as_xyz
  1  'x, y, z'
loop_
 _atom_site_type_symbol
 _atom_site_label
 _atom_site_symmetry_multiplicity
 _atom_site_fract_x
 _atom_site_fract_y
 _atom_site_fract_z
 _atom_site_occupancy
 _atom_site_hle17_bader_spin_density
 _atom_site_hle17_ddec_charge
 _atom_site_hle17_ddec_spin_density
 _atom_site_hle17_ddec_sum_bond_order
 _atom_site_hle17_magmom
 _atom_site_hse06_10hf_bader_spin_density
 _atom_site_hse06_10hf_ddec_charge
 _atom_site_hse06_10hf_ddec_spin_density
 _atom_site_hse06_10hf_ddec_sum_bond_order
 _atom_site_hse06_10hf_magmom
 _atom_site_hse06_bader_spin_density
 _atom_site_hse06_ddec_charge
 _atom_site_hse06_ddec_spin_density
 _atom_site_hse06_ddec_sum_bond_order
 _atom_site_hse06_magmom
 _atom_site_pbe_bader_spin_density
 _atom_site_pbe_cm5_charge
 _atom_site_pbe_ddec_charge
 _atom_site_pbe_ddec_spin_density
 _atom_site_pbe_ddec_sum_bond_order
 _atom_site_pbe_magmom
Na  Na0  1  0.38549556  0.33315161  0.41850576  1  0  0.88791  0  0.391598  0  0  0.844384  0  0.544228  0  0  0.85345  0  0.523098  0  0  0.667515  0.83772  0  0.559421  0
Na  Na1  1  0.11447400  0.91458885  0.58147075  1  0  0.887944  0  0.391243  0  0  0.844619  0  0.543692  0  0  0.853617  0  0.522609  0  0  0.667505  0.837881  0  0.558947  0
Na  Na2  1  0.61452225  0.66684372  0.58149928  1  0  0.887914  0  0.391584  0  0  0.844409  0  0.544202  0  0  0.853471  0  0.523069  0  0  0.667555  0.83776  0  0.55936  0
Na  Na3  1  0.88553685  0.08540957  0.41852755  1  0  0.88796  0  0.391226  0  0  0.844617  0  0.543687  0  0  0.853616  0  0.522605  0  0  0.667477  0.837889  0  0.558929  0
Cd  Cd4  1  0.24995236  0.92588017  0.99998868  1  0  1.095564  0  1.86109  0  0  0.915826  0  2.324407  0  0  0.964966  0  2.280874  0  0  0.800945  0.881885  0  2.353908  0
Cd  Cd5  1  0.75000828  0.07411417  0.00000090  1  0  1.095553  0  1.860969  0  0  0.915832  0  2.324222  0  0  0.964976  0  2.28069  0  0  0.800924  0.881891  0  2.353723  0
H  H6  1  0.96873034  0.20461368  0.27556511  1  0  0.418731  0  0.885423  0  0  0.389324  0  0.947617  0  0  0.398741  0  0.933861  0  0  0.293862  0.382635  0  0.957405  0
H  H7  1  0.53130969  0.92903350  0.72437346  1  0  0.417701  0  0.886806  0  0  0.388786  0  0.948052  0  0  0.398187  0  0.934334  0  0  0.293663  0.382127  0  0.957784  0
H  H8  1  0.03127794  0.79539611  0.72443882  1  0  0.418744  0  0.885417  0  0  0.389328  0  0.947624  0  0  0.398748  0  0.933861  0  0  0.293874  0.382637  0  0.957413  0
H  H9  1  0.46868830  0.07095974  0.27560934  1  0  0.417619  0  0.886934  0  0  0.38867  0  0.948252  0  0  0.398072  0  0.93453  0  0  0.293562  0.382012  0  0.957984  0
H  H10  1  0.11342112  0.08897022  0.27189237  1  0  0.418191  0  0.881953  0  0  0.386807  0  0.948289  0  0  0.396341  0  0.934257  0  0  0.295559  0.379997  0  0.958319  0
H  H11  1  0.38659617  0.81710483  0.72811299  1  0  0.417929  0  0.881797  0  0  0.38659  0  0.948406  0  0  0.396126  0  0.93436  0  0  0.295346  0.379791  0  0.958438  0
H  H12  1  0.88657711  0.91103339  0.72810746  1  0  0.418258  0  0.881866  0  0  0.38681  0  0.948268  0  0  0.396363  0  0.934227  0  0  0.295555  0.379999  0  0.958298  0
H  H13  1  0.61340656  0.18289877  0.27188592  1  0  0.417903  0  0.88184  0  0  0.386578  0  0.948418  0  0  0.396114  0  0.934373  0  0  0.295328  0.37978  0  0.958449  0
H  H14  1  0.53773236  0.27011973  0.63924465  1  0  0.41766  0  0.889065  0  0  0.385922  0  0.954418  0  0  0.395816  0  0.939951  0  0  0.29622  0.378944  0  0.964585  0
H  H15  1  0.96215689  0.63084218  0.36083016  1  0  0.418017  0  0.888641  0  0  0.38622  0  0.954085  0  0  0.396113  0  0.939612  0  0  0.296592  0.379236  0  0.964278  0
H  H16  1  0.46225031  0.72988082  0.36076274  1  0  0.417734  0  0.889013  0  0  0.385968  0  0.954392  0  0  0.395873  0  0.93992  0  0  0.296269  0.378988  0  0.964561  0
H  H17  1  0.03783938  0.36915008  0.63917483  1  0  0.418065  0  0.888564  0  0  0.386266  0  0.954011  0  0  0.396161  0  0.939534  0  0  0.29662  0.379281  0  0.964206  0
H  H18  1  0.36723376  0.36978629  0.64112494  1  0  0.423447  0  0.873224  0  0  0.393077  0  0.936027  0  0  0.402393  0  0.922394  0  0  0.302743  0.386543  0  0.94557  0
H  H19  1  0.13259786  0.72860782  0.35882585  1  0  0.42356  0  0.873204  0  0  0.393601  0  0.935221  0  0  0.402891  0  0.921639  0  0  0.302964  0.387064  0  0.944763  0
H  H20  1  0.63275210  0.63021527  0.35887714  1  0  0.42359  0  0.873026  0  0  0.393218  0  0.935825  0  0  0.402534  0  0.922192  0  0  0.302796  0.386685  0  0.945366  0
H  H21  1  0.86739886  0.27137823  0.64117112  1  0  0.423521  0  0.873243  0  0  0.393531  0  0.935314  0  0  0.40282  0  0.921733  0  0  0.302917  0.386995  0  0.944855  0
H  H22  1  0.76635611  0.44985206  0.42003959  1  0  0.423046  0  0.875529  0  0  0.391686  0  0.939256  0  0  0.403123  0  0.922246  0  0  0.293214  0.383554  0  0.951351  0
H  H23  1  0.73353725  0.02994273  0.58003610  1  0  0.423056  0  0.875656  0  0  0.392221  0  0.93836  0  0  0.403612  0  0.921429  0  0  0.293539  0.384096  0  0.950445  0
H  H24  1  0.23364988  0.55014431  0.57996347  1  0  0.423015  0  0.875569  0  0  0.391671  0  0.939267  0  0  0.403107  0  0.922258  0  0  0.293213  0.383539  0  0.951364  0
H  H25  1  0.26645462  0.97005882  0.41996298  1  0  0.423047  0  0.875679  0  0  0.392239  0  0.938331  0  0  0.403627  0  0.921407  0  0  0.293571  0.384113  0  0.950417  0
H  H26  1  0.79473198  0.39658624  0.52039956  1  0  0.427082  0  0.874241  0  0  0.399992  0  0.931606  0  0  0.410277  0  0.91638  0  0  0.292783  0.39266  0  0.942465  0
H  H27  1  0.70529419  0.87633355  0.47966058  1  0  0.427564  0  0.873405  0  0  0.399774  0  0.931834  0  0  0.410097  0  0.916568  0  0  0.292844  0.392418  0  0.942717  0
H  H28  1  0.20529430  0.60340597  0.47960257  1  0  0.427081  0  0.874268  0  0  0.40002  0  0.931574  0  0  0.410305  0  0.916348  0  0  0.292797  0.392692  0  0.942425  0
H  H29  1  0.29470518  0.12366799  0.52034328  1  0  0.427564  0  0.873402  0  0  0.399779  0  0.931822  0  0  0.4101  0  0.916561  0  0  0.292837  0.392424  0  0.942703  0
H  H30  1  0.23213409  0.37012959  0.81936166  1  0  0.113576  0  0.973658  0  0  0.11737  0  1.045057  0  0  0.121365  0  1.042065  0  0  0.110749  0.114618  0  1.047018  0
H  H31  1  0.26771431  0.55063350  0.18039490  1  0  0.112963  0  0.974559  0  0  0.117485  0  1.045103  0  0  0.121508  0  1.042076  0  0  0.110791  0.114705  0  1.04708  0
H  H32  1  0.76790632  0.62987500  0.18064559  1  0  0.113598  0  0.973828  0  0  0.117425  0  1.045129  0  0  0.121413  0  1.042148  0  0  0.110784  0.114676  0  1.047084  0
H  H33  1  0.73233378  0.44937212  0.81961294  1  0  0.112787  0  0.974703  0  0  0.117404  0  1.045163  0  0  0.121425  0  1.042139  0  0  0.11078  0.114625  0  1.047138  0
H  H34  1  0.25007631  0.34266788  0.99989333  1  0  0.106639  0  0.939666  0  0  0.114112  0  1.001642  0  0  0.116075  0  1.001777  0  0  0.111781  0.112624  0  1.001712  0
H  H35  1  0.75004035  0.65734386  0.00012786  1  0  0.106611  0  0.939981  0  0  0.114119  0  1.001839  0  0  0.116084  0  1.001972  0  0  0.111849  0.112619  0  1.001936  0
C  C36  1  0.23512349  0.61761592  0.79555992  1  0  0.647132  0  3.875771  0  0  0.58135  0  4.186884  0  0  0.614888  0  4.179567  0  0  0.225737  0.558671  0  4.19092  0
C  C37  1  0.26480843  0.82181839  0.20427138  1  0  0.647642  0  3.876028  0  0  0.582392  0  4.186661  0  0  0.615931  0  4.179357  0  0  0.226014  0.559716  0  4.190692  0
C  C38  1  0.76483633  0.38238257  0.20443923  1  0  0.647478  0  3.875151  0  0  0.581488  0  4.186599  0  0  0.615027  0  4.179282  0  0  0.225904  0.558811  0  4.190636  0
C  C39  1  0.73516657  0.17818113  0.79573162  1  0  0.64741  0  3.876622  0  0  0.582122  0  4.187246  0  0  0.615669  0  4.179942  0  0  0.22582  0.559446  0  4.191275  0
C  C40  1  0.24187532  0.59329930  0.90219393  1  0  0.095629  0  3.716473  0  0  0.10027  0  3.962057  0  0  0.100144  0  3.981934  0  0  0.112249  0.100161  0  3.948775  0
C  C41  1  0.25788616  0.69096301  0.09755167  1  0  0.096555  0  3.717373  0  0  0.100932  0  3.962951  0  0  0.100809  0  3.98283  0  0  0.113088  0.100812  0  3.949668  0
C  C42  1  0.75809386  0.40670125  0.09780637  1  0  0.09583  0  3.716347  0  0  0.100495  0  3.962006  0  0  0.100363  0  3.981884  0  0  0.112324  0.100389  0  3.948729  0
C  C43  1  0.74209670  0.30903855  0.90244925  1  0  0.096882  0  3.717211  0  0  0.101347  0  3.962661  0  0  0.101221  0  3.98254  0  0  0.113239  0.101231  0  3.949374  0
C  C44  1  0.24002740  0.46032805  0.89883264  1  0  -0.098978  0  3.687256  0  0  -0.124372  0  3.939999  0  0  -0.127509  0  3.959885  0  0  -0.071592  -0.122254  0  3.926672  0
C  C45  1  0.25978053  0.56135123  0.10091502  1  0  -0.098864  0  3.688186  0  0  -0.124725  0  3.940742  0  0  -0.127876  0  3.960627  0  0  -0.072126  -0.122576  0  3.927412  0
C  C46  1  0.75999015  0.53967450  0.10117244  1  0  -0.099129  0  3.687646  0  0  -0.124542  0  3.94038  0  0  -0.127676  0  3.960267  0  0  -0.071579  -0.122425  0  3.927054  0
C  C47  1  0.74024655  0.43865441  0.89909157  1  0  -0.098682  0  3.688193  0  0  -0.124699  0  3.940717  0  0  -0.127853  0  3.960612  0  0  -0.072077  -0.122546  0  3.927378  0
C  C48  1  0.25001068  0.44493182  0.99989141  1  0  0.000123  0  3.68844  0  0  -0.017554  0  3.94533  0  0  -0.017151  0  3.965991  0  0  -0.065047  -0.017586  0  3.931363  0
C  C49  1  0.75004226  0.55507586  0.00011926  1  0  0.000113  0  3.689174  0  0  -0.017528  0  3.946054  0  0  -0.017125  0  3.966717  0  0  -0.065144  -0.017564  0  3.93208  0
N  N50  1  0.24987922  0.70486191  0.99988412  1  0  -0.327975  0  3.281612  0  0  -0.26756  0  3.526589  0  0  -0.282653  0  3.548285  0  0  -0.312127  -0.257685  0  3.512207  0
N  N51  1  0.75007945  0.29513865  0.00011403  1  0  -0.32819  0  3.281617  0  0  -0.267752  0  3.526514  0  0  -0.282833  0  3.548201  0  0  -0.312305  -0.257886  0  3.51214  0
N  N52  1  0.10921833  0.13216526  0.07942846  1  0  -0.604579  0  2.773184  0  0  -0.562254  0  3.083473  0  0  -0.58798  0  3.090187  0  0  -0.321794  -0.54476  0  3.078943  0
N  N53  1  0.39084302  0.05278772  0.92061132  1  0  -0.603737  0  2.773682  0  0  -0.561351  0  3.083763  0  0  -0.587089  0  3.090538  0  0  -0.321289  -0.543871  0  3.079288  0
N  N54  1  0.89077949  0.86784451  0.92055816  1  0  -0.604638  0  2.773196  0  0  -0.562248  0  3.083419  0  0  -0.587987  0  3.090153  0  0  -0.321841  -0.544751  0  3.078882  0
N  N55  1  0.60911718  0.94719524  0.07936921  1  0  -0.603593  0  2.774259  0  0  -0.56119  0  3.084301  0  0  -0.586929  0  3.091083  0  0  -0.321131  -0.543709  0  3.079819  0
N  N56  1  0.19969210  0.24176669  0.14899682  1  0  0.406478  0  4.254731  0  0  0.436467  0  4.5405  0  0  0.453114  0  4.569739  0  0  0.071944  0.425291  0  4.520911  0
N  N57  1  0.30042245  0.09273704  0.85097976  1  0  0.405678  0  4.253967  0  0  0.435728  0  4.539675  0  0  0.452361  0  4.56896  0  0  0.071157  0.424548  0  4.520067  0
N  N58  1  0.80030580  0.75823483  0.85099471  1  0  0.406528  0  4.254764  0  0  0.436492  0  4.540551  0  0  0.453139  0  4.569783  0  0  0.071952  0.425316  0  4.520956  0
N  N59  1  0.69956346  0.90726448  0.14900337  1  0  0.405553  0  4.254215  0  0  0.435609  0  4.539911  0  0  0.452243  0  4.569199  0  0  0.071167  0.424429  0  4.5203  0
N  N60  1  0.28658916  0.34881762  0.21779120  1  0  -0.436763  0  2.403569  0  0  -0.433609  0  2.6388  0  0  -0.440824  0  2.646203  0  0  -0.23441  -0.428715  0  2.634132  0
N  N61  1  0.21355322  0.13091293  0.78212946  1  0  -0.43666  0  2.401969  0  0  -0.433772  0  2.637688  0  0  -0.440836  0  2.644892  0  0  -0.234165  -0.428872  0  2.633017  0
N  N62  1  0.71341039  0.65118495  0.78220999  1  0  -0.436723  0  2.403728  0  0  -0.433589  0  2.638981  0  0  -0.440793  0  2.646374  0  0  -0.234393  -0.428699  0  2.634308  0
N  N63  1  0.78647285  0.86910404  0.21786173  1  0  -0.436654  0  2.401589  0  0  -0.43382  0  2.637365  0  0  -0.440885  0  2.644565  0  0  -0.234308  -0.428925  0  2.632704  0
O  O64  1  0.24418186  0.74163090  0.80574892  1  0  -0.646513  0  2.078436  0  0  -0.573674  0  2.317249  0  0  -0.601099  0  2.307536  0  0  -0.300787  -0.554291  0  2.323299  0
O  O65  1  0.25581671  0.93572635  0.19423499  1  0  -0.647053  0  2.07877  0  0  -0.57444  0  2.31725  0  0  -0.601915  0  2.307611  0  0  -0.301172  -0.555073  0  2.32328  0
O  O66  1  0.75577478  0.25836657  0.19424871  1  0  -0.646708  0  2.078277  0  0  -0.573818  0  2.317201  0  0  -0.601245  0  2.307486  0  0  -0.300871  -0.554436  0  2.323256  0
O  O67  1  0.74415096  0.06427421  0.80576890  1  0  -0.647026  0  2.079066  0  0  -0.574395  0  2.317529  0  0  -0.601892  0  2.30792  0  0  -0.301047  -0.55503  0  2.323559  0
O  O68  1  0.21944801  0.51225265  0.70182696  1  0  -0.642967  0  2.057398  0  0  -0.568586  0  2.274856  0  0  -0.595186  0  2.264578  0  0  -0.289562  -0.550049  0  2.281459  0
O  O69  1  0.28059498  0.81001335  0.29795186  1  0  -0.642731  0  2.056683  0  0  -0.569301  0  2.274235  0  0  -0.595883  0  2.264033  0  0  -0.289578  -0.550741  0  2.280775  0
O  O70  1  0.78051199  0.48774688  0.29817103  1  0  -0.643101  0  2.057127  0  0  -0.568641  0  2.274705  0  0  -0.595235  0  2.264417  0  0  -0.289612  -0.55011  0  2.281319  0
O  O71  1  0.71938081  0.18998202  0.70204915  1  0  -0.642722  0  2.056919  0  0  -0.569285  0  2.274502  0  0  -0.595862  0  2.264285  0  0  -0.289542  -0.550728  0  2.281046  0
O  O72  1  0.07107161  0.17302787  0.32458387  1  0  -0.900045  0  1.795919  0  0  -0.853526  0  1.963198  0  0  -0.869775  0  1.93309  0  0  -0.678442  -0.842121  0  1.9846  0
O  O73  1  0.42910267  0.84834052  0.67537976  1  0  -0.898906  0  1.797418  0  0  -0.852771  0  1.964914  0  0  -0.868987  0  1.934817  0  0  -0.678098  -0.841422  0  1.986221  0
O  O74  1  0.92894118  0.82698192  0.67541686  1  0  -0.900163  0  1.795834  0  0  -0.853557  0  1.963266  0  0  -0.86984  0  1.933077  0  0  -0.678464  -0.842152  0  1.984673  0
O  O75  1  0.57089645  0.15165067  0.32461086  1  0  -0.898862  0  1.797586  0  0  -0.852662  0  1.964974  0  0  -0.868884  0  1.934886  0  0  -0.677975  -0.841312  0  1.98628  0
O  O76  1  0.42390051  0.29329350  0.58934898  1  0  -0.853833  0  1.797023  0  0  -0.796739  0  1.953632  0  0  -0.81518  0  1.923722  0  0  -0.619563  -0.783579  0  1.974535  0
O  O77  1  0.07587699  0.70402768  0.41065800  1  0  -0.854236  0  1.796846  0  0  -0.79762  0  1.953382  0  0  -0.815961  0  1.923376  0  0  -0.620389  -0.784465  0  1.974341  0
O  O78  1  0.57609020  0.70671012  0.41065592  1  0  -0.854049  0  1.796845  0  0  -0.796923  0  1.95355  0  0  -0.815382  0  1.923594  0  0  -0.619647  -0.783764  0  1.974454  0
O  O79  1  0.92413667  0.29595216  0.58934223  1  0  -0.854317  0  1.796939  0  0  -0.797627  0  1.953468  0  0  -0.815972  0  1.923461  0  0  -0.620401  -0.784472  0  1.974432  0
O  O80  1  0.71988813  0.45638063  0.48669550  1  0  -0.932745  0  1.781336  0  0  -0.886432  0  1.955056  0  0  -0.902924  0  1.920167  0  0  -0.71425  -0.874737  0  1.979683  0
O  O81  1  0.78017325  0.96984936  0.51345170  1  0  -0.933138  0  1.780486  0  0  -0.886671  0  1.955082  0  0  -0.903118  0  1.920059  0  0  -0.714453  -0.874921  0  1.979834  0
O  O82  1  0.28013435  0.54361572  0.51331277  1  0  -0.93273  0  1.781437  0  0  -0.886436  0  1.95516  0  0  -0.902929  0  1.920271  0  0  -0.714247  -0.874745  0  1.979785  0
O  O83  1  0.21983026  0.03015011  0.48655204  1  0  -0.933166  0  1.78054  0  0  -0.886704  0  1.955122  0  0  -0.903151  0  1.920104  0  0  -0.714487  -0.874953  0  1.979874  0
