# generated using pymatgen
data_BaH6C6S2O9
_symmetry_space_group_name_H-M   'P 1'
_cell_length_a   7.23631877
_cell_length_b   8.66872783
_cell_length_c   9.07971064
_cell_angle_alpha   81.91041029
_cell_angle_beta   95.31182466
_cell_angle_gamma   85.36100447
_symmetry_Int_Tables_number   1
_chemical_formula_structural   BaH6C6S2O9
_chemical_formula_sum   'Ba2 H12 C12 S4 O18'
_cell_volume   558.92485807
_cell_formula_units_Z   2
loop_
 _symmetry_equiv_pos_site_id
 _symmetry_equiv_pos_as_xyz
  1  'x, y, z'
loop_
 _atom_site_type_symbol
 _atom_site_label
 _atom_site_symmetry_multiplicity
 _atom_site_fract_x
 _atom_site_fract_y
 _atom_site_fract_z
 _atom_site_occupancy
 _atom_site_hle17_bader_spin_density
 _atom_site_hle17_ddec_charge
 _atom_site_hle17_ddec_spin_density
 _atom_site_hle17_ddec_sum_bond_order
 _atom_site_hle17_magmom
 _atom_site_hse06_10hf_bader_spin_density
 _atom_site_hse06_10hf_ddec_charge
 _atom_site_hse06_10hf_ddec_spin_density
 _atom_site_hse06_10hf_ddec_sum_bond_order
 _atom_site_hse06_10hf_magmom
 _atom_site_hse06_bader_spin_density
 _atom_site_hse06_ddec_charge
 _atom_site_hse06_ddec_spin_density
 _atom_site_hse06_ddec_sum_bond_order
 _atom_site_hse06_magmom
 _atom_site_pbe_bader_spin_density
 _atom_site_pbe_cm5_charge
 _atom_site_pbe_ddec_charge
 _atom_site_pbe_ddec_spin_density
 _atom_site_pbe_ddec_sum_bond_order
 _atom_site_pbe_magmom
Ba  Ba0  1  0.27334570  0.22362115  0.42525930  1  0  1.70892  0  1.109977  0  0  1.565688  0  1.512299  0  0  1.602447  0  1.467012  0  0  0.994914  1.538535  0  1.544109  0
Ba  Ba1  1  0.72665748  0.77637494  0.57474191  1  0  1.708921  0  1.109945  0  0  1.565685  0  1.512262  0  0  1.602444  0  1.466971  0  0  0.994904  1.538519  0  1.544091  0
H  H2  1  0.25266600  0.26638954  0.01963893  1  0  0.404116  0  0.849589  0  0  0.384037  0  0.910518  0  0  0.393721  0  0.899711  0  0  0.323598  0.377258  0  0.918055  0
H  H3  1  0.74733294  0.73361002  0.98036611  1  0  0.404112  0  0.849536  0  0  0.38402  0  0.910498  0  0  0.393704  0  0.899691  0  0  0.323579  0.377241  0  0.918035  0
H  H4  1  0.09770846  0.87973148  0.35454830  1  0  0.401305  0  0.869419  0  0  0.374484  0  0.942087  0  0  0.385293  0  0.929918  0  0  0.325645  0.366901  0  0.950673  0
H  H5  1  0.90229243  0.12026108  0.64545442  1  0  0.401236  0  0.869345  0  0  0.374417  0  0.942029  0  0  0.385228  0  0.929863  0  0  0.32562  0.366835  0  0.950632  0
H  H6  1  0.58843377  0.38936643  0.64982426  1  0  0.423662  0  0.867725  0  0  0.397264  0  0.924513  0  0  0.406512  0  0.910853  0  0  0.306053  0.390698  0  0.93423  0
H  H7  1  0.41157131  0.61063438  0.35017196  1  0  0.423667  0  0.867722  0  0  0.397277  0  0.924481  0  0  0.406523  0  0.910823  0  0  0.306074  0.390715  0  0.93419  0
H  H8  1  0.39551779  0.45158743  0.68470828  1  0  0.443642  0  0.837823  0  0  0.417001  0  0.893684  0  0  0.4267  0  0.879311  0  0  0.309729  0.410128  0  0.903871  0
H  H9  1  0.60448753  0.54841335  0.31529126  1  0  0.44371  0  0.837732  0  0  0.41707  0  0.893592  0  0  0.426772  0  0.879215  0  0  0.309761  0.410198  0  0.903779  0
H  H10  1  0.13516798  0.64352913  0.93596747  1  0  0.13128  0  0.955938  0  0  0.134332  0  1.027547  0  0  0.138888  0  1.023207  0  0  0.116062  0.131089  0  1.030731  0
H  H11  1  0.86483477  0.35646932  0.06403120  1  0  0.131287  0  0.955929  0  0  0.134318  0  1.027579  0  0  0.138875  0  1.023238  0  0  0.11606  0.131078  0  1.030752  0
H  H12  1  0.34494134  0.09633889  0.84079487  1  0  0.135566  0  0.941023  0  0  0.14229  0  1.006334  0  0  0.146646  0  1.00268  0  0  0.122207  0.139283  0  1.00878  0
H  H13  1  0.65504852  0.90366651  0.15920803  1  0  0.135488  0  0.9411  0  0  0.142278  0  1.006331  0  0  0.146633  0  1.002676  0  0  0.122193  0.139271  0  1.008777  0
C  C14  1  0.14054990  0.78504734  0.11379620  1  0  -0.256147  0  3.772133  0  0  -0.233562  0  4.031339  0  0  -0.244043  0  4.051094  0  0  -0.03648  -0.227486  0  4.019185  0
C  C15  1  0.85944824  0.21495230  0.88619777  1  0  -0.256268  0  3.772391  0  0  -0.233665  0  4.031522  0  0  -0.244152  0  4.05128  0  0  -0.036523  -0.227609  0  4.019391  0
C  C16  1  0.17222379  0.75306545  0.97140471  1  0  -0.04848  0  3.737851  0  0  -0.095953  0  4.00421  0  0  -0.089914  0  4.018389  0  0  -0.082732  -0.100591  0  3.995971  0
C  C17  1  0.82777727  0.24693418  0.02859155  1  0  -0.04847  0  3.737787  0  0  -0.095946  0  4.004096  0  0  -0.089894  0  4.01828  0  0  -0.082733  -0.100577  0  3.995866  0
C  C18  1  0.25026093  0.86407966  0.87636401  1  0  -0.11007  0  3.754568  0  0  -0.085879  0  4.014798  0  0  -0.09306  0  4.034002  0  0  -0.021195  -0.082215  0  4.002947  0
C  C19  1  0.74973570  0.13592577  0.12363688  1  0  -0.110012  0  3.754505  0  0  -0.085767  0  4.014663  0  0  -0.092981  0  4.03391  0  0  -0.021158  -0.082104  0  4.002812  0
C  C20  1  0.28959411  0.00830177  0.91812050  1  0  -0.162588  0  3.734389  0  0  -0.204872  0  4.00179  0  0  -0.203219  0  4.018542  0  0  -0.090067  -0.204849  0  3.989417  0
C  C21  1  0.71039692  0.99170482  0.08188117  1  0  -0.162421  0  3.734367  0  0  -0.204804  0  4.001798  0  0  -0.203143  0  4.018564  0  0  -0.090026  -0.204785  0  3.989428  0
C  C22  1  0.25487210  0.04023777  0.05962724  1  0  0.220803  0  3.789888  0  0  0.213827  0  4.058778  0  0  0.21753  0  4.07717  0  0  0.076921  0.211092  0  4.045508  0
C  C23  1  0.74512523  0.95976297  0.94037649  1  0  0.220683  0  3.789977  0  0  0.213722  0  4.058867  0  0  0.217424  0  4.077259  0  0  0.076874  0.210988  0  4.045593  0
C  C24  1  0.18992328  0.92457266  0.16237679  1  0  0.257262  0  3.777788  0  0  0.235425  0  4.038232  0  0  0.247371  0  4.053754  0  0  0.097184  0.227758  0  4.0276  0
C  C25  1  0.81007175  0.07542340  0.83762640  1  0  0.2572  0  3.778198  0  0  0.235402  0  4.03855  0  0  0.247352  0  4.054079  0  0  0.097145  0.227745  0  4.027913  0
S  S26  1  0.02434381  0.64941995  0.22843718  1  0  1.365227  0  5.588355  0  0  1.261852  0  6.108403  0  0  1.310842  0  6.083346  0  0  0.549138  1.228211  0  6.12509  0
S  S27  1  0.97565750  0.35057618  0.77155735  1  0  1.365155  0  5.588541  0  0  1.261802  0  6.108537  0  0  1.310794  0  6.083487  0  0  0.549122  1.228172  0  6.12522  0
S  S28  1  0.28630272  0.82217292  0.69519278  1  0  1.346025  0  5.633537  0  0  1.251986  0  6.143082  0  0  1.300103  0  6.118765  0  0  0.53289  1.218886  0  6.158588  0
S  S29  1  0.71370111  0.17783019  0.30480861  1  0  1.346078  0  5.633341  0  0  1.252029  0  6.142869  0  0  1.300154  0  6.118557  0  0  0.532911  1.218928  0  6.15838  0
O  O30  1  0.16804406  0.52388143  0.29951785  1  0  -0.732501  0  1.972642  0  0  -0.66918  0  2.226775  0  0  -0.691661  0  2.209523  0  0  -0.379102  -0.653155  0  2.238274  0
O  O31  1  0.83195739  0.47611353  0.70047684  1  0  -0.732452  0  1.972729  0  0  -0.669115  0  2.226842  0  0  -0.691597  0  2.209592  0  0  -0.379037  -0.653086  0  2.238333  0
O  O32  1  0.94779132  0.73840965  0.34021105  1  0  -0.722661  0  2.033765  0  0  -0.661975  0  2.293904  0  0  -0.684392  0  2.279177  0  0  -0.360398  -0.646473  0  2.304488  0
O  O33  1  0.05220531  0.26158176  0.65978839  1  0  -0.722631  0  2.033881  0  0  -0.661965  0  2.294051  0  0  -0.684385  0  2.279323  0  0  -0.360412  -0.646466  0  2.304633  0
O  O34  1  0.87897086  0.59467772  0.13065508  1  0  -0.641365  0  1.941891  0  0  -0.583206  0  2.174259  0  0  -0.60487  0  2.159943  0  0  -0.307806  -0.568322  0  2.183968  0
O  O35  1  0.12103332  0.40531956  0.86934269  1  0  -0.64129  0  1.941732  0  0  -0.58318  0  2.17412  0  0  -0.604842  0  2.1598  0  0  -0.307795  -0.568308  0  2.183834  0
O  O36  1  0.40507082  0.67337452  0.71129618  1  0  -0.714992  0  1.969525  0  0  -0.659377  0  2.213667  0  0  -0.681095  0  2.198422  0  0  -0.355595  -0.643968  0  2.223512  0
O  O37  1  0.59492776  0.32662739  0.28870744  1  0  -0.715016  0  1.969503  0  0  -0.659418  0  2.213668  0  0  -0.681137  0  2.19842  0  0  -0.355606  -0.64401  0  2.223514  0
O  O38  1  0.10155294  0.81483914  0.61681622  1  0  -0.717048  0  2.00859  0  0  -0.664016  0  2.273505  0  0  -0.685838  0  2.258509  0  0  -0.370998  -0.648143  0  2.283854  0
O  O39  1  0.89845029  0.18516634  0.38318043  1  0  -0.717075  0  2.008562  0  0  -0.664035  0  2.273472  0  0  -0.685856  0  2.258473  0  0  -0.370997  -0.648163  0  2.283825  0
O  O40  1  0.38404640  0.95261850  0.62454048  1  0  -0.766763  0  2.009561  0  0  -0.705752  0  2.275831  0  0  -0.728694  0  2.261959  0  0  -0.402804  -0.689822  0  2.284211  0
O  O41  1  0.61596050  0.04738342  0.37546336  1  0  -0.766773  0  2.009412  0  0  -0.705769  0  2.275687  0  0  -0.728711  0  2.261814  0  0  -0.40281  -0.689837  0  2.284068  0
O  O42  1  0.28074954  0.18132009  0.10650387  1  0  -0.546958  0  2.155767  0  0  -0.496525  0  2.377011  0  0  -0.514795  0  2.369789  0  0  -0.360101  -0.48329  0  2.381367  0
O  O43  1  0.71924500  0.81867948  0.89349773  1  0  -0.546941  0  2.155713  0  0  -0.496527  0  2.376972  0  0  -0.514798  0  2.369751  0  0  -0.360086  -0.483287  0  2.381315  0
O  O44  1  0.17460646  0.95691377  0.30251540  1  0  -0.543951  0  2.227885  0  0  -0.49148  0  2.461458  0  0  -0.510091  0  2.451771  0  0  -0.366491  -0.478008  0  2.467123  0
O  O45  1  0.82538984  0.04308461  0.69748972  1  0  -0.543761  0  2.227942  0  0  -0.491335  0  2.461526  0  0  -0.509928  0  2.4518  0  0  -0.366417  -0.477872  0  2.467185  0
O  O46  1  0.45873436  0.36355653  0.64585419  1  0  -0.87431  0  1.764904  0  0  -0.826412  0  1.926276  0  0  -0.844392  0  1.897006  0  0  -0.620578  -0.813513  0  1.946724  0
O  O47  1  0.54126928  0.63644544  0.35414294  1  0  -0.8744  0  1.764883  0  0  -0.826489  0  1.926229  0  0  -0.844467  0  1.896955  0  0  -0.620635  -0.813591  0  1.946676  0
