# generated using pymatgen
data_Zr3H17(CO)26
_symmetry_space_group_name_H-M   'P 1'
_cell_length_a   14.83450538
_cell_length_b   14.86414644
_cell_length_c   14.86380056
_cell_angle_alpha   60.02435610
_cell_angle_beta   60.01415980
_cell_angle_gamma   60.00960897
_symmetry_Int_Tables_number   1
_chemical_formula_structural   Zr3H17(CO)26
_chemical_formula_sum   'Zr6 H34 C52 O52'
_cell_volume   2318.38635520
_cell_formula_units_Z   2
loop_
 _symmetry_equiv_pos_site_id
 _symmetry_equiv_pos_as_xyz
  1  'x, y, z'
loop_
 _atom_site_type_symbol
 _atom_site_label
 _atom_site_symmetry_multiplicity
 _atom_site_fract_x
 _atom_site_fract_y
 _atom_site_fract_z
 _atom_site_occupancy
 _atom_site_pbe_bader_charge
 _atom_site_pbe_bader_spin_density
 _atom_site_pbe_cm5_charge
 _atom_site_pbe_ddec_charge
 _atom_site_pbe_ddec_spin_density
 _atom_site_pbe_ddec_sum_bond_order
 _atom_site_pbe_magmom
Zr  Zr0  1  0.87907669  0.88113671  0.61940425  1  2.633001  0  1.631567  2.365656  0  2.736053  0
Zr  Zr1  1  0.11566770  0.11891721  0.38164769  1  2.635362  0  1.645899  2.364869  0  2.791635  0
Zr  Zr2  1  0.11565588  0.88275016  0.61785051  1  2.629436  0  1.646032  2.365388  0  2.78806  0
Zr  Zr3  1  0.87899380  0.12057346  0.37998419  1  2.634876  0  1.631647  2.365548  0  2.737069  0
Zr  Zr4  1  0.11514186  0.88252889  0.38132300  1  2.634851  0  1.635726  2.36733  0  2.766969  0
Zr  Zr5  1  0.87862763  0.11937373  0.61809970  1  2.628012  0  1.63666  2.365087  0  2.772338  0
H  H6  1  0.08992416  0.72038258  0.59412015  1  0.613474  0  0.337266  0.432639  0  0.845164  0
H  H7  1  0.09001614  0.09507719  0.21923029  1  0.621447  0  0.337299  0.432202  0  0.844707  0
H  H8  1  0.09147872  0.09413992  0.59288507  1  0.600985  0  0.336594  0.433113  0  0.842747  0
H  H9  1  0.71556590  0.09456869  0.59341613  1  0.60611  0  0.333851  0.428838  0  0.849772  0
H  H10  1  0.75062364  0.62736750  0.95930818  1  0.067118  0  0.100234  0.118489  0  0.991622  0
H  H11  1  0.83677834  0.54251653  0.87406211  1  0.075686  0  0.099302  0.116569  0  0.988924  0
H  H12  1  0.83703055  0.37453694  0.04199749  1  0.077629  0  0.099502  0.116818  0  0.989301  0
H  H13  1  0.75085264  0.45971049  0.12688892  1  0.071782  0  0.100229  0.118516  0  0.992098  0
H  H14  1  0.14655889  0.35051211  0.34411139  1  0.636964  0  0.310855  0.345392  0  0.977673  0
H  H15  1  0.84812841  0.65280423  0.65260083  1  0.636415  0  0.310468  0.343872  0  0.981746  0
H  H16  1  0.14892304  0.65586119  0.34246843  1  0.64493  0  0.309444  0.343101  0  0.978232  0
H  H17  1  0.84509177  0.34807088  0.65341279  1  0.636146  0  0.309157  0.3423  0  0.979511  0
H  H18  1  0.34488483  0.15263542  0.15334352  1  0.633905  0  0.310326  0.342973  0  0.982716  0
H  H19  1  0.65921858  0.84115821  0.85396681  1  0.626132  0  0.310916  0.345031  0  0.979945  0
H  H20  1  0.65212046  0.15247799  0.84898718  1  0.637277  0  0.309624  0.346347  0  0.973951  0
H  H21  1  0.34999072  0.84304445  0.15710868  1  0.623705  0  0.309549  0.343642  0  0.978285  0
H  H22  1  0.84467094  0.15418602  0.84716197  1  0.6323  0  0.308887  0.342497  0  0.978869  0
H  H23  1  0.14834691  0.84328709  0.15508365  1  0.647263  0  0.309516  0.343785  0  0.977343  0
H  H24  1  0.84767689  0.15359691  0.15182946  1  0.639076  0  0.310623  0.343678  0  0.981179  0
H  H25  1  0.14634129  0.84509643  0.84949336  1  0.628202  0  0.310827  0.344675  0  0.979064  0
H  H26  1  0.34937836  0.65801566  0.34232141  1  0.626261  0  0.309338  0.343218  0  0.97881  0
H  H27  1  0.65168788  0.34989864  0.65158347  1  0.635709  0  0.309733  0.343605  0  0.97768  0
H  H28  1  0.65883385  0.35506370  0.34015563  1  0.636901  0  0.311233  0.345423  0  0.977915  0
H  H29  1  0.34434360  0.65424000  0.65185764  1  0.632995  0  0.310538  0.343255  0  0.980792  0
H  H30  1  0.34722266  0.84563161  0.64932043  1  0.635462  0  0.309758  0.343011  0  0.978829  0
H  H31  1  0.65307113  0.15145800  0.34415532  1  0.636535  0  0.309447  0.343432  0  0.979664  0
H  H32  1  0.65315288  0.84565748  0.64987646  1  0.635032  0  0.309806  0.343101  0  0.977888  0
H  H33  1  0.34710700  0.15097184  0.34413963  1  0.641238  0  0.309498  0.343557  0  0.979233  0
H  H34  1  0.17975167  0.46973272  0.11286924  1  0.060777  0  0.10388  0.151639  0  0.982789  0
H  H35  1  0.18050925  0.33421799  0.16088150  1  0.060131  0  0.088075  0.126726  0  1.081719  0
H  H36  1  0.26239107  0.39008878  0.02526194  1  0.074738  0  0.102006  0.148341  0  0.988813  0
H  H37  1  0.26232804  0.52598772  0.88927203  1  0.077356  0  0.101862  0.147727  0  0.988932  0
H  H38  1  0.18032720  0.66188643  0.83412512  1  0.05501  0  0.087962  0.12683  0  1.080376  0
H  H39  1  0.17988592  0.61277853  0.96974044  1  0.061306  0  0.103776  0.151531  0  0.982111  0
C  C40  1  0.99628819  0.69672316  0.49618605  1  1.435343  0  0.233452  0.666437  0  4.045999  0
C  C41  1  0.30673762  0.99752980  0.19628659  1  1.42262  0  0.233659  0.664498  0  4.047124  0
C  C42  1  0.99554705  0.30869112  0.49881365  1  1.457984  0  0.233079  0.664124  0  4.050424  0
C  C43  1  0.69521155  0.99766897  0.80964766  1  1.406005  0  0.235449  0.668132  0  4.043321  0
C  C44  1  0.99653358  0.70095413  0.80522140  1  1.477358  0  0.244637  0.667193  0  4.040012  0
C  C45  1  0.69427753  0.99829919  0.49687979  1  1.428027  0  0.234647  0.666666  0  4.040355  0
C  C46  1  0.99637554  0.30614328  0.20013134  1  1.479143  0  0.244552  0.667669  0  4.041765  0
C  C47  1  0.30698056  0.99770579  0.49626737  1  1.427447  0  0.233438  0.664619  0  4.048513  0
C  C48  1  0.30654929  0.69744011  0.49647996  1  1.41231  0  0.233877  0.66541  0  4.046268  0
C  C49  1  0.99538778  0.99985786  0.80760063  1  1.453666  0  0.233515  0.664637  0  4.04935  0
C  C50  1  0.69497142  0.31086306  0.49656479  1  1.42459  0  0.235578  0.667933  0  4.044823  0
C  C51  1  0.99606493  0.99726873  0.19563220  1  1.416933  0  0.234297  0.665741  0  4.047296  0
C  C52  1  0.99661752  0.40633180  0.49897289  1  0.039391  0  -0.049162  -0.303098  0  4.022312  0
C  C53  1  0.99767465  0.59701495  0.49789401  1  0.016417  0  -0.049514  -0.304528  0  4.02152  0
C  C54  1  0.07906813  0.45511699  0.41447325  1  0.579385  0  0.074159  0.199292  0  4.058458  0
C  C55  1  0.91650697  0.54700336  0.58354648  1  0.557434  0  0.074598  0.199536  0  4.056942  0
C  C56  1  0.07970708  0.54950607  0.41396372  1  0.584376  0  0.073402  0.197094  0  4.05956  0
C  C57  1  0.91557877  0.45293256  0.58376695  1  0.603283  0  0.073661  0.197416  0  4.062398  0
C  C58  1  0.40555662  0.99734893  0.09835906  1  -0.034001  0  -0.049124  -0.3032  0  4.020557  0
C  C59  1  0.59748280  0.99699968  0.90843438  1  0.014139  0  -0.049737  -0.305843  0  4.020851  0
C  C60  1  0.45225191  0.08194915  0.04895886  1  0.619157  0  0.074255  0.199414  0  4.057505  0
C  C61  1  0.55100218  0.91219365  0.95799087  1  0.581708  0  0.074169  0.199441  0  4.052597  0
C  C62  1  0.54725943  0.08186762  0.95489435  1  0.59268  0  0.07384  0.197939  0  4.059808  0
C  C63  1  0.45553919  0.91275329  0.05159448  1  0.63124  0  0.073917  0.198314  0  4.060173  0
C  C64  1  0.99615842  0.99979567  0.90549908  1  0.029377  0  -0.049679  -0.30331  0  4.01894  0
C  C65  1  0.99717479  0.99877384  0.09615095  1  0.00848  0  -0.049353  -0.303875  0  4.023056  0
C  C66  1  0.91498966  0.08451505  0.95217625  1  0.577619  0  0.07368  0.198061  0  4.058465  0
C  C67  1  0.07912370  0.91473979  0.04874553  1  0.622449  0  0.073438  0.197261  0  4.061175  0
C  C68  1  0.91592140  0.08437603  0.04620996  1  0.571029  0  0.073974  0.197975  0  4.05806  0
C  C69  1  0.07857852  0.91527493  0.95429885  1  0.574352  0  0.074556  0.199039  0  4.057645  0
C  C70  1  0.40510027  0.59929219  0.49652486  1  -0.028426  0  -0.04946  -0.30428  0  4.020814  0
C  C71  1  0.59699124  0.40943469  0.49612283  1  0.0449  0  -0.049053  -0.303135  0  4.022586  0
C  C72  1  0.45498099  0.55248561  0.41197532  1  0.629741  0  0.074551  0.200006  0  4.058117  0
C  C73  1  0.54667282  0.45574446  0.58112252  1  0.584912  0  0.073923  0.1978  0  4.061345  0
C  C74  1  0.55047728  0.45894166  0.41135250  1  0.603618  0  0.074038  0.198034  0  4.056894  0
C  C75  1  0.45167011  0.54978851  0.58124434  1  0.565455  0  0.073721  0.197886  0  4.059507  0
C  C76  1  0.00457827  0.59978501  0.90392272  1  -0.063658  0  -0.015408  -0.157712  0  3.928299  0
C  C77  1  0.00456593  0.40473077  0.09899590  1  -0.031899  0  -0.01617  -0.159454  0  3.932745  0
C  C78  1  0.92534507  0.54868666  0.95416259  1  0.024034  0  -0.007388  0.057418  0  3.918163  0
C  C79  1  0.08855889  0.45314541  0.04845524  1  -0.029657  0  0.007806  0.11273  0  3.83542  0
C  C80  1  0.92537813  0.45496902  0.04789016  1  -0.017431  0  -0.007355  0.058737  0  3.919142  0
C  C81  1  0.08854735  0.54916042  0.95245901  1  0.080402  0  0.00804  0.112949  0  3.834076  0
C  C82  1  0.82363747  0.55432382  0.94760167  1  0.005282  0  -0.150236  -0.193029  0  3.843619  0
C  C83  1  0.82375079  0.44818066  0.05371786  1  -0.0536  0  -0.150353  -0.193742  0  3.845661  0
C  C84  1  0.40482513  0.99821328  0.49671469  1  0.015242  0  -0.04901  -0.303432  0  4.024179  0
C  C85  1  0.59579150  0.99845334  0.49692999  1  0.012249  0  -0.049072  -0.304074  0  4.020701  0
C  C86  1  0.45267968  0.91542561  0.58026210  1  0.556567  0  0.074418  0.199057  0  4.057617  0
C  C87  1  0.54722112  0.08190357  0.41400378  1  0.60809  0  0.074596  0.199049  0  4.055343  0
C  C88  1  0.54727903  0.91550601  0.58033805  1  0.646846  0  0.073888  0.197409  0  4.057962  0
C  C89  1  0.45261556  0.08181563  0.41394076  1  0.560729  0  0.074311  0.198503  0  4.057435  0
C  C90  1  0.18214251  0.40854553  0.08988254  1  -0.082057  0  -0.249428  -0.429036  0  3.959748  0
C  C91  1  0.18209645  0.59051793  0.90812965  1  -0.075494  0  -0.248841  -0.428087  0  3.95864  0
O  O92  1  0.91969540  0.74009936  0.57160514  1  -1.185159  0  -0.352095  -0.628142  0  2.321145  0
O  O93  1  0.26312406  0.07431272  0.23826105  1  -1.192553  0  -0.352494  -0.627537  0  2.314885  0
O  O94  1  0.07220748  0.26514741  0.42371151  1  -1.198682  0  -0.350826  -0.624373  0  2.322637  0
O  O95  1  0.73795071  0.92176152  0.76679405  1  -1.179965  0  -0.353682  -0.629407  0  2.319836  0
O  O96  1  0.06699323  0.75014619  0.76036653  1  -1.185004  0  -0.375357  -0.629364  0  2.382538  0
O  O97  1  0.73673707  0.07478506  0.42107960  1  -1.186666  0  -0.355844  -0.631042  0  2.314023  0
O  O98  1  0.91963879  0.26756275  0.23533989  1  -1.165808  0  -0.349927  -0.619499  0  2.225463  0
O  O99  1  0.26397856  0.92178119  0.57242647  1  -1.193739  0  -0.35673  -0.633103  0  2.316805  0
O  O100  1  0.26367262  0.73998803  0.42047460  1  -1.185046  0  -0.354995  -0.631531  0  2.314388  0
O  O101  1  0.91862382  0.07566676  0.76538016  1  -1.193835  0  -0.35591  -0.633865  0  2.313781  0
O  O102  1  0.73651467  0.26705043  0.57388578  1  -1.193178  0  -0.357249  -0.633236  0  2.315948  0
O  O103  1  0.07217449  0.92085633  0.23844400  1  -1.182423  0  -0.357118  -0.632929  0  2.315306  0
O  O104  1  0.07217817  0.92481866  0.76399294  1  -1.200731  0  -0.351203  -0.624379  0  2.321532  0
O  O105  1  0.73781030  0.26809109  0.42057232  1  -1.187114  0  -0.353151  -0.629244  0  2.320447  0
O  O106  1  0.91960423  0.07281038  0.23889797  1  -1.192587  0  -0.352484  -0.627612  0  2.32039  0
O  O107  1  0.26307691  0.73953618  0.57314310  1  -1.194087  0  -0.353226  -0.628205  0  2.314237  0
O  O108  1  0.91978297  0.73629003  0.76660249  1  -1.169996  0  -0.350049  -0.62021  0  2.223438  0
O  O109  1  0.26391043  0.07389282  0.42039539  1  -1.19248  0  -0.356875  -0.63318  0  2.318782  0
O  O110  1  0.06668232  0.26137029  0.24945985  1  -1.183246  0  -0.375439  -0.628684  0  2.386656  0
O  O111  1  0.73677731  0.92246270  0.57332454  1  -1.197376  0  -0.356486  -0.632078  0  2.31205  0
O  O112  1  0.73660710  0.07510839  0.76573583  1  -1.186756  0  -0.356807  -0.633815  0  2.318179  0
O  O113  1  0.07228269  0.73964645  0.41967851  1  -1.191473  0  -0.35697  -0.633129  0  2.315811  0
O  O114  1  0.26378223  0.92161150  0.23872847  1  -1.185707  0  -0.355077  -0.63154  0  2.312008  0
O  O115  1  0.91862124  0.26665051  0.57450750  1  -1.192884  0  -0.355865  -0.633401  0  2.311438  0
O  O116  1  0.79564623  0.06810909  0.56691759  1  -1.230625  0  -0.691971  -1.063022  0  2.342564  0
O  O117  1  0.06425882  0.06772264  0.56655794  1  -1.22111  0  -0.700649  -1.072723  0  2.3637  0
O  O118  1  0.06406992  0.06678010  0.29911019  1  -1.242374  0  -0.699262  -1.072161  0  2.373167  0
O  O119  1  0.06405405  0.80026044  0.56570112  1  -1.233377  0  -0.69896  -1.07247  0  2.373096  0
O  O120  1  0.14583665  0.95093189  0.44983756  1  -1.196424  0  -0.797593  -1.144922  0  2.141484  0
O  O121  1  0.94743422  0.95175240  0.45061270  1  -1.196968  0  -0.788903  -1.138593  0  2.123538  0
O  O122  1  0.94724349  0.14826982  0.45122694  1  -1.190726  0  -0.796431  -1.14187  0  2.159578  0
O  O123  1  0.94726186  0.95234511  0.64720050  1  -1.194746  0  -0.796287  -1.141285  0  2.157313  0
O  O124  1  0.15877473  0.41614682  0.33153042  1  -1.1242  0  -0.341019  -0.396838  0  2.301959  0
O  O125  1  0.83793714  0.58510917  0.66742747  1  -1.126415  0  -0.341615  -0.398633  0  2.299532  0
O  O126  1  0.16029354  0.59045066  0.33090803  1  -1.126358  0  -0.341889  -0.390917  0  2.291486  0
O  O127  1  0.83556669  0.41141741  0.66714758  1  -1.127521  0  -0.34213  -0.390152  0  2.292539  0
O  O128  1  0.40963753  0.16555552  0.08708472  1  -1.119354  0  -0.340852  -0.39514  0  2.305895  0
O  O129  1  0.59406685  0.82842828  0.91987840  1  -1.112351  0  -0.340348  -0.398186  0  2.299369  0
O  O130  1  0.58536913  0.16527508  0.91328574  1  -1.116202  0  -0.342181  -0.393273  0  2.287553  0
O  O131  1  0.41643190  0.83028141  0.09250143  1  -1.106492  0  -0.341894  -0.391165  0  2.292308  0
O  O132  1  0.83493180  0.16780672  0.91067807  1  -1.112042  0  -0.341797  -0.390399  0  2.290407  0
O  O133  1  0.15962649  0.83161482  0.08977436  1  -1.12365  0  -0.342397  -0.391935  0  2.290961  0
O  O134  1  0.83735578  0.16829401  0.08425749  1  -1.125855  0  -0.341506  -0.39775  0  2.300259  0
O  O135  1  0.15839259  0.83240907  0.91527272  1  -1.114609  0  -0.340716  -0.395507  0  2.303646  0
O  O136  1  0.41575308  0.59334828  0.32959338  1  -1.104751  0  -0.341857  -0.391187  0  2.289432  0
O  O137  1  0.58477892  0.41403908  0.66456344  1  -1.112581  0  -0.342535  -0.391708  0  2.290591  0
O  O138  1  0.59355518  0.42086964  0.32754850  1  -1.121094  0  -0.340858  -0.398564  0  2.298326  0
O  O139  1  0.40898937  0.58786244  0.66489207  1  -1.118725  0  -0.340685  -0.394314  0  2.305736  0
O  O140  1  0.41214688  0.83428156  0.66197632  1  -1.109443  0  -0.342286  -0.39025  0  2.289143  0
O  O141  1  0.58697244  0.16377404  0.33286959  1  -1.119431  0  -0.341356  -0.390546  0  2.2876  0
O  O142  1  0.58705267  0.83436655  0.66218759  1  -1.120468  0  -0.341929  -0.389643  0  2.288128  0
O  O143  1  0.41201221  0.16359164  0.33284802  1  -1.122934  0  -0.341926  -0.390676  0  2.288891  0
