# generated using pymatgen
data_CdH6C7(NO4)2
_symmetry_space_group_name_H-M   'P 1'
_cell_length_a   5.86059592
_cell_length_b   8.73014943
_cell_length_c   10.17386258
_cell_angle_alpha   88.65266912
_cell_angle_beta   82.20199707
_cell_angle_gamma   88.67588069
_symmetry_Int_Tables_number   1
_chemical_formula_structural   CdH6C7(NO4)2
_chemical_formula_sum   'Cd2 H12 C14 N4 O16'
_cell_volume   515.47382121
_cell_formula_units_Z   2
loop_
 _symmetry_equiv_pos_site_id
 _symmetry_equiv_pos_as_xyz
  1  'x, y, z'
loop_
 _atom_site_type_symbol
 _atom_site_label
 _atom_site_symmetry_multiplicity
 _atom_site_fract_x
 _atom_site_fract_y
 _atom_site_fract_z
 _atom_site_occupancy
 _atom_site_hle17_bader_spin_density
 _atom_site_hle17_ddec_charge
 _atom_site_hle17_ddec_spin_density
 _atom_site_hle17_ddec_sum_bond_order
 _atom_site_hle17_magmom
 _atom_site_hse06_10hf_bader_spin_density
 _atom_site_hse06_10hf_ddec_charge
 _atom_site_hse06_10hf_ddec_spin_density
 _atom_site_hse06_10hf_ddec_sum_bond_order
 _atom_site_hse06_10hf_magmom
 _atom_site_hse06_bader_spin_density
 _atom_site_hse06_ddec_charge
 _atom_site_hse06_ddec_spin_density
 _atom_site_hse06_ddec_sum_bond_order
 _atom_site_hse06_magmom
 _atom_site_pbe_bader_spin_density
 _atom_site_pbe_cm5_charge
 _atom_site_pbe_ddec_charge
 _atom_site_pbe_ddec_spin_density
 _atom_site_pbe_ddec_sum_bond_order
 _atom_site_pbe_magmom
Cd  Cd0  1  0.73340411  0.63052848  0.55333883  1  0  1.236386  0  1.585603  0  0  1.048593  0  2.022686  0  0  1.107469  0  1.966361  0  0  0.786387  1.005752  0  2.062144  0
Cd  Cd1  1  0.26658131  0.36946619  0.44665912  1  0  1.23631  0  1.585614  0  0  1.048504  0  2.022726  0  0  1.107383  0  1.966334  0  0  0.786372  1.00566  0  2.062178  0
H  H2  1  0.14127380  0.59415316  0.00947864  1  0  0.126948  0  0.966278  0  0  0.131438  0  1.034701  0  0  0.13604  0  1.031375  0  0  0.110657  0.127957  0  1.037425  0
H  H3  1  0.85873064  0.40585301  0.99052812  1  0  0.127059  0  0.96632  0  0  0.131545  0  1.034738  0  0  0.136147  0  1.031416  0  0  0.110686  0.128066  0  1.037466  0
H  H4  1  0.34733940  0.77745932  0.13611926  1  0  0.10791  0  0.949363  0  0  0.117284  0  1.006283  0  0  0.120601  0  1.004144  0  0  0.110465  0.114803  0  1.008079  0
H  H5  1  0.65268013  0.22255024  0.86387820  1  0  0.107875  0  0.949459  0  0  0.117323  0  1.006271  0  0  0.120612  0  1.004134  0  0  0.110487  0.114843  0  1.00807  0
H  H6  1  0.71368153  0.89322446  0.02622889  1  0  0.126155  0  0.935012  0  0  0.132976  0  0.997997  0  0  0.136765  0  0.995957  0  0  0.11678  0.130064  0  0.999962  0
H  H7  1  0.28633955  0.10677588  0.97375685  1  0  0.126164  0  0.934925  0  0  0.13296  0  0.997941  0  0  0.136747  0  0.995892  0  0  0.116755  0.13005  0  0.999904  0
H  H8  1  0.11084914  0.01348533  0.75184681  1  0  0.399988  0  0.879834  0  0  0.366328  0  0.963251  0  0  0.379995  0  0.948183  0  0  0.308029  0.356643  0  0.973842  0
H  H9  1  0.88915529  0.98650589  0.24814851  1  0  0.39998  0  0.879883  0  0  0.366312  0  0.9633  0  0  0.379977  0  0.948348  0  0  0.308008  0.356624  0  0.973893  0
H  H10  1  0.95832406  0.38259917  0.68070780  1  0  0.42435  0  0.881563  0  0  0.387958  0  0.953743  0  0  0.40081  0  0.935334  0  0  0.289032  0.378785  0  0.96686  0
H  H11  1  0.04166834  0.61740241  0.31929722  1  0  0.42432  0  0.881624  0  0  0.387927  0  0.953805  0  0  0.400778  0  0.935404  0  0  0.289029  0.378757  0  0.966919  0
H  H12  1  0.79895190  0.29685989  0.58027244  1  0  0.443677  0  0.838836  0  0  0.409747  0  0.909222  0  0  0.421468  0  0.892202  0  0  0.302907  0.401323  0  0.92145  0
H  H13  1  0.20103548  0.70314055  0.41973601  1  0  0.443684  0  0.838802  0  0  0.409756  0  0.90921  0  0  0.421474  0  0.892221  0  0  0.302902  0.401331  0  0.921439  0
C  C14  1  0.27457506  0.50955687  0.74838605  1  0  0.632245  0  3.89736  0  0  0.57529  0  4.198915  0  0  0.609346  0  4.192806  0  0  0.211911  0.552196  0  4.202104  0
C  C15  1  0.72541759  0.49043784  0.25162009  1  0  0.632157  0  3.897536  0  0  0.575204  0  4.199078  0  0  0.609258  0  4.192993  0  0  0.211849  0.552115  0  4.202253  0
C  C16  1  0.39356963  0.61337613  0.83387993  1  0  0.109772  0  3.72887  0  0  0.111916  0  3.974897  0  0  0.112028  0  3.995067  0  0  0.117154  0.111705  0  3.961126  0
C  C17  1  0.60642961  0.38662198  0.16612061  1  0  0.109777  0  3.728865  0  0  0.111955  0  3.974855  0  0  0.112063  0  3.995029  0  0  0.117207  0.111751  0  3.961076  0
C  C18  1  0.30101229  0.64605850  0.96440738  1  0  -0.088661  0  3.65044  0  0  -0.115797  0  3.903229  0  0  -0.118795  0  3.921908  0  0  -0.06698  -0.113704  0  3.890818  0
C  C19  1  0.69899360  0.35394649  0.03559141  1  0  -0.088765  0  3.650526  0  0  -0.115932  0  3.903349  0  0  -0.118928  0  3.92202  0  0  -0.067068  -0.113846  0  3.89094  0
C  C20  1  0.41659942  0.74692551  0.03513278  1  0  0.007234  0  3.659942  0  0  -0.009847  0  3.915004  0  0  -0.008861  0  3.932523  0  0  -0.05912  -0.010483  0  3.90324  0
C  C21  1  0.58341873  0.25307375  0.96486602  1  0  0.007188  0  3.660185  0  0  -0.009929  0  3.915247  0  0  -0.008913  0  3.932736  0  0  -0.059134  -0.01057  0  3.903491  0
C  C22  1  0.62052256  0.81231066  0.97470754  1  0  -0.074582  0  3.633557  0  0  -0.10201  0  3.884874  0  0  -0.104252  0  3.903218  0  0  -0.059623  -0.100613  0  3.873029  0
C  C23  1  0.37948827  0.18769200  0.02528300  1  0  -0.07466  0  3.633506  0  0  -0.102085  0  3.884882  0  0  -0.104321  0  3.903208  0  0  -0.059614  -0.10068  0  3.873032  0
C  C24  1  0.70056053  0.77391988  0.84386104  1  0  0.100734  0  3.760949  0  0  0.104903  0  4.001742  0  0  0.104673  0  4.02198  0  0  0.118855  0.104828  0  3.988139  0
C  C25  1  0.29944889  0.22607477  0.15613179  1  0  0.100942  0  3.760653  0  0  0.105129  0  4.001435  0  0  0.104889  0  4.021721  0  0  0.118904  0.105047  0  3.987838  0
C  C26  1  0.90676068  0.84404422  0.76342851  1  0  0.638116  0  3.808984  0  0  0.582282  0  4.110998  0  0  0.615848  0  4.102865  0  0  0.239174  0.55941  0  4.116068  0
C  C27  1  0.09324179  0.15595387  0.23656585  1  0  0.637972  0  3.808921  0  0  0.582111  0  4.110957  0  0  0.615685  0  4.10286  0  0  0.239084  0.559244  0  4.11602  0
N  N28  1  0.58949747  0.67627238  0.77648559  1  0  -0.349654  0  3.291246  0  0  -0.290244  0  3.540937  0  0  -0.306684  0  3.561392  0  0  -0.312083  -0.278319  0  3.526584  0
N  N29  1  0.41050163  0.32372572  0.22351104  1  0  -0.349669  0  3.291216  0  0  -0.290268  0  3.540887  0  0  -0.306711  0  3.561357  0  0  -0.312103  -0.278341  0  3.526529  0
N  N30  1  0.55683474  0.87758251  0.36975276  1  0  0.693008  0  4.133049  0  0  0.733278  0  4.414897  0  0  0.748778  0  4.439861  0  0  0.101315  0.713498  0  4.410609  0
N  N31  1  0.44316112  0.12242366  0.63025576  1  0  0.692709  0  4.1335  0  0  0.733235  0  4.415039  0  0  0.762694  0  4.420375  0  0  0.10127  0.713461  0  4.410741  0
O  O32  1  0.37264573  0.49397971  0.62912821  1  0  -0.662517  0  2.125612  0  0  -0.582281  0  2.387675  0  0  -0.615479  0  2.378515  0  0  -0.325538  -0.558702  0  2.393194  0
O  O33  1  0.62733648  0.50601614  0.37087689  1  0  -0.662586  0  2.125861  0  0  -0.582315  0  2.387834  0  0  -0.61552  0  2.378683  0  0  -0.325508  -0.558737  0  2.393352  0
O  O34  1  0.08976053  0.44829256  0.79936936  1  0  -0.594345  0  1.963602  0  0  -0.543104  0  2.188535  0  0  -0.56832  0  2.180936  0  0  -0.305699  -0.52541  0  2.193308  0
O  O35  1  0.91022664  0.55171016  0.20063512  1  0  -0.594233  0  1.963561  0  0  -0.542995  0  2.188495  0  0  -0.568199  0  2.180878  0  0  -0.305686  -0.525307  0  2.193261  0
O  O36  1  0.97692315  0.80169544  0.64942910  1  0  -0.545102  0  2.015951  0  0  -0.492043  0  2.258518  0  0  -0.516631  0  2.248639  0  0  -0.279399  -0.475211  0  2.264987  0
O  O37  1  0.02306133  0.19830717  0.35055006  1  0  -0.544868  0  2.016114  0  0  -0.491847  0  2.258757  0  0  -0.516419  0  2.248835  0  0  -0.27929  -0.47502  0  2.265224  0
O  O38  1  0.00124898  0.95425573  0.82251287  1  0  -0.519941  0  2.090618  0  0  -0.471108  0  2.311946  0  0  -0.494026  0  2.297786  0  0  -0.315885  -0.455142  0  2.321432  0
O  O39  1  0.99876400  0.04572973  0.17747591  1  0  -0.520074  0  2.090374  0  0  -0.471201  0  2.311695  0  0  -0.494132  0  2.29762  0  0  -0.315917  -0.455228  0  2.321172  0
O  O40  1  0.90226112  0.38285104  0.59081750  1  0  -0.857184  0  1.98689  0  0  -0.778758  0  2.210935  0  0  -0.806786  0  2.173691  0  0  -0.572077  -0.758563  0  2.236947  0
O  O41  1  0.09773138  0.61714709  0.40918759  1  0  -0.857164  0  1.986901  0  0  -0.778758  0  2.210989  0  0  -0.806792  0  2.173776  0  0  -0.57208  -0.758566  0  2.237005  0
O  O42  1  0.77613869  0.87846252  0.36189962  1  0  -0.45572  0  1.825924  0  0  -0.438531  0  2.034393  0  0  -0.451269  0  2.031158  0  0  -0.172198  -0.426398  0  2.040138  0
O  O43  1  0.22385876  0.12154708  0.63810770  1  0  -0.455661  0  1.826047  0  0  -0.438553  0  2.034469  0  0  -0.455917  0  2.025784  0  0  -0.172189  -0.426425  0  2.040212  0
O  O44  1  0.44629845  0.80265140  0.46723388  1  0  -0.480186  0  1.839794  0  0  -0.459107  0  2.066482  0  0  -0.474909  0  2.063653  0  0  -0.181832  -0.444655  0  2.071956  0
O  O45  1  0.55369906  0.19735247  0.53277062  1  0  -0.480008  0  1.839728  0  0  -0.459005  0  2.066331  0  0  -0.479457  0  2.05807  0  0  -0.1818  -0.444556  0  2.071801  0
O  O46  1  0.45327964  0.94488245  0.28561689  1  0  -0.418586  0  1.784799  0  0  -0.419106  0  1.993111  0  0  -0.427702  0  1.993967  0  0  -0.162209  -0.409709  0  1.996648  0
O  O47  1  0.54671614  0.05512257  0.71438872  1  0  -0.418497  0  1.785057  0  0  -0.419129  0  1.993269  0  0  -0.432504  0  1.988304  0  0  -0.162186  -0.409729  0  1.996797  0
