# generated using pymatgen
data_ZnP4H16C10(NO7)2
_symmetry_space_group_name_H-M   'P 1'
_cell_length_a   8.55705542
_cell_length_b   9.18201355
_cell_length_c   11.61016144
_cell_angle_alpha   96.43283495
_cell_angle_beta   89.99997927
_cell_angle_gamma   90.00005262
_symmetry_Int_Tables_number   1
_chemical_formula_structural   ZnP4H16C10(NO7)2
_chemical_formula_sum   'Zn2 P8 H32 C20 N4 O28'
_cell_volume   906.47851804
_cell_formula_units_Z   2
loop_
 _symmetry_equiv_pos_site_id
 _symmetry_equiv_pos_as_xyz
  1  'x, y, z'
loop_
 _atom_site_type_symbol
 _atom_site_label
 _atom_site_symmetry_multiplicity
 _atom_site_fract_x
 _atom_site_fract_y
 _atom_site_fract_z
 _atom_site_occupancy
 _atom_site_hle17_bader_spin_density
 _atom_site_hle17_ddec_charge
 _atom_site_hle17_ddec_spin_density
 _atom_site_hle17_ddec_sum_bond_order
 _atom_site_hle17_magmom
 _atom_site_hse06_10hf_bader_spin_density
 _atom_site_hse06_10hf_ddec_charge
 _atom_site_hse06_10hf_ddec_spin_density
 _atom_site_hse06_10hf_ddec_sum_bond_order
 _atom_site_hse06_10hf_magmom
 _atom_site_hse06_bader_spin_density
 _atom_site_hse06_ddec_charge
 _atom_site_hse06_ddec_spin_density
 _atom_site_hse06_ddec_sum_bond_order
 _atom_site_hse06_magmom
 _atom_site_pbe_bader_spin_density
 _atom_site_pbe_cm5_charge
 _atom_site_pbe_ddec_charge
 _atom_site_pbe_ddec_spin_density
 _atom_site_pbe_ddec_sum_bond_order
 _atom_site_pbe_magmom
Zn  Zn0  1  0.00000000  0.00000000  0.00000000  1  0  1.343919  0  1.595333  0  0  1.199384  0  2.042372  0  0  1.24086  0  1.982679  0  0  0.706802  1.168902  0  2.084154  0
Zn  Zn1  1  0.50000039  0.49999998  0.50000045  1  0  1.34396  0  1.595308  0  0  1.199415  0  2.04232  0  0  1.240886  0  1.982628  0  0  0.70681  1.168932  0  2.084102  0
P  P2  1  0.09292365  0.76086512  0.18518341  1  0  1.466629  0  4.845304  0  0  1.29901  0  5.349072  0  0  1.349842  0  5.311153  0  0  0.365269  1.262904  0  5.37519  0
P  P3  1  0.59292270  0.73913493  0.31481737  1  0  1.466653  0  4.845253  0  0  1.298998  0  5.349035  0  0  1.349828  0  5.311121  0  0  0.365267  1.262893  0  5.375148  0
P  P4  1  0.90707596  0.23913484  0.81481664  1  0  1.466631  0  4.845281  0  0  1.299  0  5.349065  0  0  1.349839  0  5.311146  0  0  0.36525  1.262894  0  5.375181  0
P  P5  1  0.40707807  0.26086503  0.68518268  1  0  1.466611  0  4.845324  0  0  1.298968  0  5.349134  0  0  1.349813  0  5.311216  0  0  0.365233  1.262862  0  5.375245  0
P  P6  1  0.49481983  0.28450419  0.22912753  1  0  1.474554  0  4.854822  0  0  1.308174  0  5.35965  0  0  1.359436  0  5.321049  0  0  0.3614  1.271462  0  5.387187  0
P  P7  1  0.99482005  0.21549730  0.27087292  1  0  1.474476  0  4.854853  0  0  1.308093  0  5.359681  0  0  1.359358  0  5.321078  0  0  0.361355  1.271384  0  5.387221  0
P  P8  1  0.50518095  0.71549577  0.77087251  1  0  1.474483  0  4.854865  0  0  1.3081  0  5.359703  0  0  1.359359  0  5.321106  0  0  0.361323  1.271386  0  5.387242  0
P  P9  1  0.00517955  0.78450266  0.72912626  1  0  1.47446  0  4.854894  0  0  1.308074  0  5.35972  0  0  1.359338  0  5.32112  0  0  0.361353  1.271364  0  5.387259  0
H  H10  1  0.27365837  0.40927643  0.86850519  1  0  0.317529  0  0.926283  0  0  0.291202  0  0.99162  0  0  0.301072  0  0.984579  0  0  0.314456  0.284057  0  0.997023  0
H  H11  1  0.77365854  0.09072442  0.63149511  1  0  0.317541  0  0.926266  0  0  0.291216  0  0.991601  0  0  0.301085  0  0.984561  0  0  0.314457  0.284071  0  0.997004  0
H  H12  1  0.72634240  0.59072353  0.13149572  1  0  0.317496  0  0.926302  0  0  0.291175  0  0.991636  0  0  0.301041  0  0.984597  0  0  0.314444  0.28403  0  0.997038  0
H  H13  1  0.22634223  0.90927663  0.36850503  1  0  0.317514  0  0.926297  0  0  0.291195  0  0.991631  0  0  0.301061  0  0.984592  0  0  0.314444  0.284049  0  0.997034  0
H  H14  1  0.12272686  0.61337299  0.94591961  1  0  0.112848  0  0.934219  0  0  0.117996  0  1.00169  0  0  0.121641  0  0.99817  0  0  0.135789  0.115348  0  1.003854  0
H  H15  1  0.62272736  0.88662882  0.55408029  1  0  0.112791  0  0.934281  0  0  0.117969  0  1.001715  0  0  0.121614  0  0.998196  0  0  0.135775  0.115321  0  1.003875  0
H  H16  1  0.87727391  0.38662806  0.05408053  1  0  0.112843  0  0.934211  0  0  0.118011  0  1.001664  0  0  0.121655  0  0.998146  0  0  0.135786  0.115363  0  1.003827  0
H  H17  1  0.37727342  0.11337223  0.44591985  1  0  0.112801  0  0.934271  0  0  0.117976  0  1.001709  0  0  0.121619  0  0.998192  0  0  0.135779  0.115328  0  1.003871  0
H  H18  1  0.28902368  0.54533152  0.28769072  1  0  0.122933  0  0.936084  0  0  0.133002  0  0.99602  0  0  0.136187  0  0.992835  0  0  0.123791  0.130336  0  0.998829  0
H  H19  1  0.78902534  0.95466869  0.21230915  1  0  0.12291  0  0.936099  0  0  0.132981  0  0.996033  0  0  0.136167  0  0.992847  0  0  0.123788  0.130315  0  0.998842  0
H  H20  1  0.71097359  0.45466843  0.71231019  1  0  0.122941  0  0.936051  0  0  0.133021  0  0.995973  0  0  0.136193  0  0.992805  0  0  0.123787  0.130355  0  0.998785  0
H  H21  1  0.21097544  0.04533127  0.78769003  1  0  0.122927  0  0.936066  0  0  0.133  0  0.995996  0  0  0.136187  0  0.992808  0  0  0.123785  0.130334  0  0.998805  0
H  H22  1  0.42504680  0.26792890  0.97747462  1  0  0.113965  0  0.938875  0  0  0.120243  0  1.002633  0  0  0.124077  0  0.998255  0  0  0.135224  0.117475  0  1.005577  0
H  H23  1  0.92504833  0.23206988  0.52252374  1  0  0.113953  0  0.938874  0  0  0.1202  0  1.002657  0  0  0.124034  0  0.998279  0  0  0.135225  0.117437  0  1.005592  0
H  H24  1  0.57495280  0.73207105  0.02252543  1  0  0.113932  0  0.938891  0  0  0.120216  0  1.002649  0  0  0.124051  0  0.99827  0  0  0.135223  0.117451  0  1.005588  0
H  H25  1  0.07495361  0.76793008  0.47747545  1  0  0.113971  0  0.938906  0  0  0.120229  0  1.002686  0  0  0.124065  0  0.998305  0  0  0.13524  0.117464  0  1.005628  0
H  H26  1  0.89040468  0.67763102  0.28163615  1  0  0.438574  0  0.870922  0  0  0.403021  0  0.9413  0  0  0.414728  0  0.924724  0  0  0.306173  0.393451  0  0.955031  0
H  H27  1  0.39040450  0.82236818  0.21836361  1  0  0.438512  0  0.871015  0  0  0.402968  0  0.941375  0  0  0.414673  0  0.924801  0  0  0.306146  0.393397  0  0.955108  0
H  H28  1  0.10959492  0.32236893  0.71836389  1  0  0.438581  0  0.870907  0  0  0.403025  0  0.941291  0  0  0.414735  0  0.924709  0  0  0.306169  0.393455  0  0.955022  0
H  H29  1  0.60959510  0.17763068  0.78163548  1  0  0.438542  0  0.87097  0  0  0.403005  0  0.941315  0  0  0.414713  0  0.924739  0  0  0.306181  0.393435  0  0.955049  0
H  H30  1  0.28968027  0.16857945  0.27106555  1  0  0.419252  0  0.875408  0  0  0.38814  0  0.9545  0  0  0.399011  0  0.940708  0  0  0.307849  0.379058  0  0.9649  0
H  H31  1  0.78967946  0.33141968  0.22893476  1  0  0.419246  0  0.875418  0  0  0.388117  0  0.954529  0  0  0.39899  0  0.940737  0  0  0.307855  0.379035  0  0.964928  0
H  H32  1  0.71032051  0.83142051  0.72893536  1  0  0.419273  0  0.875372  0  0  0.388145  0  0.954486  0  0  0.399016  0  0.940698  0  0  0.307856  0.379062  0  0.964887  0
H  H33  1  0.21032015  0.66858028  0.77106443  1  0  0.419236  0  0.875437  0  0  0.388114  0  0.95454  0  0  0.398986  0  0.940743  0  0  0.307847  0.379033  0  0.964939  0
H  H34  1  0.29810743  0.90134153  0.94471972  1  0  0.441245  0  0.848604  0  0  0.409477  0  0.912643  0  0  0.41974  0  0.897725  0  0  0.294655  0.402335  0  0.92283  0
H  H35  1  0.79810764  0.59865824  0.55528082  1  0  0.441254  0  0.848595  0  0  0.40949  0  0.912626  0  0  0.419754  0  0.897707  0  0  0.294658  0.402348  0  0.922813  0
H  H36  1  0.70189218  0.09865843  0.05528032  1  0  0.441235  0  0.84862  0  0  0.409466  0  0.912658  0  0  0.419731  0  0.89774  0  0  0.294652  0.402325  0  0.922846  0
H  H37  1  0.20189313  0.40134172  0.44471923  1  0  0.441253  0  0.848593  0  0  0.409483  0  0.912632  0  0  0.419747  0  0.897715  0  0  0.294656  0.402342  0  0.92282  0
H  H38  1  0.29667145  0.99594730  0.06993724  1  0  0.43853  0  0.826807  0  0  0.410032  0  0.898044  0  0  0.419345  0  0.884344  0  0  0.309475  0.403433  0  0.907064  0
H  H39  1  0.79667255  0.50405292  0.43006264  1  0  0.438527  0  0.826809  0  0  0.410026  0  0.898052  0  0  0.419341  0  0.88435  0  0  0.309468  0.403427  0  0.907071  0
H  H40  1  0.70332816  0.00405156  0.93006271  1  0  0.438528  0  0.826805  0  0  0.410028  0  0.898049  0  0  0.419343  0  0.884346  0  0  0.309471  0.403429  0  0.907067  0
H  H41  1  0.20332822  0.49594814  0.56993751  1  0  0.438513  0  0.826826  0  0  0.410013  0  0.898072  0  0  0.419328  0  0.884369  0  0  0.309459  0.403413  0  0.907091  0
C  C42  1  0.18981089  0.55480961  0.00571501  1  0  0.178166  0  3.601684  0  0  0.124918  0  3.856456  0  0  0.136592  0  3.870801  0  0  0.078239  0.117683  0  3.844859  0
C  C43  1  0.68981240  0.94519052  0.49428488  1  0  0.178227  0  3.601673  0  0  0.124945  0  3.85643  0  0  0.136617  0  3.870777  0  0  0.07828  0.117712  0  3.844827  0
C  C44  1  0.81018872  0.44518925  0.99428494  1  0  0.178191  0  3.601632  0  0  0.124928  0  3.856401  0  0  0.136605  0  3.870747  0  0  0.078254  0.117693  0  3.844803  0
C  C45  1  0.31018838  0.05481053  0.50571526  1  0  0.1782  0  3.601707  0  0  0.124943  0  3.856482  0  0  0.136619  0  3.870829  0  0  0.078253  0.117707  0  3.844881  0
C  C46  1  0.19260740  0.59575336  0.12426894  1  0  -0.289078  0  3.722078  0  0  -0.245063  0  3.976431  0  0  -0.261235  0  3.996831  0  0  -0.013126  -0.235075  0  3.962542  0
C  C47  1  0.69260893  0.90424677  0.37573009  1  0  -0.289148  0  3.722097  0  0  -0.245081  0  3.976394  0  0  -0.261243  0  3.996783  0  0  -0.013183  -0.235092  0  3.962501  0
C  C48  1  0.80739220  0.40424659  0.87573110  1  0  -0.289112  0  3.722101  0  0  -0.245102  0  3.976455  0  0  -0.261275  0  3.996855  0  0  -0.013149  -0.235111  0  3.962563  0
C  C49  1  0.30739185  0.09575319  0.62426996  1  0  -0.289065  0  3.722041  0  0  -0.245062  0  3.976407  0  0  -0.261233  0  3.996808  0  0  -0.013132  -0.235074  0  3.962513  0
C  C50  1  0.28391212  0.51400004  0.19434366  1  0  0.090346  0  3.627831  0  0  0.046909  0  3.872894  0  0  0.058539  0  3.885563  0  0  -0.029154  0.039814  0  3.865197  0
C  C51  1  0.78391259  0.98600017  0.30565622  1  0  0.090433  0  3.627838  0  0  0.046998  0  3.872853  0  0  0.058627  0  3.885522  0  0  -0.029123  0.039896  0  3.865174  0
C  C52  1  0.71608749  0.48599882  0.80565716  1  0  0.090361  0  3.627831  0  0  0.046929  0  3.872859  0  0  0.058571  0  3.885535  0  0  -0.029134  0.039832  0  3.865167  0
C  C53  1  0.21608702  0.01399979  0.69434296  1  0  0.090338  0  3.627813  0  0  0.046933  0  3.87284  0  0  0.058562  0  3.88551  0  0  -0.029147  0.039829  0  3.865158  0
C  C54  1  0.37171564  0.39491703  0.14454882  1  0  -0.284065  0  3.700807  0  0  -0.241513  0  3.957766  0  0  -0.257633  0  3.97748  0  0  -0.010318  -0.231901  0  3.945482  0
C  C55  1  0.87171922  0.10508216  0.35544975  1  0  -0.284099  0  3.700884  0  0  -0.241562  0  3.957844  0  0  -0.257686  0  3.977567  0  0  -0.010308  -0.231952  0  3.945559  0
C  C56  1  0.62828163  0.60508183  0.85545200  1  0  -0.284153  0  3.700896  0  0  -0.241602  0  3.957856  0  0  -0.257725  0  3.977576  0  0  -0.010337  -0.231986  0  3.94557  0
C  C57  1  0.12828156  0.89491779  0.64454944  1  0  -0.284105  0  3.700832  0  0  -0.24155  0  3.957784  0  0  -0.257672  0  3.977505  0  0  -0.01032  -0.231938  0  3.945496  0
C  C58  1  0.36269503  0.35881631  0.02501344  1  0  0.19632  0  3.563431  0  0  0.142948  0  3.815703  0  0  0.155871  0  3.828193  0  0  0.085995  0.134649  0  3.807041  0
C  C59  1  0.86269625  0.14118397  0.47498608  1  0  0.196381  0  3.563471  0  0  0.143053  0  3.815709  0  0  0.15598  0  3.828199  0  0  0.086014  0.134755  0  3.807048  0
C  C60  1  0.63730458  0.64118364  0.97498660  1  0  0.196456  0  3.563432  0  0  0.14308  0  3.815709  0  0  0.156005  0  3.828199  0  0  0.086058  0.13478  0  3.80705  0
C  C61  1  0.13730453  0.85881599  0.52501310  1  0  0.196428  0  3.563448  0  0  0.143067  0  3.815735  0  0  0.155992  0  3.828225  0  0  0.086032  0.134767  0  3.807071  0
N  N62  1  0.27395286  0.43850556  0.96017286  1  0  -0.20627  0  3.431924  0  0  -0.131194  0  3.664367  0  0  -0.148451  0  3.679855  0  0  -0.332774  -0.120117  0  3.653765  0
N  N63  1  0.77395422  0.06149529  0.53982572  1  0  -0.206283  0  3.431936  0  0  -0.13123  0  3.664398  0  0  -0.148488  0  3.679886  0  0  -0.332789  -0.120151  0  3.653792  0
N  N64  1  0.72604675  0.56149550  0.03982728  1  0  -0.206277  0  3.431898  0  0  -0.131212  0  3.664363  0  0  -0.14847  0  3.679852  0  0  -0.332797  -0.120136  0  3.653765  0
N  N65  1  0.22604656  0.93850576  0.46017356  1  0  -0.2063  0  3.431942  0  0  -0.131245  0  3.664421  0  0  -0.148507  0  3.679916  0  0  -0.332798  -0.120167  0  3.653816  0
O  O66  1  0.98595051  0.81162285  0.09473484  1  0  -0.853051  0  1.996489  0  0  -0.779533  0  2.281493  0  0  -0.80627  0  2.26089  0  0  -0.363208  -0.759814  0  2.2947  0
O  O67  1  0.48595128  0.68837753  0.40526500  1  0  -0.853054  0  1.996509  0  0  -0.779541  0  2.281528  0  0  -0.806272  0  2.260916  0  0  -0.363201  -0.759822  0  2.294736  0
O  O68  1  0.01405026  0.18837711  0.90526521  1  0  -0.853048  0  1.996472  0  0  -0.779531  0  2.28148  0  0  -0.806266  0  2.260874  0  0  -0.363211  -0.759813  0  2.294689  0
O  O69  1  0.51404950  0.31162243  0.59473505  1  0  -0.853058  0  1.996517  0  0  -0.77954  0  2.281538  0  0  -0.806272  0  2.260924  0  0  -0.363206  -0.759821  0  2.294747  0
O  O70  1  0.22315423  0.86533810  0.23330742  1  0  -0.821614  0  2.026933  0  0  -0.735359  0  2.261984  0  0  -0.762074  0  2.244853  0  0  -0.356998  -0.715497  0  2.274947  0
O  O71  1  0.72315438  0.63466096  0.26669151  1  0  -0.821616  0  2.026854  0  0  -0.735357  0  2.261921  0  0  -0.762076  0  2.244795  0  0  -0.356997  -0.715494  0  2.274882  0
O  O72  1  0.77684654  0.13466186  0.76669176  1  0  -0.821655  0  2.026927  0  0  -0.735386  0  2.261983  0  0  -0.762114  0  2.244858  0  0  -0.356998  -0.715525  0  2.274945  0
O  O73  1  0.27684523  0.36533899  0.73330854  1  0  -0.821612  0  2.026866  0  0  -0.735337  0  2.261925  0  0  -0.762083  0  2.244814  0  0  -0.356969  -0.715474  0  2.274887  0
O  O74  1  0.00396543  0.71471078  0.29470496  1  0  -0.751827  0  2.039569  0  0  -0.679854  0  2.271336  0  0  -0.702384  0  2.247818  0  0  -0.385191  -0.663117  0  2.289258  0
O  O75  1  0.50396575  0.78528919  0.20529496  1  0  -0.751776  0  2.039595  0  0  -0.679806  0  2.27138  0  0  -0.702336  0  2.247866  0  0  -0.385151  -0.663071  0  2.289299  0
O  O76  1  0.99603418  0.28529027  0.70529518  1  0  -0.751816  0  2.039548  0  0  -0.679852  0  2.271336  0  0  -0.702382  0  2.247815  0  0  -0.385171  -0.663116  0  2.289258  0
O  O77  1  0.49603503  0.21471076  0.79470508  1  0  -0.75178  0  2.0396  0  0  -0.679814  0  2.27139  0  0  -0.70234  0  2.247867  0  0  -0.385183  -0.663079  0  2.289308  0
O  O78  1  0.51688117  0.36226626  0.34876445  1  0  -0.865802  0  2.045112  0  0  -0.780802  0  2.337555  0  0  -0.80839  0  2.314509  0  0  -0.370701  -0.761057  0  2.353079  0
O  O79  1  0.01688201  0.13773701  0.15123371  1  0  -0.865755  0  2.045039  0  0  -0.780792  0  2.337549  0  0  -0.80838  0  2.314504  0  0  -0.370682  -0.761038  0  2.35305  0
O  O80  1  0.48311844  0.63773589  0.65123579  1  0  -0.865807  0  2.045142  0  0  -0.780801  0  2.337567  0  0  -0.808385  0  2.314519  0  0  -0.370679  -0.761055  0  2.353091  0
O  O81  1  0.98311760  0.86226294  0.84876548  1  0  -0.865751  0  2.045075  0  0  -0.780778  0  2.337566  0  0  -0.808367  0  2.314521  0  0  -0.370677  -0.761022  0  2.353064  0
O  O82  1  0.64239279  0.24599844  0.15921975  1  0  -0.85183  0  1.94709  0  0  -0.76911  0  2.187705  0  0  -0.796711  0  2.170866  0  0  -0.361022  -0.748072  0  2.198984  0
O  O83  1  0.14239248  0.25400275  0.34078077  1  0  -0.851818  0  1.947117  0  0  -0.769105  0  2.187741  0  0  -0.796705  0  2.170899  0  0  -0.361008  -0.748062  0  2.199001  0
O  O84  1  0.35760682  0.75400261  0.84078125  1  0  -0.851811  0  1.947085  0  0  -0.769099  0  2.187709  0  0  -0.796698  0  2.170867  0  0  -0.361019  -0.748057  0  2.198977  0
O  O85  1  0.85760713  0.74599720  0.65921927  1  0  -0.851835  0  1.947151  0  0  -0.769121  0  2.18777  0  0  -0.796719  0  2.17093  0  0  -0.361031  -0.748083  0  2.199046  0
O  O86  1  0.39299969  0.13882655  0.23154682  1  0  -0.727228  0  2.007168  0  0  -0.658028  0  2.24025  0  0  -0.679189  0  2.217556  0  0  -0.384616  -0.642316  0  2.257239  0
O  O87  1  0.89299772  0.36117376  0.26845442  1  0  -0.727224  0  2.007191  0  0  -0.65798  0  2.240262  0  0  -0.679142  0  2.217565  0  0  -0.384623  -0.642269  0  2.257248  0
O  O88  1  0.60700109  0.86117341  0.76845495  1  0  -0.727201  0  2.007115  0  0  -0.657978  0  2.240194  0  0  -0.679138  0  2.217501  0  0  -0.384586  -0.642265  0  2.25718  0
O  O89  1  0.10700189  0.63882620  0.73154563  1  0  -0.727184  0  2.00718  0  0  -0.657965  0  2.240273  0  0  -0.679127  0  2.217571  0  0  -0.384611  -0.642254  0  2.257258  0
O  O90  1  0.25271684  0.98854880  0.99165007  1  0  -0.832077  0  1.85792  0  0  -0.77429  0  2.064199  0  0  -0.794156  0  2.030904  0  0  -0.56461  -0.759479  0  2.085694  0
O  O91  1  0.75271700  0.51145092  0.50834962  1  0  -0.832087  0  1.857917  0  0  -0.774305  0  2.064196  0  0  -0.794171  0  2.030898  0  0  -0.564606  -0.759493  0  2.085694  0
O  O92  1  0.74728276  0.01145115  0.00834998  1  0  -0.83207  0  1.857919  0  0  -0.774283  0  2.064207  0  0  -0.79415  0  2.03091  0  0  -0.564607  -0.759471  0  2.085702  0
O  O93  1  0.24728261  0.48854903  0.49165043  1  0  -0.832073  0  1.857919  0  0  -0.774286  0  2.064196  0  0  -0.794152  0  2.0309  0  0  -0.564599  -0.759474  0  2.085692  0
