# generated using pymatgen
data_CdH18C26(N2O3)2
_symmetry_space_group_name_H-M   'P 1'
_cell_length_a   9.43729379
_cell_length_b   11.94772293
_cell_length_c   23.86533834
_cell_angle_alpha   90.00030490
_cell_angle_beta   89.99977994
_cell_angle_gamma   112.71756284
_symmetry_Int_Tables_number   1
_chemical_formula_structural   CdH18C26(N2O3)2
_chemical_formula_sum   'Cd4 H72 C104 N16 O24'
_cell_volume   2482.15449122
_cell_formula_units_Z   4
loop_
 _symmetry_equiv_pos_site_id
 _symmetry_equiv_pos_as_xyz
  1  'x, y, z'
loop_
 _atom_site_type_symbol
 _atom_site_label
 _atom_site_symmetry_multiplicity
 _atom_site_fract_x
 _atom_site_fract_y
 _atom_site_fract_z
 _atom_site_occupancy
 _atom_site_pbe_bader_charge
 _atom_site_pbe_bader_spin_density
 _atom_site_pbe_cm5_charge
 _atom_site_pbe_ddec_charge
 _atom_site_pbe_ddec_spin_density
 _atom_site_pbe_ddec_sum_bond_order
 _atom_site_pbe_magmom
Cd  Cd0  1  0.13923478  0.64729753  0.84298817  1  1.234361  0  0.777685  0.855504  0  2.217675  0
Cd  Cd1  1  0.36076994  0.85270723  0.34298866  1  1.23438  0  0.777686  0.855496  0  2.21771  0
Cd  Cd2  1  0.86076733  0.35270202  0.15700702  1  1.234375  0  0.777628  0.855398  0  2.217779  0
Cd  Cd3  1  0.63923047  0.14729319  0.65701240  1  1.234304  0  0.777691  0.855538  0  2.217721  0
H  H4  1  0.77041540  0.54876968  0.78554065  1  0.142967  0  0.120058  0.122771  0  1.00929  0
H  H5  1  0.72958645  0.95123712  0.28553866  1  0.142781  0  0.120086  0.122832  0  1.009188  0
H  H6  1  0.22959033  0.45123082  0.21445873  1  0.142998  0  0.120052  0.12277  0  1.009301  0
H  H7  1  0.27041331  0.04876420  0.71446532  1  0.142749  0  0.120051  0.122839  0  1.009196  0
H  H8  1  0.55929672  0.31194650  0.79888915  1  0.196573  0  0.125092  0.134001  0  1.031624  0
H  H9  1  0.94070778  0.18805912  0.29889159  1  0.196538  0  0.12507  0.133966  0  1.031664  0
H  H10  1  0.44070347  0.68805573  0.20111107  1  0.196528  0  0.125083  0.13397  0  1.031689  0
H  H11  1  0.05929177  0.81194400  0.70111114  1  0.196538  0  0.125077  0.13394  0  1.031697  0
H  H12  1  0.99701465  0.33992920  0.85606131  1  0.135326  0  0.133501  0.096935  0  1.028459  0
H  H13  1  0.50298720  0.16007871  0.35606015  1  0.136889  0  0.133502  0.09689  0  1.028507  0
H  H14  1  0.00298704  0.66006494  0.14393430  1  0.13595  0  0.133521  0.097013  0  1.028496  0
H  H15  1  0.49700872  0.83992796  0.64393629  1  0.13677  0  0.133496  0.096941  0  1.02844  0
H  H16  1  0.52499985  0.11544523  0.78238883  1  0.075741  0  0.109459  0.118687  0  1.016243  0
H  H17  1  0.97499899  0.38456376  0.28238672  1  0.076066  0  0.109425  0.118694  0  1.016192  0
H  H18  1  0.47499224  0.88455779  0.21761306  1  0.075981  0  0.109429  0.118624  0  1.016283  0
H  H19  1  0.02499544  0.61544199  0.71761140  1  0.075897  0  0.109456  0.118686  0  1.016262  0
H  H20  1  0.42274564  0.89505050  0.80566302  1  0.139586  0  0.110119  0.13505  0  1.013882  0
H  H21  1  0.07725330  0.60495925  0.30566035  1  0.139521  0  0.110117  0.135093  0  1.013927  0
H  H22  1  0.57724602  0.10495161  0.19433971  1  0.139651  0  0.110145  0.135112  0  1.013823  0
H  H23  1  0.92274582  0.39504747  0.69434154  1  0.139488  0  0.110124  0.13512  0  1.013856  0
H  H24  1  0.76361503  0.96436181  0.93533083  1  0.075525  0  0.106761  0.122737  0  1.000813  0
H  H25  1  0.73638666  0.53564997  0.43532941  1  0.075235  0  0.106792  0.122797  0  1.000938  0
H  H26  1  0.23639135  0.03563780  0.06466688  1  0.075412  0  0.106763  0.122799  0  1.000911  0
H  H27  1  0.26360777  0.46435128  0.56467123  1  0.07539  0  0.10677  0.122774  0  1.000821  0
H  H28  1  0.86346791  0.18364246  0.91336188  1  0.039023  0  0.103799  0.107273  0  1.003965  0
H  H29  1  0.63654281  0.31636971  0.41336387  1  0.039131  0  0.103814  0.107277  0  1.003934  0
H  H30  1  0.13654039  0.81635898  0.08663373  1  0.039035  0  0.103771  0.107246  0  1.003872  0
H  H31  1  0.36345632  0.68363250  0.58663551  1  0.039135  0  0.103806  0.107276  0  1.003947  0
H  H32  1  0.71473781  0.71048559  0.84327820  1  0.094185  0  0.112512  0.133394  0  0.99715  0
H  H33  1  0.78526672  0.78954161  0.34327486  1  0.094121  0  0.112541  0.133538  0  0.997041  0
H  H34  1  0.28526472  0.28953290  0.15672244  1  0.094192  0  0.112546  0.133474  0  0.997116  0
H  H35  1  0.21474478  0.21045987  0.65673164  1  0.093933  0  0.112552  0.133582  0  0.997121  0
H  H36  1  0.82566738  0.58540344  0.89598619  1  0.076628  0  0.102034  0.101044  0  1.064913  0
H  H37  1  0.67434049  0.91462519  0.39598628  1  0.076163  0  0.102009  0.100925  0  1.064951  0
H  H38  1  0.17433793  0.41461418  0.10401151  1  0.076318  0  0.102015  0.100972  0  1.064965  0
H  H39  1  0.32565885  0.08536621  0.60402189  1  0.075718  0  0.10196  0.100806  0  1.065223  0
H  H40  1  0.59989760  0.63168406  0.04674223  1  0.110479  0  0.109958  0.123035  0  1.004974  0
H  H41  1  0.90007632  0.86830574  0.54674319  1  0.110392  0  0.109899  0.123019  0  1.004917  0
H  H42  1  0.40009534  0.36831176  0.95325631  1  0.110465  0  0.109937  0.12302  0  1.004977  0
H  H43  1  0.09990554  0.13167100  0.45326667  1  0.110794  0  0.10991  0.123045  0  1.004876  0
H  H44  1  0.49444964  0.76114457  0.99358135  1  0.092264  0  0.110727  0.126425  0  0.990938  0
H  H45  1  0.00552632  0.73884947  0.49357746  1  0.092093  0  0.110748  0.126439  0  0.990836  0
H  H46  1  0.50554586  0.23885669  0.00642096  1  0.091853  0  0.110758  0.126473  0  0.990874  0
H  H47  1  0.99446427  0.26113460  0.50642988  1  0.092011  0  0.110788  0.126586  0  0.990865  0
H  H48  1  0.76451329  0.56640165  0.08902091  1  0.166355  0  0.136584  0.107359  0  1.030479  0
H  H49  1  0.73548301  0.93360057  0.58902187  1  0.166368  0  0.136576  0.107369  0  1.030482  0
H  H50  1  0.23549266  0.43360156  0.91097596  1  0.166297  0  0.136561  0.107329  0  1.030453  0
H  H51  1  0.26450972  0.06639254  0.41098463  1  0.166577  0  0.136613  0.107317  0  1.030399  0
H  H52  1  0.78829446  0.40585315  0.93265129  1  0.108217  0  0.121253  0.117981  0  1.050122  0
H  H53  1  0.71171529  0.09416639  0.43265635  1  0.10737  0  0.121199  0.11788  0  1.050154  0
H  H54  1  0.21170700  0.59415631  0.06734348  1  0.107514  0  0.121209  0.117774  0  1.050257  0
H  H55  1  0.28828533  0.90581872  0.56734722  1  0.107175  0  0.121172  0.117853  0  1.050164  0
H  H56  1  0.85893145  0.27873500  0.01924730  1  0.104324  0  0.124333  0.125611  0  0.986762  0
H  H57  1  0.64108778  0.22128268  0.51925580  1  0.104145  0  0.124438  0.125716  0  0.986915  0
H  H58  1  0.14107919  0.72127369  0.98074579  1  0.104263  0  0.124366  0.125637  0  0.98685  0
H  H59  1  0.35891860  0.77871242  0.48074525  1  0.104041  0  0.12441  0.125673  0  0.986794  0
H  H60  1  0.58703459  0.78286994  0.73363486  1  0.104207  0  0.106101  0.126787  0  1.02335  0
H  H61  1  0.91296179  0.71712639  0.23363575  1  0.104131  0  0.106079  0.12677  0  1.023397  0
H  H62  1  0.41296859  0.21712512  0.26636536  1  0.104091  0  0.10609  0.126781  0  1.023364  0
H  H63  1  0.08703819  0.28287313  0.76636405  1  0.104155  0  0.106089  0.126787  0  1.023379  0
H  H64  1  0.77308403  0.57862723  0.62781990  1  0.113125  0  0.106683  0.130862  0  0.995402  0
H  H65  1  0.72692315  0.92137189  0.12781951  1  0.113179  0  0.106674  0.13083  0  0.995512  0
H  H66  1  0.22692042  0.42137506  0.37217655  1  0.113485  0  0.106653  0.130793  0  0.995509  0
H  H67  1  0.27307448  0.07862489  0.87218028  1  0.11316  0  0.106706  0.130918  0  0.995412  0
H  H68  1  0.38622829  0.39177120  0.73439040  1  0.099225  0  0.10145  0.105364  0  1.043972  0
H  H69  1  0.11377503  0.10822580  0.23439145  1  0.099231  0  0.101445  0.105367  0  1.044037  0
H  H70  1  0.61377105  0.60822471  0.26560311  1  0.099235  0  0.101439  0.105322  0  1.044124  0
H  H71  1  0.88622431  0.89177461  0.76560667  1  0.099257  0  0.101459  0.105357  0  1.044066  0
H  H72  1  0.79940861  0.87262366  0.67530545  1  0.654717  0  0.292032  0.350721  0  0.994639  0
H  H73  1  0.70059001  0.62737397  0.17530307  1  0.654729  0  0.292012  0.350644  0  0.994837  0
H  H74  1  0.20059457  0.12737590  0.32469560  1  0.654712  0  0.291998  0.350659  0  0.994745  0
H  H75  1  0.29940656  0.37262280  0.82469421  1  0.654708  0  0.292118  0.350913  0  0.994478  0
C  C76  1  0.78578689  0.47002423  0.80244497  1  0.353273  0  -0.002153  -0.031434  0  3.988705  0
C  C77  1  0.71421611  0.02998501  0.30244357  1  0.353513  0  -0.002192  -0.031599  0  3.988905  0
C  C78  1  0.21421928  0.52997718  0.19755399  1  0.353347  0  -0.002148  -0.031421  0  3.988763  0
C  C79  1  0.28578344  0.97001811  0.69755916  1  0.353627  0  -0.002145  -0.031557  0  3.988933  0
C  C80  1  0.68042401  0.35335942  0.80882737  1  0.298107  0  0.007936  -0.081858  0  3.866788  0
C  C81  1  0.81957767  0.14664715  0.30882822  1  0.29803  0  0.007991  -0.081677  0  3.866868  0
C  C82  1  0.31957789  0.64664193  0.19117201  1  0.297681  0  0.007954  -0.081804  0  3.86684  0
C  C83  1  0.18042124  0.85335686  0.69117409  1  0.298181  0  0.008016  -0.081606  0  3.866793  0
C  C84  1  0.90786371  0.36707405  0.84006960  1  0.959993  0  0.135473  0.084433  0  3.942912  0
C  C85  1  0.59213759  0.13293461  0.34006866  1  0.958962  0  0.135503  0.084505  0  3.943146  0
C  C86  1  0.09214011  0.63292463  0.15992684  1  0.959406  0  0.135412  0.084173  0  3.943186  0
C  C87  1  0.40785812  0.86706936  0.65993030  1  0.958575  0  0.135591  0.084578  0  3.942813  0
C  C88  1  0.69921527  0.16348179  0.84686763  1  0.24126  0  0.081415  0.139623  0  4.038098  0
C  C89  1  0.80079346  0.33652704  0.34686859  1  0.24147  0  0.081511  0.139697  0  4.03812  0
C  C90  1  0.30078577  0.83651775  0.15313133  1  0.241495  0  0.081432  0.139643  0  4.038031  0
C  C91  1  0.19920694  0.66347790  0.65313205  1  0.241459  0  0.08152  0.1398  0  4.037955  0
C  C92  1  0.57490645  0.08262501  0.81661244  1  0.038232  0  -0.085064  -0.135477  0  3.982799  0
C  C93  1  0.92509775  0.41738257  0.31661217  1  0.037628  0  -0.085056  -0.135492  0  3.982772  0
C  C94  1  0.42508948  0.91737715  0.18338861  1  0.038019  0  -0.085085  -0.135459  0  3.982695  0
C  C95  1  0.07490009  0.58262143  0.68338805  1  0.038012  0  -0.08513  -0.135588  0  3.982851  0
C  C96  1  0.51766175  0.95981708  0.82923739  1  0.02729  0  -0.092505  -0.1604  0  3.949248  0
C  C97  1  0.98234115  0.54019284  0.32923645  1  0.027475  0  -0.092582  -0.16061  0  3.949196  0
C  C98  1  0.48233182  0.04018685  0.17076366  1  0.027347  0  -0.092595  -0.160573  0  3.949133  0
C  C99  1  0.01766096  0.45981122  0.67076586  1  0.027361  0  -0.092549  -0.160542  0  3.949151  0
C  C100  1  0.58480117  0.91780254  0.87239025  1  0.418366  0  0.088726  0.265323  0  4.027547  0
C  C101  1  0.91520065  0.58221046  0.37238910  1  0.418605  0  0.0889  0.265669  0  4.027085  0
C  C102  1  0.41519497  0.08220233  0.12760997  1  0.418195  0  0.088903  0.265656  0  4.027356  0
C  C103  1  0.08480530  0.41779275  0.62761447  1  0.418413  0  0.08875  0.265507  0  4.027191  0
C  C104  1  0.71079598  0.99763724  0.90215602  1  -0.020639  0  -0.106409  -0.200715  0  4.018878  0
C  C105  1  0.78920675  0.50237155  0.40215611  1  -0.020004  0  -0.106529  -0.200918  0  4.019002  0
C  C106  1  0.28920486  0.00236410  0.09784210  1  -0.01994  0  -0.106431  -0.200884  0  4.018971  0
C  C107  1  0.21079152  0.49762885  0.59784536  1  -0.019845  0  -0.106456  -0.200796  0  4.018883  0
C  C108  1  0.76696084  0.12101150  0.88948163  1  0.038831  0  -0.094317  -0.14962  0  4.027485  0
C  C109  1  0.73304809  0.37899862  0.38948406  1  0.038203  0  -0.094355  -0.149619  0  4.027365  0
C  C110  1  0.23304469  0.87899081  0.11051565  1  0.038154  0  -0.094294  -0.149569  0  4.027273  0
C  C111  1  0.26694890  0.62100356  0.61051700  1  0.03804  0  -0.094373  -0.149676  0  4.027283  0
C  C112  1  0.59528733  0.74021697  0.91540888  1  0.458296  0  0.083299  0.244825  0  4.052396  0
C  C113  1  0.90469932  0.75979171  0.41540487  1  0.459221  0  0.083356  0.244961  0  4.052375  0
C  C114  1  0.40470411  0.25978694  0.08459301  1  0.458161  0  0.083246  0.244791  0  4.052451  0
C  C115  1  0.09530300  0.24020153  0.58460164  1  0.458985  0  0.083435  0.245316  0  4.052293  0
C  C116  1  0.69035798  0.69323688  0.88777872  1  0.026131  0  -0.087791  -0.157425  0  3.952681  0
C  C117  1  0.80964076  0.80678344  0.38777581  1  0.02642  0  -0.087771  -0.157662  0  3.952805  0
C  C118  1  0.30964370  0.30677528  0.11222150  1  0.026498  0  -0.087735  -0.157445  0  3.952756  0
C  C119  1  0.19036541  0.19321347  0.61222944  1  0.026544  0  -0.087862  -0.157992  0  3.953129  0
C  C120  1  0.75212204  0.62262155  0.91751626  1  -0.015832  0  -0.089745  -0.143233  0  3.985791  0
C  C121  1  0.74787783  0.87739725  0.41751615  1  -0.01564  0  -0.089737  -0.143004  0  3.985587  0
C  C122  1  0.24787921  0.37738971  0.08248144  1  -0.015636  0  -0.089822  -0.143226  0  3.985837  0
C  C123  1  0.25212173  0.12259235  0.58249035  1  -0.01555  0  -0.089684  -0.142823  0  3.985753  0
C  C124  1  0.71678501  0.59770522  0.97418254  1  0.232842  0  0.086981  0.147946  0  4.022804  0
C  C125  1  0.78320645  0.90230587  0.47418244  1  0.232132  0  0.08691  0.147928  0  4.022627  0
C  C126  1  0.28321241  0.40230238  0.02581642  1  0.232877  0  0.086977  0.14798  0  4.022772  0
C  C127  1  0.21678905  0.09768187  0.52582532  1  0.232982  0  0.086885  0.147935  0  4.02243  0
C  C128  1  0.62706834  0.64960163  0.00241854  1  0.002096  0  -0.090858  -0.151517  0  3.983249  0
C  C129  1  0.87291221  0.85039687  0.50241739  1  0.002308  0  -0.090945  -0.151769  0  3.983173  0
C  C130  1  0.37292780  0.35039874  0.99758126  1  0.002143  0  -0.090858  -0.151526  0  3.983129  0
C  C131  1  0.12707327  0.14958532  0.49759204  1  0.001506  0  -0.090903  -0.151722  0  3.983024  0
C  C132  1  0.56762416  0.72226648  0.97281975  1  -0.00953  0  -0.092949  -0.170286  0  3.988148  0
C  C133  1  0.93235579  0.77773363  0.47281575  1  -0.009203  0  -0.09295  -0.170303  0  3.988215  0
C  C134  1  0.43236963  0.27773566  0.02718172  1  -0.009108  0  -0.092984  -0.17038  0  3.988147  0
C  C135  1  0.06763758  0.22225409  0.52719201  1  -0.008525  0  -0.093045  -0.17059  0  3.988236  0
C  C136  1  0.78373078  0.50615955  0.05869441  1  0.976756  0  0.142584  0.092855  0  3.907593  0
C  C137  1  0.71626888  0.99384694  0.55869681  1  0.976804  0  0.142682  0.0928  0  3.90777  0
C  C138  1  0.21627624  0.49384818  0.94130162  1  0.976817  0  0.14272  0.092986  0  3.907698  0
C  C139  1  0.28372342  0.00614526  0.44130885  1  0.976817  0  0.142577  0.092987  0  3.907287  0
C  C140  1  0.79757999  0.42098685  0.97740701  1  0.279972  0  0.001763  -0.098936  0  3.912495  0
C  C141  1  0.70242953  0.07902859  0.47741204  1  0.28098  0  0.001933  -0.098696  0  3.912272  0
C  C142  1  0.20242489  0.57902085  0.02258776  1  0.280979  0  0.001902  -0.098391  0  3.91229  0
C  C143  1  0.29757131  0.92095923  0.52259278  1  0.281523  0  0.001998  -0.098592  0  3.912461  0
C  C144  1  0.83188696  0.35908741  0.02027402  1  0.447913  0  0.00121  -0.032006  0  4.006919  0
C  C145  1  0.66812437  0.14092926  0.52028143  1  0.448027  0  0.000998  -0.032355  0  4.007237  0
C  C146  1  0.16811984  0.64092212  0.97971949  1  0.447809  0  0.001099  -0.032334  0  4.007197  0
C  C147  1  0.33187711  0.85906217  0.47972172  1  0.44788  0  0.001022  -0.032262  0  4.007029  0
C  C148  1  0.35463035  0.59040313  0.77842023  1  1.539169  0  0.20423  0.577228  0  4.184553  0
C  C149  1  0.14536746  0.90959464  0.27842161  1  1.538819  0  0.204183  0.577179  0  4.184906  0
C  C150  1  0.64536942  0.40959369  0.22157621  1  1.538651  0  0.204216  0.577264  0  4.184556  0
C  C151  1  0.85463038  0.09040485  0.72157818  1  1.538833  0  0.204159  0.577186  0  4.184762  0
C  C152  1  0.47347651  0.58773107  0.73770460  1  -0.062236  0  -0.022788  -0.014404  0  4.028002  0
C  C153  1  0.02652023  0.91226360  0.23770659  1  -0.062213  0  -0.022806  -0.014452  0  4.028062  0
C  C154  1  0.52652240  0.41226392  0.26229184  1  -0.062018  0  -0.02274  -0.014292  0  4.028032  0
C  C155  1  0.97347740  0.08773318  0.76229279  1  -0.061788  0  -0.0228  -0.014398  0  4.02808  0
C  C156  1  0.58507698  0.69665823  0.71780970  1  -0.01067  0  -0.105227  -0.248564  0  3.949916  0
C  C157  1  0.91492055  0.80333798  0.21781082  1  -0.010733  0  -0.10521  -0.248538  0  3.950007  0
C  C158  1  0.41492492  0.30333862  0.28218842  1  -0.010736  0  -0.105261  -0.248696  0  3.95026  0
C  C159  1  0.08507858  0.19665973  0.78218814  1  -0.010816  0  -0.105238  -0.248607  0  3.950186  0
C  C160  1  0.69274825  0.69412453  0.67774314  1  0.485652  0  0.072949  0.312326  0  4.098576  0
C  C161  1  0.80725248  0.80587316  0.17774317  1  0.485637  0  0.073056  0.312443  0  4.098726  0
C  C162  1  0.30725557  0.30587415  0.32225498  1  0.485695  0  0.07311  0.31257  0  4.098613  0
C  C163  1  0.19274643  0.19412635  0.82225537  1  0.485607  0  0.073095  0.312559  0  4.098665  0
C  C164  1  0.68854017  0.58187835  0.65821300  1  -0.012077  0  -0.095069  -0.211719  0  3.905919  0
C  C165  1  0.81146216  0.91812008  0.15821373  1  -0.012138  0  -0.095048  -0.211665  0  3.905981  0
C  C166  1  0.31146279  0.41812302  0.34178219  1  -0.012273  0  -0.095013  -0.21158  0  3.905834  0
C  C167  1  0.18853483  0.08187760  0.84178522  1  -0.011989  0  -0.095056  -0.21176  0  3.905878  0
C  C168  1  0.57902844  0.47370222  0.67922207  1  -0.045044  0  -0.019565  -0.008942  0  4.010943  0
C  C169  1  0.92097415  0.02629686  0.17922370  1  -0.056135  0  -0.019627  -0.008981  0  4.01104  0
C  C170  1  0.42097410  0.52629824  0.32077270  1  -0.055992  0  -0.019679  -0.009101  0  4.010924  0
C  C171  1  0.07902327  0.97370172  0.82077568  1  -0.056158  0  -0.019646  -0.009015  0  4.010996  0
C  C172  1  0.47105016  0.47666969  0.71875103  1  -0.028082  0  -0.095834  -0.150036  0  3.976809  0
C  C173  1  0.02894941  0.02332802  0.21875283  1  -0.016858  0  -0.095809  -0.150078  0  3.976695  0
C  C174  1  0.52895004  0.52332803  0.28124332  1  -0.017396  0  -0.095771  -0.150013  0  3.976579  0
C  C175  1  0.97104950  0.97667149  0.78124571  1  -0.017322  0  -0.095807  -0.150056  0  3.976709  0
C  C176  1  0.58389466  0.35360292  0.66399899  1  1.547726  0  0.185847  0.552012  0  4.22525  0
C  C177  1  0.91611270  0.14639700  0.16400095  1  1.547745  0  0.185746  0.551738  0  4.225456  0
C  C178  1  0.41611257  0.64639851  0.33599494  1  1.547608  0  0.185688  0.551725  0  4.225317  0
C  C179  1  0.08388514  0.85360249  0.83599801  1  1.547665  0  0.185689  0.551684  0  4.225443  0
N  N180  1  0.92677029  0.47742178  0.82237042  1  -1.207125  0  -0.366114  -0.311876  0  3.563882  0
N  N181  1  0.57323153  0.02258762  0.32236880  1  -1.207621  0  -0.366204  -0.311922  0  3.564173  0
N  N182  1  0.07323310  0.52257599  0.17762686  1  -1.207134  0  -0.366069  -0.311771  0  3.563845  0
N  N183  1  0.42676610  0.97741817  0.67763226  1  -1.206992  0  -0.366276  -0.31205  0  3.563992  0
N  N184  1  0.75921625  0.28888826  0.83310889  1  -1.283126  0  -0.224419  0.019832  0  3.804498  0
N  N185  1  0.74078679  0.21111946  0.33310918  1  -1.28287  0  -0.224429  0.019772  0  3.804625  0
N  N186  1  0.24078479  0.71111128  0.16688882  1  -1.282849  0  -0.224431  0.019895  0  3.804656  0
N  N187  1  0.25920999  0.78888452  0.66689020  1  -1.283314  0  -0.224467  0.019667  0  3.804661  0
N  N188  1  0.76745619  0.51459816  0.00227118  1  -1.26896  0  -0.22311  0.011161  0  3.806088  0
N  N189  1  0.73254376  0.98541232  0.50227353  1  -1.268188  0  -0.223099  0.011355  0  3.80621  0
N  N190  1  0.23254762  0.48540953  0.99772569  1  -1.268923  0  -0.223122  0.011029  0  3.806256  0
N  N191  1  0.26745110  0.01457631  0.49773255  1  -1.269224  0  -0.223048  0.011201  0  3.80597  0
N  N192  1  0.82303209  0.41329613  0.07045022  1  -1.194112  0  -0.357607  -0.289807  0  3.575194  0
N  N193  1  0.67697705  0.08671467  0.57045412  1  -1.194694  0  -0.357653  -0.289771  0  3.575285  0
N  N194  1  0.17697813  0.58671165  0.92954581  1  -1.194428  0  -0.357739  -0.289883  0  3.575452  0
N  N195  1  0.32302122  0.91328122  0.42954861  1  -1.194338  0  -0.357654  -0.289923  0  3.575238  0
O  O196  1  0.32728566  0.68725097  0.78002522  1  -1.138394  0  -0.320857  -0.529584  0  2.287603  0
O  O197  1  0.17271875  0.81274961  0.28002546  1  -1.138074  0  -0.320809  -0.529579  0  2.287812  0
O  O198  1  0.67272285  0.31274867  0.21997165  1  -1.137848  0  -0.320827  -0.52965  0  2.287688  0
O  O199  1  0.82727909  0.18724988  0.71997517  1  -1.138095  0  -0.320766  -0.529553  0  2.287791  0
O  O200  1  0.28286212  0.49856048  0.80915805  1  -1.204056  0  -0.325394  -0.578479  0  2.231976  0
O  O201  1  0.21713397  0.00143621  0.30916076  1  -1.204059  0  -0.325394  -0.578397  0  2.232104  0
O  O202  1  0.71713359  0.50143448  0.19083630  1  -1.203995  0  -0.32541  -0.578421  0  2.232063  0
O  O203  1  0.78286131  0.99856235  0.69084071  1  -1.20409  0  -0.325388  -0.578443  0  2.232105  0
O  O204  1  0.67275966  0.34712476  0.62504158  1  -1.163466  0  -0.34116  -0.556984  0  2.144893  0
O  O205  1  0.82725709  0.15287854  0.12504034  1  -1.163439  0  -0.341112  -0.556872  0  2.144938  0
O  O206  1  0.32725675  0.65288040  0.37495570  1  -1.163279  0  -0.341049  -0.556809  0  2.144919  0
O  O207  1  0.17274182  0.84712097  0.87495820  1  -1.163249  0  -0.341057  -0.556795  0  2.144913  0
O  O208  1  0.50320170  0.26113675  0.69358619  1  -1.175526  0  -0.341265  -0.571804  0  2.197303  0
O  O209  1  0.99680401  0.23886251  0.19358911  1  -1.175605  0  -0.341188  -0.571602  0  2.197307  0
O  O210  1  0.49680446  0.73886466  0.30640774  1  -1.175718  0  -0.341187  -0.571638  0  2.197174  0
O  O211  1  0.00319447  0.76113609  0.80640985  1  -1.175626  0  -0.341171  -0.571608  0  2.197275  0
O  O212  1  0.80286737  0.79727973  0.65681242  1  -1.201237  0  -0.370538  -0.487801  0  2.311903  0
O  O213  1  0.69714009  0.70272056  0.15681108  1  -1.201237  0  -0.370602  -0.487819  0  2.31226  0
O  O214  1  0.19714200  0.20272173  0.34318779  1  -1.201203  0  -0.37063  -0.487894  0  2.312026  0
O  O215  1  0.30286138  0.29727988  0.84318746  1  -1.201189  0  -0.370749  -0.488154  0  2.311956  0
O  O216  1  0.51653673  0.79578543  0.88434052  1  -1.094619  0  -0.151791  -0.216147  0  2.59866  0
O  O217  1  0.98345414  0.70422933  0.38433457  1  -1.095753  0  -0.151796  -0.216214  0  2.598549  0
O  O218  1  0.48345493  0.20422118  0.11566263  1  -1.094776  0  -0.151794  -0.216192  0  2.59871  0
O  O219  1  0.01655394  0.29576940  0.61567277  1  -1.095667  0  -0.151663  -0.216232  0  2.598543  0
