# generated using pymatgen
data_Tm2H21C27NO14
_symmetry_space_group_name_H-M   'P 1'
_cell_length_a   10.82230815
_cell_length_b   18.63176945
_cell_length_c   19.45220767
_cell_angle_alpha   97.95369798
_cell_angle_beta   94.56271598
_cell_angle_gamma   106.14755242
_symmetry_Int_Tables_number   1
_chemical_formula_structural   Tm2H21C27NO14
_chemical_formula_sum   'Tm8 H84 C108 N4 O56'
_cell_volume   3702.50232287
_cell_formula_units_Z   4
loop_
 _symmetry_equiv_pos_site_id
 _symmetry_equiv_pos_as_xyz
  1  'x, y, z'
loop_
 _atom_site_type_symbol
 _atom_site_label
 _atom_site_symmetry_multiplicity
 _atom_site_fract_x
 _atom_site_fract_y
 _atom_site_fract_z
 _atom_site_occupancy
 _atom_site_pbe_bader_charge
 _atom_site_pbe_bader_spin_density
 _atom_site_pbe_cm5_charge
 _atom_site_pbe_ddec_charge
 _atom_site_pbe_ddec_spin_density
 _atom_site_pbe_ddec_sum_bond_order
 _atom_site_pbe_magmom
Tm  Tm0  1  0.82411766  0.10790113  0.20686423  1  2.211617  0  1.570802  2.136737  0  2.170936  0
Tm  Tm1  1  0.17587996  0.89209848  0.79313357  1  2.211753  0  1.570768  2.136602  0  2.17103  0
Tm  Tm2  1  0.82565146  0.39965130  0.20425919  1  2.212566  0  1.577183  2.139301  0  2.181833  0
Tm  Tm3  1  0.17434849  0.60034548  0.79573630  1  2.212617  0  1.577115  2.13923  0  2.181702  0
Tm  Tm4  1  0.76189240  0.60893968  0.26664574  1  2.192471  0  1.576512  2.126176  0  2.222916  0
Tm  Tm5  1  0.23811048  0.39106330  0.73335792  1  2.192521  0  1.576496  2.125966  0  2.223163  0
Tm  Tm6  1  0.76071880  0.89754600  0.26904161  1  2.190118  0  1.5728  2.125076  0  2.216283  0
Tm  Tm7  1  0.23928188  0.10245983  0.73096026  1  2.19003  0  1.572897  2.125203  0  2.216162  0
H  H8  1  0.03855105  0.10804110  0.08658797  1  0.105141  0  0.1272  0.052495  0  1.006464  0
H  H9  1  0.96144987  0.89196700  0.91341370  1  0.10572  0  0.127183  0.052461  0  1.006365  0
H  H10  1  0.94458166  0.37652406  0.92988024  1  0.035259  0  0.107857  0.115219  0  1.017343  0
H  H11  1  0.05541193  0.62348012  0.07011331  1  0.035135  0  0.107816  0.115258  0  1.017352  0
H  H12  1  0.08168461  0.34255204  0.91855879  1  0.085209  0  0.111604  0.127397  0  0.978776  0
H  H13  1  0.91831426  0.65744985  0.08143629  1  0.085181  0  0.111587  0.127297  0  0.978902  0
H  H14  1  0.10321023  0.44163939  0.93974648  1  0.084598  0  0.108205  0.131555  0  0.993361  0
H  H15  1  0.89679119  0.55836760  0.06025044  1  0.084847  0  0.108252  0.13159  0  0.993338  0
H  H16  1  0.86823193  0.37549956  0.02847593  1  0.116257  0  0.129082  0.056067  0  0.990538  0
H  H17  1  0.13175901  0.62451030  0.97151721  1  0.116004  0  0.129111  0.056097  0  0.990512  0
H  H18  1  0.48406834  0.10431927  0.21962372  1  0.108923  0  0.109818  0.121161  0  1.024725  0
H  H19  1  0.51593907  0.89568145  0.78037628  1  0.108938  0  0.109808  0.121165  0  1.024717  0
H  H20  1  0.26067014  0.11950820  0.20305918  1  0.085936  0  0.103992  0.107968  0  1.013313  0
H  H21  1  0.73933421  0.88049538  0.79693693  1  0.085803  0  0.103966  0.107965  0  1.013265  0
H  H22  1  0.22529081  0.34284749  0.02830934  1  0.055247  0  0.106426  0.118407  0  0.978707  0
H  H23  1  0.77469500  0.65714928  0.97169310  1  0.055197  0  0.106395  0.11843  0  0.978734  0
H  H24  1  0.17965000  0.37589906  0.11081350  1  0.105097  0  0.11398  0.135588  0  1.010794  0
H  H25  1  0.82032305  0.62409435  0.88918576  1  0.105176  0  0.113969  0.13553  0  1.010823  0
H  H26  1  0.25573458  0.44189272  0.05690252  1  0.08603  0  0.103606  0.119514  0  1.001057  0
H  H27  1  0.74425789  0.55810458  0.94310395  1  0.08589  0  0.103588  0.119425  0  1.001062  0
H  H28  1  0.10105035  0.90193309  0.26246754  1  0.128376  0  0.107504  0.119546  0  1.022057  0
H  H29  1  0.89894555  0.09806825  0.73752422  1  0.128398  0  0.107531  0.119548  0  1.022047  0
H  H30  1  0.32401790  0.88596291  0.27716808  1  0.095103  0  0.103874  0.107224  0  1.014901  0
H  H31  1  0.67597368  0.11403730  0.72282485  1  0.094789  0  0.103824  0.107145  0  1.014829  0
H  H32  1  0.96378897  0.21933577  0.42129001  1  0.105578  0  0.112792  0.122145  0  0.984359  0
H  H33  1  0.03620329  0.78067573  0.57871781  1  0.106222  0  0.112773  0.122212  0  0.984317  0
H  H34  1  0.05652130  0.27901309  0.54625707  1  0.106107  0  0.104235  0.102409  0  1.03573  0
H  H35  1  0.94348560  0.72099610  0.45374969  1  0.106319  0  0.104191  0.102347  0  1.035637  0
H  H36  1  0.96676677  0.05845474  0.60544821  1  0.091697  0  0.111021  0.110386  0  1.012893  0
H  H37  1  0.03323811  0.94154826  0.39455094  1  0.09197  0  0.110995  0.110341  0  1.012924  0
H  H38  1  0.86975227  0.99969354  0.48303163  1  0.038717  0  0.103142  0.10244  0  1.022678  0
H  H39  1  0.13025346  0.00032023  0.51696847  1  0.038851  0  0.103102  0.102376  0  1.02242  0
H  H40  1  0.58727368  0.27992004  0.03637157  1  0.135571  0  0.105849  0.110636  0  1.024571  0
H  H41  1  0.41272530  0.72007725  0.96363422  1  0.13556  0  0.105864  0.110544  0  1.024712  0
H  H42  1  0.43297681  0.21634166  0.92611713  1  0.098718  0  0.105588  0.114468  0  1.000266  0
H  H43  1  0.56703710  0.78365562  0.07388586  1  0.09874  0  0.105582  0.114356  0  1.000232  0
H  H44  1  0.36348684  0.00273872  0.99814248  1  0.104158  0  0.10447  0.110385  0  1.013533  0
H  H45  1  0.63651620  0.99725914  0.00186155  1  0.104227  0  0.104499  0.110462  0  1.013412  0
H  H46  1  0.52231165  0.06494509  0.10540391  1  0.104497  0  0.108865  0.105317  0  1.030865  0
H  H47  1  0.47768326  0.93505163  0.89460416  1  0.10465  0  0.108942  0.105391  0  1.030987  0
H  H48  1  0.14124044  0.43786739  0.30273534  1  0.102544  0  0.11203  0.111928  0  1.008219  0
H  H49  1  0.85875522  0.56213392  0.69726412  1  0.102505  0  0.112024  0.111929  0  1.008336  0
H  H50  1  0.37958487  0.49891884  0.30646901  1  0.104828  0  0.103346  0.103774  0  1.013814  0
H  H51  1  0.62041746  0.50107563  0.69353196  1  0.104749  0  0.103352  0.103838  0  1.013726  0
H  H52  1  0.42510228  0.28774523  0.20967964  1  0.086338  0  0.10814  0.117126  0  0.994556  0
H  H53  1  0.57490301  0.71225321  0.79032098  1  0.086672  0  0.108084  0.11706  0  0.994549  0
H  H54  1  0.18519033  0.22507638  0.20989306  1  0.064188  0  0.106146  0.109136  0  1.025784  0
H  H55  1  0.81481803  0.77492433  0.79010597  1  0.064212  0  0.106168  0.109183  0  1.025803  0
H  H56  1  0.15451409  0.73283986  0.22757662  1  0.089239  0  0.107168  0.114935  0  0.996987  0
H  H57  1  0.84548536  0.26715461  0.77242728  1  0.089151  0  0.107165  0.1149  0  0.997044  0
H  H58  1  0.39681829  0.78806064  0.23006587  1  0.088731  0  0.105706  0.111353  0  1.034799  0
H  H59  1  0.60318054  0.21193782  0.76993390  1  0.088906  0  0.105721  0.111341  0  1.034787  0
H  H60  1  0.43559201  0.56305171  0.19433422  1  0.073724  0  0.108749  0.103575  0  1.02924  0
H  H61  1  0.56441396  0.43694446  0.80566717  1  0.073699  0  0.108767  0.103615  0  1.029233  0
H  H62  1  0.19478705  0.50850430  0.19047094  1  0.120332  0  0.105568  0.10924  0  1.028508  0
H  H63  1  0.80521649  0.49149074  0.80953016  1  0.12024  0  0.105599  0.109306  0  1.02847  0
H  H64  1  0.58324697  0.59988748  0.10523754  1  0.128571  0  0.106358  0.117869  0  1.050466  0
H  H65  1  0.41673466  0.40011779  0.89477094  1  0.128726  0  0.106408  0.11795  0  1.050535  0
H  H66  1  0.58085115  0.38676105  0.98720576  1  0.065664  0  0.103132  0.106723  0  1.011745  0
H  H67  1  0.41912678  0.61324251  0.01280437  1  0.06553  0  0.103175  0.106909  0  1.011424  0
H  H68  1  0.92784987  0.61258998  0.48360644  1  0.063255  0  0.100203  0.100362  0  1.028088  0
H  H69  1  0.07216536  0.38741249  0.51637930  1  0.063094  0  0.100143  0.100363  0  1.028147  0
H  H70  1  0.96546764  0.39561782  0.39876681  1  0.099205  0  0.109849  0.121578  0  1.00156  0
H  H71  1  0.03455142  0.60438177  0.60122750  1  0.099751  0  0.109884  0.121613  0  1.001705  0
H  H72  1  0.59307716  0.58274042  0.36459542  1  0.616225  0  0.322921  0.411929  0  0.890671  0
H  H73  1  0.40692437  0.41725631  0.63540888  1  0.616214  0  0.322993  0.412044  0  0.890511  0
H  H74  1  0.68779630  0.66168171  0.40236312  1  0.633874  0  0.338212  0.423739  0  0.858163  0
H  H75  1  0.31220122  0.33831617  0.59763959  1  0.633852  0  0.338251  0.423772  0  0.858135  0
H  H76  1  0.70725314  0.91649645  0.40144809  1  0.663002  0  0.313289  0.400278  0  0.914418  0
H  H77  1  0.29274679  0.08350993  0.59855741  1  0.663081  0  0.313327  0.400241  0  0.914487  0
H  H78  1  0.58448171  0.85120718  0.36672182  1  0.615858  0  0.334587  0.42412  0  0.856684  0
H  H79  1  0.41552150  0.14879465  0.63328222  1  0.615807  0  0.334671  0.424134  0  0.856701  0
H  H80  1  0.10469573  0.14944188  0.92931491  1  0.064992  0  0.111112  0.128921  0  0.976046  0
H  H81  1  0.89530727  0.85056111  0.07068517  1  0.065004  0  0.111065  0.128891  0  0.976109  0
H  H82  1  0.00440806  0.05382457  0.91554587  1  0.04876  0  0.107114  0.125268  0  0.994981  0
H  H83  1  0.99559687  0.94617672  0.08445357  1  0.048723  0  0.107117  0.125252  0  0.994925  0
H  H84  1  0.12108213  0.08983094  0.99159591  1  0.069884  0  0.110151  0.120421  0  1.004977  0
H  H85  1  0.87892245  0.91017148  0.00840366  1  0.069875  0  0.110144  0.120399  0  1.004942  0
H  H86  1  0.80430437  0.10251462  0.91218471  1  0.064363  0  0.107537  0.121732  0  0.990944  0
H  H87  1  0.19569532  0.89747817  0.08781333  1  0.064517  0  0.107553  0.121758  0  0.990919  0
H  H88  1  0.89810587  0.19963210  0.93279499  1  0.077502  0  0.105843  0.116333  0  0.986293  0
H  H89  1  0.10188573  0.80036297  0.06720241  1  0.077336  0  0.105865  0.116365  0  0.986203  0
H  H90  1  0.78665122  0.16017038  0.99074541  1  0.115747  0  0.115191  0.137181  0  1.004957  0
H  H91  1  0.21334358  0.83982186  0.00925177  1  0.115499  0  0.115175  0.137132  0  1.004857  0
C  C92  1  0.95947288  0.12736130  0.06337674  1  1.380744  0  0.187172  0.3275  0  4.086893  0
C  C93  1  0.04052504  0.87263545  0.93662430  1  1.380549  0  0.187083  0.327436  0  4.08683  0
C  C94  1  0.54935195  0.98315041  0.25518260  1  1.596422  0  0.229585  0.654571  0  4.145591  0
C  C95  1  0.45064865  0.01684803  0.74481983  1  1.596249  0  0.229605  0.654721  0  4.145271  0
C  C96  1  0.04679881  0.38561199  0.94888092  1  0.277073  0  -0.1287  -0.281129  0  3.916018  0
C  C97  1  0.95320125  0.61439046  0.05111482  1  0.276616  0  -0.128681  -0.281017  0  3.916122  0
C  C98  1  0.41685030  0.99379619  0.24845467  1  -0.080032  0  -0.013331  -0.030325  0  3.934531  0
C  C99  1  0.58314184  0.00619831  0.75154576  1  -0.08  0  -0.013334  -0.030501  0  3.935088  0
C  C100  1  0.95921420  0.37717443  0.05955017  1  1.356258  0  0.189046  0.332928  0  4.078007  0
C  C101  1  0.04077568  0.62283147  0.94044136  1  1.356574  0  0.188883  0.33282  0  4.078394  0
C  C102  1  0.39935946  0.06006252  0.22811996  1  0.004108  0  -0.080426  -0.092267  0  3.948827  0
C  C103  1  0.60063887  0.93993482  0.77187706  1  0.004114  0  -0.080413  -0.092167  0  3.949164  0
C  C104  1  0.27545730  0.06838783  0.21897138  1  -0.083195  0  -0.082892  -0.092648  0  3.967456  0
C  C105  1  0.72453958  0.93161405  0.78102771  1  -0.083008  0  -0.08285  -0.092712  0  3.967507  0
C  C106  1  0.16764462  0.01126229  0.23091703  1  -0.050383  0  -0.015838  -0.039686  0  3.959351  0
C  C107  1  0.83235685  0.98873391  0.76908001  1  -0.050405  0  -0.015836  -0.03954  0  3.959196  0
C  C108  1  0.18765901  0.38570003  0.05693661  1  0.229869  0  -0.128535  -0.262248  0  3.869659  0
C  C109  1  0.81232868  0.61429674  0.94306543  1  0.229891  0  -0.128551  -0.262154  0  3.869625  0
C  C110  1  0.03458018  0.02090296  0.22285559  1  1.570027  0  0.227942  0.641736  0  4.172994  0
C  C111  1  0.96542036  0.97909666  0.77713773  1  1.568188  0  0.227917  0.641657  0  4.173029  0
C  C112  1  0.18534084  0.94542062  0.25230750  1  -0.043244  0  -0.084049  -0.0984  0  3.961256  0
C  C113  1  0.81465786  0.05457559  0.74768888  1  -0.043133  0  -0.084153  -0.098542  0  3.961077  0
C  C114  1  0.30901662  0.93678947  0.26071618  1  -0.026871  0  -0.084711  -0.097272  0  3.975724  0
C  C115  1  0.69097411  0.06320562  0.73927962  1  -0.026611  0  -0.084575  -0.097045  0  3.975613  0
C  C116  1  0.86414143  0.06898908  0.37027934  1  1.59797  0  0.239465  0.670469  0  4.122036  0
C  C117  1  0.13586152  0.93102693  0.62972760  1  1.598756  0  0.239557  0.670252  0  4.122205  0
C  C118  1  0.91207516  0.10591942  0.44471931  1  -0.05762  0  -0.012629  -0.035074  0  3.942706  0
C  C119  1  0.08791375  0.89408871  0.55528120  1  -0.057402  0  -0.012644  -0.035068  0  3.94233  0
C  C120  1  0.96404005  0.18495302  0.46232607  1  -0.003645  0  -0.078022  -0.085498  0  3.952629  0
C  C121  1  0.03593801  0.81505228  0.53767812  1  -0.004365  0  -0.077979  -0.08546  0  3.952468  0
C  C122  1  0.01650409  0.21773254  0.53096561  1  -0.06322  0  -0.082254  -0.097127  0  3.968223  0
C  C123  1  0.98349277  0.78227499  0.46903782  1  -0.06329  0  -0.082334  -0.097295  0  3.968058  0
C  C124  1  0.02010406  0.17210858  0.58236738  1  -0.051191  0  -0.011908  -0.038311  0  3.947935  0
C  C125  1  0.97989505  0.82789782  0.41763448  1  -0.051211  0  -0.011869  -0.038194  0  3.948053  0
C  C126  1  0.08906343  0.20680299  0.65431575  1  1.591125  0  0.245362  0.679409  0  4.133335  0
C  C127  1  0.91093640  0.79320509  0.34569100  1  1.591213  0  0.24551  0.679741  0  4.133349  0
C  C128  1  0.96434352  0.09348505  0.56521874  1  -0.04615  0  -0.080493  -0.093175  0  3.973187  0
C  C129  1  0.03564855  0.90651628  0.43477693  1  -0.046623  0  -0.080474  -0.093237  0  3.973408  0
C  C130  1  0.91009414  0.06089968  0.49696515  1  0.030873  0  -0.085193  -0.095812  0  3.984237  0
C  C131  1  0.08989339  0.93910734  0.50303103  1  0.030339  0  -0.085164  -0.095683  0  3.983628  0
C  C132  1  0.65998168  0.21332531  0.14047839  1  1.610445  0  0.24472  0.678558  0  4.136105  0
C  C133  1  0.34001198  0.78667427  0.85952690  1  1.610709  0  0.244824  0.678659  0  4.136012  0
C  C134  1  0.56357902  0.17596290  0.07679875  1  -0.006558  0  -0.012315  -0.04204  0  3.944348  0
C  C135  1  0.43641530  0.82403439  0.92320782  1  -0.005882  0  -0.012238  -0.041885  0  3.944303  0
C  C136  1  0.53772542  0.21918675  0.02679283  1  -0.06978  0  -0.083536  -0.098681  0  3.971439  0
C  C137  1  0.46227449  0.78081055  0.97321301  1  -0.070722  0  -0.083716  -0.098822  0  3.971551  0
C  C138  1  0.45205241  0.18432501  0.96654512  1  -0.037444  0  -0.086154  -0.097154  0  3.970022  0
C  C139  1  0.54795603  0.81567058  0.03345684  1  -0.036765  0  -0.085947  -0.096579  0  3.969817  0
C  C140  1  0.38941030  0.10601847  0.95626973  1  -0.103527  0  -0.018366  -0.044407  0  3.956733  0
C  C141  1  0.61059447  0.89397714  0.04373101  1  -0.103976  0  -0.018464  -0.044933  0  3.957176  0
C  C142  1  0.30304575  0.06755386  0.88953304  1  1.559266  0  0.231397  0.652051  0  4.161064  0
C  C143  1  0.69696575  0.93244401  0.11046732  1  1.559979  0  0.23154  0.652296  0  4.160804  0
C  C144  1  0.41266136  0.06337159  0.00713501  1  -0.065582  0  -0.084897  -0.094988  0  3.973628  0
C  C145  1  0.58733720  0.93662460  0.99286598  1  -0.065481  0  -0.085003  -0.095019  0  3.973573  0
C  C146  1  0.50039091  0.09796181  0.06663274  1  -0.043999  0  -0.080436  -0.097083  0  3.981387  0
C  C147  1  0.49960509  0.90203494  0.93337025  1  -0.04415  0  -0.08056  -0.097286  0  3.981652  0
C  C148  1  0.00704074  0.29229668  0.25152714  1  1.640996  0  0.246098  0.682714  0  4.13267  0
C  C149  1  0.99295956  0.70769896  0.74846822  1  1.640374  0  0.246198  0.68286  0  4.133027  0
C  C150  1  0.15031766  0.32816752  0.25563736  1  -0.095211  0  -0.008999  -0.033753  0  3.946742  0
C  C151  1  0.84969087  0.67182637  0.74436335  1  -0.095122  0  -0.009031  -0.033705  0  3.946748  0
C  C152  1  0.20440848  0.40516591  0.28347686  1  -0.075297  0  -0.080204  -0.100056  0  3.984576  0
C  C153  1  0.79560076  0.59483308  0.71652559  1  -0.075684  0  -0.080285  -0.100097  0  3.985033  0
C  C154  1  0.33679358  0.43892935  0.28554423  1  -0.01843  0  -0.084844  -0.09417  0  3.986491  0
C  C155  1  0.66322245  0.56106848  0.71445946  1  -0.018234  0  -0.08478  -0.094122  0  3.986448  0
C  C156  1  0.41596451  0.39673185  0.25828335  1  0.022626  0  -0.017414  -0.042239  0  3.955388  0
C  C157  1  0.58404170  0.60326316  0.74172099  1  0.023124  0  -0.017485  -0.042505  0  3.955371  0
C  C158  1  0.55650523  0.43471436  0.25592972  1  1.587234  0  0.236048  0.664557  0  4.130381  0
C  C159  1  0.44349184  0.56528069  0.74407053  1  1.587183  0  0.236018  0.664583  0  4.130155  0
C  C160  1  0.36180576  0.31944366  0.23074026  1  -0.064306  0  -0.081735  -0.090734  0  3.965256  0
C  C161  1  0.63820129  0.68055305  0.76926537  1  -0.064688  0  -0.081626  -0.090482  0  3.965178  0
C  C162  1  0.22983775  0.28516572  0.23020979  1  -0.001268  0  -0.082176  -0.098332  0  3.968487  0
C  C163  1  0.77017111  0.71483045  0.76978815  1  -0.001363  0  -0.082156  -0.098471  0  3.968482  0
C  C164  1  0.02050574  0.58488275  0.21456346  1  1.553196  0  0.232948  0.655532  0  4.150344  0
C  C165  1  0.97950076  0.41511455  0.78543913  1  1.553355  0  0.232962  0.655376  0  4.150225  0
C  C166  1  0.16179920  0.61766701  0.20944116  1  -0.096048  0  -0.014506  -0.033506  0  3.946429  0
C  C167  1  0.83819500  0.38232974  0.79056020  1  -0.095664  0  -0.014495  -0.033532  0  3.945941  0
C  C168  1  0.21741989  0.69658956  0.21947188  1  -0.017836  0  -0.085068  -0.099018  0  3.974739  0
C  C169  1  0.78257838  0.30340606  0.78052902  1  -0.017862  0  -0.085086  -0.09898  0  3.974764  0
C  C170  1  0.35063810  0.72698615  0.22116793  1  -0.038621  0  -0.084384  -0.099621  0  3.970706  0
C  C171  1  0.64936135  0.27301003  0.77883414  1  -0.038993  0  -0.084459  -0.099608  0  3.970866  0
C  C172  1  0.42955296  0.67873692  0.21328409  1  0.034963  0  -0.013921  -0.042118  0  3.947876  0
C  C173  1  0.57045589  0.32126320  0.78671951  1  0.035072  0  -0.013813  -0.042106  0  3.948202  0
C  C174  1  0.57381086  0.71207165  0.22213509  1  1.561539  0  0.244147  0.676511  0  4.139799  0
C  C175  1  0.42620154  0.28793529  0.77786652  1  1.561234  0  0.244211  0.676728  0  4.139742  0
C  C176  1  0.37340702  0.59993221  0.20058836  1  -0.109235  0  -0.080269  -0.092419  0  3.973182  0
C  C177  1  0.62659612  0.40006567  0.79941259  1  -0.109086  0  -0.080328  -0.092486  0  3.973667  0
C  C178  1  0.24000309  0.56956276  0.19842427  1  0.019259  0  -0.083666  -0.095389  0  3.954613  0
C  C179  1  0.75999405  0.43043625  0.80157959  1  0.01899  0  -0.083743  -0.095489  0  3.954881  0
C  C180  1  0.68690693  0.48473069  0.10832250  1  1.580607  0  0.223167  0.633971  0  4.187324  0
C  C181  1  0.31308579  0.51527573  0.89167645  1  1.579833  0  0.223383  0.634204  0  4.187  0
C  C182  1  0.59152534  0.49256704  0.05163146  1  -0.070568  0  -0.014255  -0.034493  0  3.949048  0
C  C183  1  0.40847090  0.50743197  0.94837132  1  -0.070352  0  -0.014208  -0.034335  0  3.948908  0
C  C184  1  0.54624178  0.55660437  0.05882480  1  -0.058786  0  -0.084868  -0.104206  0  3.959878  0
C  C185  1  0.45375437  0.44339463  0.94118107  1  -0.058481  0  -0.084942  -0.1044  0  3.96014  0
C  C186  1  0.54480621  0.43611296  0.99239525  1  -0.01726  0  -0.084295  -0.098461  0  3.977515  0
C  C187  1  0.45518027  0.56388719  0.00761179  1  -0.016809  0  -0.084379  -0.098879  0  3.97734  0
C  C188  1  0.87971666  0.50998776  0.36480247  1  1.594363  0  0.232487  0.66004  0  4.154718  0
C  C189  1  0.12028229  0.49000506  0.63518987  1  1.596174  0  0.232479  0.660017  0  4.154519  0
C  C190  1  0.94086623  0.50463471  0.43488480  1  -0.011022  0  -0.013682  -0.030366  0  3.945276  0
C  C191  1  0.05916302  0.49536090  0.56510438  1  -0.011108  0  -0.013634  -0.030163  0  3.945016  0
C  C192  1  0.95993913  0.56357245  0.49159276  1  -0.055272  0  -0.085261  -0.095485  0  3.979418  0
C  C193  1  0.04008994  0.43642827  0.50839658  1  -0.0554  0  -0.085321  -0.095692  0  3.979586  0
C  C194  1  0.98125865  0.44080038  0.44353427  1  -0.035101  0  -0.081813  -0.093612  0  3.959638  0
C  C195  1  0.01874930  0.55919014  0.55645928  1  -0.035432  0  -0.081788  -0.093655  0  3.959653  0
C  C196  1  0.05155045  0.10388205  0.95558590  1  0.286702  0  -0.127853  -0.277131  0  3.911516  0
C  C197  1  0.94845284  0.89611980  0.04441558  1  0.28666  0  -0.1278  -0.27707  0  3.911322  0
C  C198  1  0.85510349  0.14868257  0.95530029  1  0.219341  0  -0.12666  -0.263057  0  3.879735  0
C  C199  1  0.14489149  0.85131193  0.04469823  1  0.219663  0  -0.126673  -0.263095  0  3.879578  0
N  N200  1  0.95591352  0.12728398  0.99436942  1  -1.200226  0  -0.279088  0.024552  0  3.715962  0
N  N201  1  0.04408897  0.87271447  0.00563209  1  -1.200292  0  -0.279068  0.024635  0  3.715801  0
N  N202  1  0.05986452  0.38082672  0.02300730  1  -1.20226  0  -0.278886  0.023918  0  3.711697  0
N  N203  1  0.94012913  0.61917234  0.97698970  1  -1.201696  0  -0.278793  0.023841  0  3.71177  0
O  O204  1  0.64391847  0.03416374  0.24023997  1  -1.227442  0  -0.408175  -0.720808  0  2.403679  0
O  O205  1  0.35607674  0.96583474  0.75975704  1  -1.227494  0  -0.408189  -0.720841  0  2.403538  0
O  O206  1  0.56159205  0.92234494  0.27404712  1  -1.195336  0  -0.394422  -0.68251  0  2.288516  0
O  O207  1  0.43840189  0.07765126  0.72595311  1  -1.195258  0  -0.394464  -0.682633  0  2.288339  0
O  O208  1  0.01875696  0.07808454  0.19835655  1  -1.190317  0  -0.381955  -0.667164  0  2.303378  0
O  O209  1  0.98124584  0.92192184  0.80164601  1  -1.190255  0  -0.381958  -0.667202  0  2.303363  0
O  O210  1  0.94224063  0.97127493  0.24143529  1  -1.221558  0  -0.422293  -0.73043  0  2.432521  0
O  O211  1  0.05775857  0.02872582  0.75856017  1  -1.219826  0  -0.422276  -0.730357  0  2.432435  0
O  O212  1  0.87803031  0.11012005  0.32320473  1  -1.205279  0  -0.386136  -0.658521  0  2.300139  0
O  O213  1  0.12196411  0.88988806  0.67679711  1  -1.20577  0  -0.386072  -0.658285  0  2.300232  0
O  O214  1  0.81429622  0.99677146  0.35912849  1  -1.218706  0  -0.408825  -0.717017  0  2.370569  0
O  O215  1  0.18571880  0.00324401  0.64086925  1  -1.218672  0  -0.408918  -0.716975  0  2.370568  0
O  O216  1  0.13254538  0.27808561  0.66862856  1  -1.192801  0  -0.401372  -0.664396  0  2.35173  0
O  O217  1  0.86746328  0.72192305  0.33137205  1  -1.192544  0  -0.401466  -0.664659  0  2.351917  0
O  O218  1  0.10132991  0.16195830  0.69682676  1  -1.207926  0  -0.431156  -0.718381  0  2.340188  0
O  O219  1  0.89866598  0.83804185  0.30317616  1  -1.208197  0  -0.43116  -0.718486  0  2.340099  0
O  O220  1  0.68514379  0.17079732  0.18236781  1  -1.207833  0  -0.425396  -0.70652  0  2.338405  0
O  O221  1  0.31485862  0.82920677  0.81763958  1  -1.208229  0  -0.425463  -0.706518  0  2.338343  0
O  O222  1  0.70863736  0.28427521  0.14879912  1  -1.189469  0  -0.399703  -0.665243  0  2.349  0
O  O223  1  0.29136292  0.71572609  0.85120059  1  -1.189449  0  -0.399732  -0.665336  0  2.349015  0
O  O224  1  0.28870279  0.10981479  0.84508304  1  -1.202612  0  -0.421709  -0.696606  0  2.347112  0
O  O225  1  0.71129248  0.89018423  0.15492123  1  -1.202865  0  -0.421779  -0.696678  0  2.347115  0
O  O226  1  0.25146496  0.99633496  0.88110223  1  -1.179691  0  -0.391893  -0.688324  0  2.336985  0
O  O227  1  0.74855529  0.00366176  0.11889640  1  -1.180124  0  -0.391881  -0.688299  0  2.336997  0
O  O228  1  0.96641105  0.22080953  0.24195405  1  -1.206683  0  -0.41263  -0.672961  0  2.364054  0
O  O229  1  0.03359156  0.77918499  0.75803819  1  -1.206522  0  -0.412642  -0.672995  0  2.364379  0
O  O230  1  0.93564065  0.33607998  0.25871078  1  -1.210327  0  -0.423393  -0.699698  0  2.350405  0
O  O231  1  0.06436188  0.66391966  0.74127855  1  -1.209993  0  -0.423422  -0.699813  0  2.350425  0
O  O232  1  0.60079884  0.50506985  0.28273916  1  -1.217472  0  -0.404786  -0.708  0  2.347389  0
O  O233  1  0.39920630  0.49492462  0.71726093  1  -1.21757  0  -0.404808  -0.707997  0  2.347226  0
O  O234  1  0.62174847  0.39551161  0.22615921  1  -1.196693  0  -0.394669  -0.664052  0  2.330125  0
O  O235  1  0.37824953  0.60449029  0.77383377  1  -1.196645  0  -0.39465  -0.664009  0  2.33004  0
O  O236  1  0.97539916  0.51338109  0.20851255  1  -1.191381  0  -0.401395  -0.710629  0  2.375892  0
O  O237  1  0.02460188  0.48661452  0.79148850  1  -1.191285  0  -0.401354  -0.71049  0  2.375939  0
O  O238  1  0.95489975  0.63162933  0.22610647  1  -1.186702  0  -0.410717  -0.673032  0  2.283047  0
O  O239  1  0.04510596  0.36836628  0.77389380  1  -1.186944  0  -0.410662  -0.672859  0  2.283179  0
O  O240  1  0.61942620  0.78290556  0.23968568  1  -1.18208  0  -0.407696  -0.666343  0  2.377396  0
O  O241  1  0.38057136  0.21710141  0.76031617  1  -1.181739  0  -0.407828  -0.666535  0  2.377516  0
O  O242  1  0.64291231  0.66705102  0.21170526  1  -1.213632  0  -0.429832  -0.712335  0  2.357802  0
O  O243  1  0.35709309  0.33295138  0.78829743  1  -1.213627  0  -0.429824  -0.712401  0  2.357758  0
O  O244  1  0.73483009  0.42949277  0.10015331  1  -1.183211  0  -0.374641  -0.662484  0  2.274635  0
O  O245  1  0.26515992  0.57051419  0.89985225  1  -1.182328  0  -0.374775  -0.662602  0  2.274564  0
O  O246  1  0.71480288  0.53449903  0.16344798  1  -1.213814  0  -0.423111  -0.729051  0  2.469169  0
O  O247  1  0.28520195  0.46550567  0.83655088  1  -1.214042  0  -0.423096  -0.7291  0  2.469106  0
O  O248  1  0.85108474  0.45197187  0.31745121  1  -1.205039  0  -0.407197  -0.690732  0  2.381056  0
O  O249  1  0.14890496  0.54801584  0.68254563  1  -1.20658  0  -0.407186  -0.690769  0  2.380749  0
O  O250  1  0.86099423  0.57314692  0.35669428  1  -1.200771  0  -0.416753  -0.703298  0  2.316752  0
O  O251  1  0.13900594  0.42684646  0.64329820  1  -1.200909  0  -0.416744  -0.703254  0  2.316724  0
O  O252  1  0.88084910  0.14675836  0.10019010  1  -1.172683  0  -0.3576  -0.533619  0  2.375888  0
O  O253  1  0.11913903  0.85323333  0.89980357  1  -1.173045  0  -0.357492  -0.533533  0  2.375873  0
O  O254  1  0.63159282  0.63559438  0.35940133  1  -1.212079  0  -0.603362  -0.799309  0  2.011905  0
O  O255  1  0.36840160  0.36440293  0.64060216  1  -1.212125  0  -0.603471  -0.799448  0  2.011872  0
O  O256  1  0.67793285  0.86303391  0.37888269  1  -1.244093  0  -0.606101  -0.794603  0  1.984947  0
O  O257  1  0.32207308  0.13697476  0.62111623  1  -1.244127  0  -0.606268  -0.794624  0  1.985053  0
O  O258  1  0.96508447  0.37643273  0.12390806  1  -1.170416  0  -0.362911  -0.546393  0  2.399326  0
O  O259  1  0.03490086  0.62356068  0.87608415  1  -1.170666  0  -0.362796  -0.546252  0  2.399557  0
