# generated using pymatgen
data_MnH8(C3N2)4
_symmetry_space_group_name_H-M   'P 1'
_cell_length_a   6.67755984
_cell_length_b   8.34542262
_cell_length_c   11.38286378
_cell_angle_alpha   108.63077304
_cell_angle_beta   87.01299784
_cell_angle_gamma   90.34011208
_symmetry_Int_Tables_number   1
_chemical_formula_structural   MnH8(C3N2)4
_chemical_formula_sum   'Mn2 H16 C24 N16'
_cell_volume   600.23740718
_cell_formula_units_Z   2
loop_
 _symmetry_equiv_pos_site_id
 _symmetry_equiv_pos_as_xyz
  1  'x, y, z'
loop_
 _atom_site_type_symbol
 _atom_site_label
 _atom_site_symmetry_multiplicity
 _atom_site_fract_x
 _atom_site_fract_y
 _atom_site_fract_z
 _atom_site_occupancy
 _atom_site_hle17_ddec_charge
 _atom_site_hle17_ddec_spin_density
 _atom_site_hle17_ddec_sum_bond_order
 _atom_site_hle17_magmom
 _atom_site_hse06_10hf_ddec_charge
 _atom_site_hse06_10hf_ddec_spin_density
 _atom_site_hse06_10hf_ddec_sum_bond_order
 _atom_site_hse06_10hf_magmom
 _atom_site_hse06_ddec_charge
 _atom_site_hse06_ddec_spin_density
 _atom_site_hse06_ddec_sum_bond_order
 _atom_site_hse06_magmom
 _atom_site_pbe_cm5_charge
 _atom_site_pbe_ddec_charge
 _atom_site_pbe_ddec_spin_density
 _atom_site_pbe_ddec_sum_bond_order
 _atom_site_pbe_magmom
Mn  Mn0  1  0.69923012  0.79455143  0.98034127  1  0.593743  1.227474  2.988162  1.203  0.492423  1.152164  3.556043  1.106  0.525882  1.054029  3.504349  1.019  0.734962  0.473687  1.212364  3.58116  1.16
Mn  Mn1  1  0.20507515  0.20728546  0.01872030  1  0.919996  4.777678  2.163399  4.611  0.742229  4.643588  2.706158  4.443  0.795615  4.728359  2.643854  4.532  0.664154  0.702042  4.554686  2.753004  4.341
H  H2  1  0.13071611  0.70633080  0.05696665  1  0.077657  0.000322  0.961788  0.001  0.081843  -0.000301  1.033886  0.0  0.084563  -0.000302  1.030223  0.0  0.121457  0.079753  -0.000284  1.036764  0.0
H  H3  1  0.64083960  0.27663384  0.90189529  1  0.080991  -9.5e-05  0.955522  0.0  0.084995  0.000345  1.025402  0.0  0.088094  0.000157  1.023154  0.0  0.12159  0.082469  0.000546  1.027427  0.001
H  H4  1  0.25519514  0.68935340  0.25405160  1  0.103523  -0.000916  0.962598  -0.001  0.112119  -0.000142  1.023024  0.0  0.115247  -0.000157  1.022169  0.0  0.105884  0.109851  -0.000104  1.023709  0.0
H  H5  1  0.74978298  0.30843833  0.69787594  1  0.100984  0.000216  0.961625  0.0  0.108569  0.000365  1.025226  0.0  0.111979  0.000276  1.024458  0.0  0.103423  0.106041  0.000447  1.026051  0.0
H  H6  1  0.04112883  0.81426784  0.45422219  1  0.093474  0.000405  0.971661  0.001  0.098475  -0.000441  1.043235  0.0  0.102355  -0.000217  1.038366  0.0  0.100511  0.095748  -0.000562  1.046543  0.0
H  H7  1  0.52296556  0.19273404  0.51660305  1  0.090968  -0.000201  0.993835  0.0  0.095533  4.1e-05  1.065614  0.0  0.099076  2e-05  1.062724  0.0  0.1004  0.092889  8.5e-05  1.067768  0.0
H  H8  1  0.72628418  0.96699861  0.44388662  1  0.108558  -0.000565  0.965874  -0.001  0.118262  0.000174  1.029052  0.0  0.120967  0.000109  1.028615  0.0  0.106666  0.116438  0.000243  1.029496  0.0
H  H9  1  0.21331707  0.04315272  0.54979177  1  0.106946  -0.000178  0.966085  0.0  0.116103  -0.000106  1.031604  0.0  0.119182  -2.7e-05  1.03013  0.0  0.107076  0.113827  -0.000106  1.032914  0.0
H  H10  1  0.15554743  0.26237723  0.47975887  1  0.109012  0.000174  0.96894  0.0  0.119494  0.000293  1.031076  0.0  0.122174  0.000219  1.031094  0.0  0.108268  0.117612  0.000377  1.03128  0.0
H  H11  1  0.63732557  0.75956378  0.53432251  1  0.106703  -0.00061  0.959312  -0.001  0.11824  7.5e-05  1.019673  0.0  0.120984  1.5e-05  1.019454  0.0  0.107903  0.116249  0.000115  1.020096  0.0
H  H12  1  0.82982710  0.42609413  0.53965196  1  0.091615  -9.9e-05  0.945897  0.0  0.105318  -2.7e-05  1.001388  0.0  0.107362  -1.6e-05  1.000625  0.0  0.107146  0.103777  -3.6e-05  1.002112  0.0
H  H13  1  0.31071171  0.59966146  0.49931496  1  0.089443  0.000648  0.942927  0.002  0.10513  -0.000338  0.995732  0.0  0.108409  -0.000142  0.992038  0.0  0.103684  0.102575  -0.00046  0.998647  0.0
H  H14  1  0.62870101  0.46715086  0.37017343  1  0.100107  -2.6e-05  0.956995  0.0  0.109273  0.000178  1.019888  0.0  0.111963  0.000176  1.019358  0.0  0.105209  0.107341  0.000241  1.020422  0.0
H  H15  1  0.13400847  0.54358052  0.68498060  1  0.101638  -0.000644  0.970766  -0.001  0.107895  0.000285  1.038094  0.0  0.111619  0.000257  1.036692  0.0  0.101886  0.105249  0.000303  1.039145  0.0
H  H16  1  0.77139616  0.36070544  0.15160706  1  0.082844  -0.000441  0.959652  0.0  0.085028  0.000175  1.031559  0.0  0.088396  -8e-05  1.029135  0.0  0.116074  0.082356  0.000472  1.033718  0.0
H  H17  1  0.29230325  0.63156709  0.88513084  1  0.075818  0.000644  0.971086  0.001  0.080326  -5.8e-05  1.041727  0.0  0.083733  -7.2e-05  1.037371  0.0  0.116999  0.077596  -2.1e-05  1.04525  0.0
C  C18  1  0.04249285  0.75838969  0.14369346  1  0.140797  -0.029612  3.653931  -0.019  0.101251  -0.013311  3.926757  -0.008  0.113773  -0.00969  3.937741  -0.006  0.046803  0.092716  -0.013459  3.919766  -0.007
C  C19  1  0.54893721  0.23039621  0.82188802  1  0.152514  0.004431  3.677088  0.004  0.116754  0.008285  3.93868  0.007  0.125843  0.007179  3.953143  0.006  0.053083  0.110159  0.009636  3.92985  0.008
C  C20  1  0.11240910  0.75164657  0.25496257  1  -0.110442  0.017929  3.721182  0.016  -0.127381  0.004137  3.982773  0.004  -0.133025  0.004506  3.998777  0.004  -0.089905  -0.124279  0.002883  3.972401  0.004
C  C21  1  0.60960899  0.24546732  0.70713843  1  -0.111998  0.000953  3.72389  0.001  -0.127528  -8e-06  3.981321  0.0  -0.134291  -0.000931  4.001507  -0.001  -0.085849  -0.123621  0.00056  3.968636  0.0
C  C22  1  0.99631401  0.82158759  0.36532850  1  -0.025863  -0.037887  3.748547  -0.025  -0.048136  -0.019549  4.008439  -0.012  -0.039236  -0.011257  4.019998  -0.007  -0.082049  -0.053426  -0.02192  4.000153  -0.013
C  C23  1  0.48585655  0.18174935  0.60813210  1  -0.023615  0.003026  3.754255  0.002  -0.040266  0.006656  4.005013  0.005  -0.037087  0.005962  4.023439  0.004  -0.075494  -0.042462  0.007642  3.99307  0.006
C  C24  1  0.81887916  0.90449873  0.36036205  1  -0.137769  0.020472  3.719372  0.019  -0.155758  0.006856  3.967022  0.007  -0.163699  0.00565  3.983852  0.005  -0.085045  -0.150987  0.006312  3.956037  0.007
C  C25  1  0.31040702  0.09946861  0.62577305  1  -0.139655  0.001229  3.701357  0.001  -0.157895  0.000161  3.944645  0.0  -0.16542  -0.001076  3.965281  -0.001  -0.082355  -0.153331  0.001249  3.931736  0.001
C  C26  1  0.75764736  0.90730297  0.24562037  1  0.154911  -0.03227  3.770251  -0.022  0.150761  -0.017772  4.011353  -0.011  0.163464  -0.010974  4.023773  -0.007  0.113212  0.142265  -0.018853  4.003378  -0.011
C  C27  1  0.25911524  0.08900282  0.74367333  1  0.169496  0.001475  3.783182  0.001  0.169428  0.006647  4.015969  0.005  0.17685  0.006011  4.035873  0.005  0.123689  0.163874  0.007331  4.003103  0.006
C  C28  1  0.57948426  0.99005071  0.22789691  1  0.243824  0.017349  3.835602  0.017  0.220506  0.008042  4.107162  0.008  0.230217  0.00818  4.120502  0.008  0.206575  0.213656  0.008084  4.098123  0.008
C  C29  1  0.07959785  0.00510422  0.77132974  1  0.239698  0.013017  3.836653  0.012  0.218146  0.011548  4.104115  0.01  0.225224  0.010701  4.122825  0.009  0.204172  0.213481  0.012151  4.091474  0.011
C  C30  1  0.31271845  0.12540449  0.24022555  1  0.244321  0.012876  3.825515  0.012  0.220249  0.012078  4.096658  0.011  0.227576  0.011842  4.11491  0.011  0.208132  0.215184  0.012304  4.084326  0.011
C  C31  1  0.81190569  0.87192062  0.75924339  1  0.246304  0.015678  3.83149  0.016  0.223438  0.010341  4.102309  0.01  0.232416  0.011088  4.116251  0.01  0.206728  0.217125  0.010123  4.093285  0.01
C  C32  1  0.13046571  0.22606825  0.28499232  1  0.171018  0.000213  3.77811  0.0  0.1718  0.004932  4.012012  0.004  0.179476  0.004426  4.031167  0.003  0.128737  0.166015  0.005416  3.999771  0.004
C  C33  1  0.63188904  0.77735921  0.72636704  1  0.154707  -0.039415  3.764012  -0.026  0.152091  -0.018004  4.005254  -0.011  0.165799  -0.009139  4.016528  -0.006  0.114668  0.142651  -0.020224  3.998339  -0.012
C  C34  1  0.06517524  0.28695893  0.41047599  1  -0.144578  0.0013  3.704997  0.001  -0.1631  0.000159  3.948269  0.0  -0.171245  -0.000444  3.970164  0.0  -0.081498  -0.157956  0.000678  3.934107  0.0
C  C35  1  0.55472271  0.72739950  0.60852216  1  -0.139508  0.023037  3.732338  0.021  -0.157974  0.006536  3.979995  0.007  -0.165766  0.004606  3.995814  0.004  -0.0843  -0.153305  0.00586  3.970052  0.006
C  C36  1  0.88450491  0.37660784  0.44272514  1  -0.009464  0.002106  3.730818  0.002  -0.025416  0.00518  3.977502  0.004  -0.022509  0.004596  3.997818  0.003  -0.068347  -0.027235  0.005831  3.963895  0.004
C  C37  1  0.37544129  0.63965781  0.59000144  1  -0.026081  -0.048113  3.749514  -0.031  -0.046359  -0.021044  4.003825  -0.012  -0.035534  -0.009073  4.013299  -0.005  -0.082471  -0.053408  -0.025103  3.997595  -0.015
C  C38  1  0.77312973  0.40201588  0.34960330  1  -0.120188  0.001224  3.735015  0.001  -0.13635  -0.0  3.992426  0.0  -0.14327  -0.000329  4.013957  0.0  -0.086003  -0.132232  9.7e-05  3.97836  0.0
C  C39  1  0.27813349  0.60627535  0.69136259  1  -0.116752  0.017775  3.745531  0.017  -0.132927  0.004162  4.006506  0.004  -0.138756  0.003955  4.02157  0.003  -0.092043  -0.129786  0.002285  3.997071  0.003
C  C40  1  0.85042087  0.34130146  0.22736510  1  0.153901  0.002976  3.680273  0.003  0.121383  0.006395  3.936492  0.006  0.129985  0.005297  3.951172  0.005  0.057109  0.11532  0.007551  3.92713  0.006
C  C41  1  0.36447800  0.65734263  0.80556331  1  0.137402  -0.036776  3.65573  -0.024  0.101431  -0.012954  3.919435  -0.007  0.114556  -0.005653  3.928531  -0.003  0.046137  0.092441  -0.013827  3.914197  -0.007
N  N42  1  0.53914912  0.97705119  0.10855333  1  -0.198069  -0.029963  3.206958  -0.028  -0.158164  -0.014445  3.517573  -0.014  -0.177027  -0.013122  3.532689  -0.013  -0.235743  -0.146693  -0.013699  3.50517  -0.014
N  N43  1  0.03400232  0.00174247  0.88832742  1  -0.278421  0.011427  3.062761  0.001  -0.234311  0.028118  3.362642  0.013  -0.244615  0.028115  3.373558  0.014  -0.225191  -0.227494  0.029791  3.356326  0.015
N  N44  1  0.36548764  0.06393232  0.11676102  1  -0.27289  0.017221  3.070453  0.005  -0.228421  0.026628  3.372716  0.01  -0.239516  0.027005  3.383893  0.011  -0.226183  -0.220442  0.02844  3.365733  0.012
N  N45  1  0.85967889  0.91601375  0.88103485  1  -0.199633  -0.031538  3.194073  -0.028  -0.161462  -0.012435  3.504046  -0.014  -0.177978  -0.012091  3.51798  -0.014  -0.238468  -0.15111  -0.012387  3.493319  -0.014
N  N46  1  0.44187575  0.08193452  0.31226555  1  -0.44168  -0.00512  2.988033  -0.005  -0.408652  -0.00063  3.25505  -0.001  -0.42576  -0.001913  3.270985  -0.002  -0.327866  -0.395565  0.001168  3.243063  0.001
N  N47  1  0.94509728  0.92592171  0.68817345  1  -0.447138  -0.00806  2.958524  -0.007  -0.414674  -0.000902  3.223204  -0.001  -0.431298  -0.001034  3.238848  -0.001  -0.332682  -0.402332  0.000418  3.211792  0.0
N  N48  1  0.86369861  0.82825062  0.13585312  1  -0.281405  -0.011083  3.249163  -0.007  -0.227704  -0.013279  3.533386  -0.011  -0.245149  -0.00643  3.546457  -0.004  -0.322174  -0.216106  -0.018194  3.522215  -0.016
N  N49  1  0.37579538  0.15783374  0.84097254  1  -0.352754  0.02851  3.238607  0.015  -0.284849  0.030539  3.509341  0.012  -0.303235  0.027255  3.52198  0.01  -0.324829  -0.271509  0.033103  3.501171  0.014
N  N50  1  0.02524484  0.25678712  0.19581767  1  -0.334259  0.029918  3.224522  0.018  -0.266846  0.032882  3.489441  0.017  -0.284131  0.029575  3.501349  0.014  -0.315599  -0.254331  0.035629  3.481594  0.019
N  N51  1  0.54026673  0.74056913  0.82533492  1  -0.270863  -0.016509  3.273181  -0.01  -0.214515  -0.013414  3.553283  -0.011  -0.230991  -0.006543  3.563039  -0.007  -0.326464  -0.204053  -0.019459  3.544652  -0.017
N  N52  1  0.54208272  0.62989812  0.03290965  1  -0.402905  0.032802  2.949014  0.03  -0.39702  0.029769  3.27326  0.023  -0.417101  0.01908  3.283061  0.014  -0.263847  -0.381801  0.038313  3.263371  0.03
N  N53  1  0.99195776  0.37507315  0.97453779  1  -0.471088  0.002231  2.68933  -0.009  -0.44804  0.012674  2.988162  -0.005  -0.476873  0.003864  3.001825  -0.011  -0.228484  -0.427073  0.017872  2.978758  -0.001
N  N54  1  0.47871528  0.52439103  0.07244917  1  0.374166  -0.002897  4.21479  -0.002  0.420337  0.010649  4.485039  0.01  0.437107  0.008737  4.5195  0.009  0.091967  0.408641  0.013881  4.459432  0.012
N  N55  1  0.95024883  0.46811267  0.92012626  1  0.375413  0.007796  4.226262  0.011  0.41505  0.011909  4.50531  0.015  0.431353  0.007563  4.543805  0.011  0.092436  0.403498  0.015926  4.477665  0.019
N  N56  1  0.40862042  0.41711874  0.10966874  1  -0.497338  0.015189  2.613502  0.007  -0.486349  0.044974  2.90764  0.026  -0.510183  0.039983  2.91641  0.022  -0.248153  -0.466636  0.055954  2.899919  0.035
N  N57  1  0.90618710  0.56196430  0.86566960  1  -0.438134  0.023299  2.547938  0.019  -0.433782  0.031218  2.824138  0.025  -0.457545  0.031917  2.839297  0.027  -0.215695  -0.415351  0.032325  2.812048  0.025
