# generated using pymatgen
data_ZnH23C23S4N9O4
_symmetry_space_group_name_H-M   'P 1'
_cell_length_a   9.15590452
_cell_length_b   10.41355034
_cell_length_c   14.86500000
_cell_angle_alpha   85.81486587
_cell_angle_beta   88.59434558
_cell_angle_gamma   88.42027555
_symmetry_Int_Tables_number   1
_chemical_formula_structural   ZnH23C23S4N9O4
_chemical_formula_sum   'Zn2 H46 C46 S8 N18 O8'
_cell_volume   1412.63337446
_cell_formula_units_Z   2
loop_
 _symmetry_equiv_pos_site_id
 _symmetry_equiv_pos_as_xyz
  1  'x, y, z'
loop_
 _atom_site_type_symbol
 _atom_site_label
 _atom_site_symmetry_multiplicity
 _atom_site_fract_x
 _atom_site_fract_y
 _atom_site_fract_z
 _atom_site_occupancy
 _atom_site_hle17_bader_spin_density
 _atom_site_hle17_ddec_charge
 _atom_site_hle17_ddec_spin_density
 _atom_site_hle17_ddec_sum_bond_order
 _atom_site_hle17_magmom
 _atom_site_hse06_10hf_bader_spin_density
 _atom_site_hse06_10hf_ddec_charge
 _atom_site_hse06_10hf_ddec_spin_density
 _atom_site_hse06_10hf_ddec_sum_bond_order
 _atom_site_hse06_10hf_magmom
 _atom_site_hse06_bader_spin_density
 _atom_site_hse06_ddec_charge
 _atom_site_hse06_ddec_spin_density
 _atom_site_hse06_ddec_sum_bond_order
 _atom_site_hse06_magmom
 _atom_site_pbe_bader_charge
 _atom_site_pbe_bader_spin_density
 _atom_site_pbe_cm5_charge
 _atom_site_pbe_ddec_charge
 _atom_site_pbe_ddec_spin_density
 _atom_site_pbe_ddec_sum_bond_order
 _atom_site_pbe_magmom
Zn  Zn0  1  0.48657105  0.34702584  0.22861986  1  0  0.91728  0  1.909273  0  0  0.713851  0  2.380545  0  0  0.751997  0  2.338731  0  1.189133  0  0.746806  0.687178  0  2.409747  0
Zn  Zn1  1  0.51343472  0.65297509  0.77138021  1  0  0.917208  0  1.909353  0  0  0.713835  0  2.380627  0  0  0.751978  0  2.33881  0  1.189105  0  0.746777  0.687165  0  2.409833  0
H  H2  1  0.31818022  0.53958800  0.18730661  1  0  0.325408  0  0.860344  0  0  0.314371  0  0.913242  0  0  0.320433  0  0.90852  0  0.459333  0  0.312346  0.31025  0  0.916406  0
H  H3  1  0.68182666  0.46041198  0.81269215  1  0  0.32539  0  0.860445  0  0  0.314371  0  0.913311  0  0  0.320431  0  0.908588  0  0.459349  0  0.312377  0.310239  0  0.916507  0
H  H4  1  0.27700828  0.42225091  0.11966789  1  0  0.321147  0  0.928543  0  0  0.301906  0  0.994453  0  0  0.309022  0  0.988788  0  0.49697  0  0.289947  0.296803  0  0.998621  0
H  H5  1  0.72299858  0.57775002  0.88033014  1  0  0.321149  0  0.928474  0  0  0.301922  0  0.994364  0  0  0.309032  0  0.98871  0  0.496984  0  0.289953  0.296819  0  0.998531  0
H  H6  1  0.00751862  0.81361853  0.40912153  1  0  0.315486  0  0.943194  0  0  0.297198  0  1.0106  0  0  0.304132  0  1.005228  0  0.492144  0  0.290125  0.292364  0  1.014249  0
H  H7  1  0.99247743  0.18637856  0.59088359  1  0  0.31548  0  0.943021  0  0  0.297181  0  1.010449  0  0  0.304114  0  1.005079  0  0.492188  0  0.290073  0.292348  0  1.014096  0
H  H8  1  0.91081571  0.96112038  0.39529576  1  0  0.334002  0  0.936621  0  0  0.317059  0  0.998792  0  0  0.324321  0  0.992939  0  0.510076  0  0.294154  0.311985  0  1.002839  0
H  H9  1  0.08918033  0.03887670  0.60470465  1  0  0.333923  0  0.93664  0  0  0.316948  0  0.998831  0  0  0.324211  0  0.992978  0  0.510063  0  0.294143  0.311876  0  1.002875  0
H  H10  1  0.01499854  0.17822334  0.99059576  1  0  0.129202  0  0.959098  0  0  0.145175  0  1.024631  0  0  0.146952  0  1.024648  0  0.089018  0  0.093694  0.143795  0  1.024777  0
H  H11  1  0.98500381  0.82178241  0.00940276  1  0  0.129254  0  0.959042  0  0  0.145215  0  1.024581  0  0  0.14699  0  1.024601  0  0.089105  0  0.093741  0.143837  0  1.024724  0
H  H12  1  0.86079322  0.08171206  0.97637235  1  0  0.123583  0  0.933995  0  0  0.145699  0  0.990351  0  0  0.147401  0  0.990125  0  0.04313  0  0.099848  0.144419  0  0.990581  0
H  H13  1  0.13921809  0.91828598  0.02362173  1  0  0.123483  0  0.933971  0  0  0.145608  0  0.990314  0  0  0.147309  0  0.990087  0  0.043072  0  0.099799  0.144329  0  0.990544  0
H  H14  1  0.94805460  0.07237792  0.08176990  1  0  0.128451  0  0.936377  0  0  0.150524  0  0.992454  0  0  0.151989  0  0.993101  0  0.068603  0  0.101471  0.149439  0  0.992291  0
H  H15  1  0.05194559  0.92762687  0.91822669  1  0  0.128468  0  0.936332  0  0  0.150529  0  0.992427  0  0  0.151993  0  0.993077  0  0.068597  0  0.101456  0.149445  0  0.992264  0
H  H16  1  0.65069069  0.81909322  0.42884919  1  0  0.126607  0  0.943166  0  0  0.147405  0  1.000469  0  0  0.149537  0  0.999389  0  0.088636  0  0.095443  0.145821  0  1.001344  0
H  H17  1  0.34930393  0.18091542  0.57115267  1  0  0.126569  0  0.943082  0  0  0.147325  0  1.000456  0  0  0.149455  0  0.99938  0  0.08881  0  0.095422  0.145745  0  1.001327  0
H  H18  1  0.46170366  0.79662327  0.45523826  1  0  0.130568  0  0.951895  0  0  0.145855  0  1.019339  0  0  0.148066  0  1.018596  0  0.055025  0  0.093709  0.144297  0  1.019832  0
H  H19  1  0.53829782  0.20337477  0.54476673  1  0  0.130584  0  0.951896  0  0  0.145863  0  1.019338  0  0  0.148073  0  1.018596  0  0.055415  0  0.093747  0.144306  0  1.019828  0
H  H20  1  0.52093310  0.83712004  0.34160088  1  0  0.130027  0  0.960936  0  0  0.151345  0  1.01658  0  0  0.152317  0  1.01859  0  0.07229  0  0.09878  0.150752  0  1.01498  0
H  H21  1  0.47905728  0.16288379  0.65840600  1  0  0.129969  0  0.960936  0  0  0.151296  0  1.016581  0  0  0.152268  0  1.018596  0  0.072245  0  0.098798  0.150705  0  1.014976  0
H  H22  1  0.64511122  0.93346083  0.12813924  1  0  0.09928  0  0.959108  0  0  0.108237  0  1.023583  0  0  0.111247  0  1.021337  0  0.067903  0  0.102953  0.106112  0  1.025076  0
H  H23  1  0.35490377  0.06652373  0.87185681  1  0  0.09921  0  0.959176  0  0  0.108156  0  1.023669  0  0  0.111161  0  1.021435  0  0.067717  0  0.1029  0.106046  0  1.025145  0
H  H24  1  0.04439543  0.43577006  0.45750651  1  0  0.093163  0  0.993489  0  0  0.097645  0  1.067629  0  0  0.100962  0  1.064766  0  0.114417  0  0.096619  0.095379  0  1.069445  0
H  H25  1  0.95561485  0.56422606  0.54249844  1  0  0.093156  0  0.993586  0  0  0.097639  0  1.067708  0  0  0.100955  0  1.064845  0  0.114306  0  0.096628  0.095376  0  1.069519  0
H  H26  1  0.75733416  0.01276402  0.26202159  1  0  0.10584  0  0.957208  0  0  0.113657  0  1.022664  0  0  0.117813  0  1.020371  0  0.075729  0  0.098673  0.110521  0  1.024723  0
H  H27  1  0.24266640  0.98722825  0.73797766  1  0  0.105974  0  0.957131  0  0  0.113838  0  1.022514  0  0  0.117961  0  1.020259  0  0.075625  0  0.098729  0.110701  0  1.024575  0
H  H28  1  0.23409819  0.52478590  0.34961903  1  0  0.117533  0  0.967101  0  0  0.120944  0  1.038937  0  0  0.125046  0  1.036384  0  0.123386  0  0.10206  0.117568  0  1.041473  0
H  H29  1  0.76591315  0.47521119  0.65038115  1  0  0.117548  0  0.967132  0  0  0.121007  0  1.038908  0  0  0.125109  0  1.036354  0  0.123362  0  0.102048  0.117631  0  1.041446  0
H  H30  1  0.99268105  0.64838266  0.30643574  1  0  0.098393  0  0.987031  0  0  0.109284  0  1.049319  0  0  0.112008  0  1.049635  0  0.07074  0  0.09221  0.107495  0  1.049004  0
H  H31  1  0.00730974  0.35160768  0.69357653  1  0  0.098453  0  0.987044  0  0  0.109401  0  1.049259  0  0  0.112126  0  1.049573  0  0.070983  0  0.092234  0.107606  0  1.048941  0
H  H32  1  0.09337778  0.27558413  0.15114094  1  0  0.121984  0  0.962636  0  0  0.132118  0  1.022449  0  0  0.13514  0  1.021821  0  0.093816  0  0.106915  0.129908  0  1.023202  0
H  H33  1  0.90661008  0.72443125  0.84885462  1  0  0.12196  0  0.962691  0  0  0.132136  0  1.022477  0  0  0.135177  0  1.021787  0  0.093778  0  0.106925  0.12992  0  1.023228  0
H  H34  1  0.88013938  0.56991747  0.17291328  1  0  0.087364  0  0.961973  0  0  0.095984  0  1.029097  0  0  0.098058  0  1.028364  0  0.035605  0  0.094801  0.094514  0  1.02954  0
H  H35  1  0.11986570  0.43006998  0.82709758  1  0  0.087256  0  0.961975  0  0  0.095926  0  1.029055  0  0  0.098003  0  1.028319  0  0.035753  0  0.094759  0.09445  0  1.029507  0
H  H36  1  0.90071649  0.18951273  0.25809636  1  0  0.102977  0  0.955714  0  0  0.110288  0  1.023066  0  0  0.113354  0  1.02086  0  0.100083  0  0.106853  0.108099  0  1.024497  0
H  H37  1  0.09927563  0.81050650  0.74189894  1  0  0.103101  0  0.955599  0  0  0.110228  0  1.023159  0  0  0.113361  0  1.020882  0  0.099981  0  0.106814  0.108038  0  1.024591  0
H  H38  1  0.44267797  0.12867849  0.12094189  1  0  0.095956  0  0.95254  0  0  0.100638  0  1.021485  0  0  0.10377  0  1.018218  0  0.135396  0  0.120842  0.098443  0  1.023636  0
H  H39  1  0.55733119  0.87131859  0.87906505  1  0  0.095969  0  0.952451  0  0  0.100584  0  1.021438  0  0  0.103716  0  1.018169  0  0.135448  0  0.120822  0.09839  0  1.023591  0
H  H40  1  0.32541794  0.91409616  0.13996638  1  0  0.117177  0  0.93641  0  0  0.13035  0  0.986508  0  0  0.133319  0  0.986236  0  0.102444  0  0.115386  0.128054  0  0.987191  0
H  H41  1  0.67458676  0.08590381  0.86003981  1  0  0.117135  0  0.936454  0  0  0.130292  0  0.986581  0  0  0.13327  0  0.986298  0  0.102408  0  0.115372  0.127996  0  0.987263  0
H  H42  1  0.21263609  0.84352035  0.29162107  1  0  0.100261  0  0.934741  0  0  0.112172  0  0.991349  0  0  0.114499  0  0.989743  0  0.094125  0  0.112544  0.110583  0  0.99227  0
H  H43  1  0.78734648  0.15648925  0.70838160  1  0  0.100263  0  0.934706  0  0  0.112184  0  0.991296  0  0  0.114509  0  0.989692  0  0.094537  0  0.112539  0.110583  0  0.99221  0
H  H44  1  0.23312538  0.98670813  0.41908685  1  0  0.119423  0  0.970366  0  0  0.126695  0  1.030625  0  0  0.130455  0  1.029152  0  0.132974  0  0.108781  0.123862  0  1.032052  0
H  H45  1  0.76684722  0.01330629  0.58091370  1  0  0.119541  0  0.97008  0  0  0.126697  0  1.030473  0  0  0.130448  0  1.028994  0  0.133223  0  0.108808  0.123862  0  1.031905  0
H  H46  1  0.36462936  0.19403966  0.39041966  1  0  0.077498  0  0.934588  0  0  0.088163  0  0.996655  0  0  0.089998  0  0.995574  0  0.103561  0  0.116438  0.086904  0  0.997233  0
H  H47  1  0.63535876  0.80596705  0.60958374  1  0  0.077533  0  0.93463  0  0  0.088201  0  0.996691  0  0  0.090038  0  0.99561  0  0.103563  0  0.116487  0.086941  0  0.997271  0
C  C48  1  0.91650815  0.13840465  0.02419215  1  0  -0.356695  0  3.719242  0  0  -0.433681  0  3.953953  0  0  -0.437277  0  3.961275  0  -0.032349  0  -0.233714  -0.430971  0  3.949067  0
C  C49  1  0.08349442  0.86159340  0.97580340  1  0  -0.35671  0  3.718894  0  0  -0.433656  0  3.953676  0  0  -0.437252  0  3.961003  0  -0.032079  0  -0.233716  -0.430953  0  3.948784  0
C  C50  1  0.54892281  0.78198780  0.40452268  1  0  -0.360357  0  3.710973  0  0  -0.436623  0  3.940677  0  0  -0.440673  0  3.948275  0  -0.056895  0  -0.238396  -0.433596  0  3.935107  0
C  C51  1  0.45107290  0.21802084  0.59548185  1  0  -0.360215  0  3.711031  0  0  -0.436513  0  3.940755  0  0  -0.440557  0  3.948342  0  -0.057794  0  -0.23846  -0.433491  0  3.935192  0
C  C52  1  0.81682125  0.24204439  0.05587505  1  0  0.210818  0  3.72735  0  0  0.212101  0  4.019007  0  0  0.2211  0  4.033958  0  0.451445  0  0.120203  0.206014  0  4.00955  0
C  C53  1  0.18317486  0.75795076  0.94411806  1  0  0.210758  0  3.727218  0  0  0.211965  0  4.019016  0  0  0.22096  0  4.033973  0  0.45042  0  0.120152  0.205897  0  4.009529  0
C  C54  1  0.56657353  0.64341363  0.38763324  1  0  0.223128  0  3.716512  0  0  0.222364  0  4.011529  0  0  0.231458  0  4.027458  0  0.497991  0  0.126405  0.21663  0  4.000592  0
C  C55  1  0.43342765  0.35659501  0.61236650  1  0  0.222841  0  3.71716  0  0  0.222239  0  4.011941  0  0  0.231333  0  4.027872  0  0.498893  0  0.126332  0.216496  0  4.001018  0
C  C56  1  0.67664419  0.43965359  0.08285695  1  0  0.357385  0  3.871987  0  0  0.325363  0  4.168316  0  0  0.348167  0  4.179681  0  1.023892  0  0.227193  0.310337  0  4.159512  0
C  C57  1  0.32335419  0.56033868  0.91714030  1  0  0.357525  0  3.871906  0  0  0.325492  0  4.168247  0  0  0.348299  0  4.179608  0  1.023485  0  0.227266  0.310461  0  4.15944  0
C  C58  1  0.63278429  0.41505984  0.38824354  1  0  0.338898  0  3.904115  0  0  0.306402  0  4.20209  0  0  0.328155  0  4.214802  0  0.979148  0  0.224452  0.291673  0  4.192325  0
C  C59  1  0.36721593  0.58494399  0.61175377  1  0  0.33882  0  3.904197  0  0  0.306324  0  4.20218  0  0  0.328076  0  4.214893  0  0.979242  0  0.224423  0.291597  0  4.192414  0
C  C60  1  0.75302858  0.74649474  0.14243531  1  0  -0.182329  0  3.809784  0  0  -0.155512  0  4.061058  0  0  -0.166995  0  4.085157  0  -0.144856  0  -0.050641  -0.148133  0  4.045313  0
C  C61  1  0.24698837  0.25349753  0.85756705  1  0  -0.182327  0  3.809494  0  0  -0.155545  0  4.060831  0  0  -0.167026  0  4.084925  0  -0.14526  0  -0.050585  -0.148147  0  4.045066  0
C  C62  1  0.96347045  0.30612936  0.36518748  1  0  -0.153186  0  3.78491  0  0  -0.127706  0  4.034544  0  0  -0.136692  0  4.058531  0  -0.135021  0  -0.034758  -0.122418  0  4.019017  0
C  C63  1  0.03652876  0.69387158  0.63480461  1  0  -0.153307  0  3.785454  0  0  -0.127666  0  4.034806  0  0  -0.13665  0  4.058804  0  -0.135237  0  -0.034808  -0.122382  0  4.019284  0
C  C64  1  0.72142845  0.87151701  0.16735315  1  0  -0.045822  0  3.806448  0  0  -0.073341  0  4.0568  0  0  -0.068069  0  4.075996  0  -0.038957  0  -0.089963  -0.076806  0  4.044424  0
C  C65  1  0.27858209  0.12847044  0.83264215  1  0  -0.045698  0  3.8064  0  0  -0.073201  0  4.056778  0  0  -0.067929  0  4.07596  0  -0.039765  0  -0.089911  -0.076686  0  4.044393  0
C  C66  1  0.05519923  0.40147519  0.39032701  1  0  -0.058652  0  3.802919  0  0  -0.087199  0  4.059717  0  0  -0.084775  0  4.079387  0  -0.094707  0  -0.091426  -0.089835  0  4.047396  0
C  C67  1  0.94480547  0.59852478  0.60966976  1  0  -0.058658  0  3.803169  0  0  -0.087262  0  4.059961  0  0  -0.084837  0  4.079624  0  -0.094168  0  -0.091468  -0.089898  0  4.047641  0
C  C68  1  0.78549292  0.91608898  0.24240108  1  0  -0.208591  0  3.72194  0  0  -0.220275  0  3.971123  0  0  -0.229632  0  3.991257  0  -0.046784  0  -0.110398  -0.21443  0  3.95815  0
C  C69  1  0.21450776  0.08389944  0.75759769  1  0  -0.208688  0  3.722205  0  0  -0.220449  0  3.971329  0  0  -0.22978  0  3.99147  0  -0.046407  0  -0.110438  -0.214609  0  3.958368  0
C  C70  1  0.16146358  0.45106820  0.32984692  1  0  -0.181806  0  3.724773  0  0  -0.19702  0  3.976199  0  0  -0.203441  0  3.995775  0  -0.023838  0  -0.102409  -0.193292  0  3.964155  0
C  C71  1  0.83854337  0.54892985  0.67014857  1  0  -0.181848  0  3.724696  0  0  -0.197054  0  3.976163  0  0  -0.203477  0  3.99574  0  -0.023964  0  -0.102386  -0.193323  0  3.964118  0
C  C72  1  0.88166574  0.83525918  0.29555668  1  0  0.334582  0  3.882203  0  0  0.32737  0  4.12612  0  0  0.341156  0  4.145671  0  0.401974  0  0.102777  0.318493  0  4.112382  0
C  C73  1  0.11832835  0.16473020  0.70444887  1  0  0.334516  0  3.882432  0  0  0.327441  0  4.126149  0  0  0.341229  0  4.145696  0  0.401833  0  0.102924  0.318567  0  4.112409  0
C  C74  1  0.17570186  0.40468353  0.24398033  1  0  0.284222  0  3.771581  0  0  0.282724  0  4.011819  0  0  0.291146  0  4.033253  0  0.276598  0  0.087093  0.278189  0  3.996362  0
C  C75  1  0.82429514  0.59531837  0.75601309  1  0  0.284458  0  3.771239  0  0  0.2828  0  4.011693  0  0  0.291216  0  4.033127  0  0.276412  0  0.087174  0.278265  0  3.996236  0
C  C76  1  0.91768369  0.71121646  0.26672315  1  0  -0.218002  0  3.744217  0  0  -0.230313  0  3.991481  0  0  -0.239714  0  4.012846  0  0.019646  0  -0.117942  -0.224158  0  3.976686  0
C  C77  1  0.08231057  0.28876714  0.73328268  1  0  -0.218154  0  3.744503  0  0  -0.230564  0  3.991741  0  0  -0.239971  0  4.013109  0  0.005001  0  -0.117991  -0.224398  0  3.976934  0
C  C78  1  0.08139159  0.31026139  0.21834365  1  0  -0.167406  0  3.694262  0  0  -0.186456  0  3.944442  0  0  -0.193175  0  3.966395  0  0.020542  0  -0.096849  -0.182242  0  3.928925  0
C  C79  1  0.91859970  0.68974918  0.78165076  1  0  -0.167421  0  3.694284  0  0  -0.186441  0  3.944408  0  0  -0.193157  0  3.966403  0  0.022293  0  -0.096889  -0.182217  0  3.928882  0
C  C80  1  0.85372739  0.66727730  0.19178049  1  0  -0.040169  0  3.802599  0  0  -0.067175  0  4.054021  0  0  -0.062125  0  4.073599  0  -0.025334  0  -0.09605  -0.070216  0  4.040573  0
C  C81  1  0.14627886  0.33270726  0.80822377  1  0  -0.040115  0  3.802693  0  0  -0.067135  0  4.054149  0  0  -0.062083  0  4.073725  0  -0.010342  0  -0.09615  -0.070181  0  4.040691  0
C  C82  1  0.97506321  0.26128963  0.27866769  1  0  -0.034387  0  3.741642  0  0  -0.05965  0  3.992529  0  0  -0.056838  0  4.012393  0  -0.061141  0  -0.081537  -0.059686  0  3.977626  0
C  C83  1  0.02492807  0.73872094  0.72132335  1  0  -0.034497  0  3.742051  0  0  -0.059658  0  3.99291  0  0  -0.056909  0  4.012762  0  -0.062651  0  -0.081458  -0.059693  0  3.978005  0
C  C84  1  0.39581037  0.09272599  0.18587291  1  0  0.135005  0  3.657295  0  0  0.101801  0  3.906655  0  0  0.108849  0  3.924668  0  0.460445  0  0.054834  0.097339  0  3.894208  0
C  C85  1  0.60419324  0.90727398  0.81413330  1  0  0.135023  0  3.657446  0  0  0.101976  0  3.906723  0  0  0.109024  0  3.924745  0  0.460312  0  0.054927  0.097511  0  3.89428  0
C  C86  1  0.32760007  0.97452684  0.19674163  1  0  -0.122027  0  3.714371  0  0  -0.131399  0  3.958817  0  0  -0.140029  0  3.981438  0  -0.041414  0  -0.075479  -0.12598  0  3.943838  0
C  C87  1  0.67239803  0.02547506  0.80326321  1  0  -0.122015  0  3.714517  0  0  -0.131427  0  3.958962  0  0  -0.140064  0  3.981577  0  -0.041623  0  -0.075497  -0.126008  0  3.94398  0
C  C88  1  0.26668331  0.93542379  0.28083375  1  0  0.013704  0  3.702496  0  0  -0.006344  0  3.950574  0  0  -0.001375  0  3.968597  0  -0.056054  0  -0.054767  -0.009268  0  3.93803  0
C  C89  1  0.73330478  0.06458389  0.71916960  1  0  0.013718  0  3.70251  0  0  -0.006316  0  3.950488  0  0  -0.001346  0  3.968511  0  -0.056049  0  -0.054742  -0.009217  0  3.937917  0
C  C90  1  0.27773459  0.01468748  0.35211424  1  0  -0.116979  0  3.716474  0  0  -0.127298  0  3.963475  0  0  -0.135271  0  3.985233  0  0.064338  0  -0.077927  -0.122337  0  3.948983  0
C  C91  1  0.72224686  0.98532308  0.64788772  1  0  -0.117075  0  3.716338  0  0  -0.127278  0  3.963328  0  0  -0.135237  0  3.985076  0  0.064233  0  -0.077983  -0.122314  0  3.948829  0
C  C92  1  0.35031204  0.12975532  0.33681725  1  0  0.130828  0  3.693233  0  0  0.099521  0  3.936891  0  0  0.106313  0  3.956354  0  0.415779  0  0.050191  0.095283  0  3.923354  0
C  C93  1  0.64967720  0.87025043  0.66318753  1  0  0.130744  0  3.693337  0  0  0.09943  0  3.936968  0  0  0.106221  0  3.956429  0  0.415494  0  0.050153  0.09519  0  3.923436  0
S  S94  1  0.82409823  0.40118720  0.01014421  1  0  0.015812  0  2.413595  0  0  0.020167  0  2.730218  0  0  0.019625  0  2.728074  0  0.203292  0  0.087505  0.019695  0  2.732497  0
S  S95  1  0.17590003  0.59880892  0.98984747  1  0  0.015794  0  2.41364  0  0  0.020171  0  2.730301  0  0  0.019634  0  2.728154  0  0.204151  0  0.087463  0.019686  0  2.732584  0
S  S96  1  0.68480045  0.54096726  0.45141344  1  0  0.037316  0  2.442206  0  0  0.044599  0  2.766499  0  0  0.042081  0  2.768284  0  0.212283  0  0.106655  0.046685  0  2.764357  0
S  S97  1  0.31520199  0.45903560  0.54858725  1  0  0.037433  0  2.44249  0  0  0.044667  0  2.766702  0  0  0.042149  0  2.768487  0  0.212282  0  0.106686  0.046755  0  2.764564  0
S  S98  1  0.66098522  0.68637421  0.05251626  1  0  1.232263  0  5.47463  0  0  1.146423  0  5.984199  0  0  1.1913  0  5.96787  0  2.92508  0  0.54208  1.115289  0  5.994989  0
S  S99  1  0.33903383  0.31362095  0.94748189  1  0  1.232284  0  5.474894  0  0  1.146355  0  5.984549  0  0  1.191231  0  5.968213  0  2.925454  0  0.542072  1.115219  0  5.995329  0
S  S100  1  0.82454305  0.24733705  0.44118103  1  0  1.220656  0  5.499428  0  0  1.13054  0  6.009975  0  0  1.174759  0  5.993773  0  2.908096  0  0.548875  1.099602  0  6.020998  0
S  S101  1  0.17545269  0.75267063  0.55881615  1  0  1.220735  0  5.499526  0  0  1.13057  0  6.010047  0  0  1.174806  0  5.993831  0  2.907927  0  0.548805  1.099638  0  6.021065  0
N  N102  1  0.63984129  0.33356160  0.13474348  1  0  -0.349326  0  3.310218  0  0  -0.269886  0  3.624849  0  0  -0.290377  0  3.635815  0  -0.796317  0  -0.276358  -0.25629  0  3.617156  0
N  N103  1  0.36015482  0.66643356  0.86525366  1  0  -0.349506  0  3.310289  0  0  -0.270034  0  3.624878  0  0  -0.290529  0  3.635845  0  -0.796501  0  -0.276386  -0.256423  0  3.617172  0
N  N104  1  0.53499660  0.45831707  0.32673523  1  0  -0.344258  0  3.303374  0  0  -0.265565  0  3.614647  0  0  -0.285881  0  3.627304  0  -0.782711  0  -0.269054  -0.252203  0  3.605909  0
N  N105  1  0.46500673  0.54169254  0.67326241  1  0  -0.344043  0  3.302922  0  0  -0.265414  0  3.614248  0  0  -0.285735  0  3.626912  0  -0.782864  0  -0.269006  -0.25206  0  3.605517  0
N  N106  1  0.49713502  0.58621442  0.32681091  1  0  -0.22354  0  3.01547  0  0  -0.21421  0  3.294828  0  0  -0.22075  0  3.310359  0  -0.720552  0  -0.225534  -0.210039  0  3.284637  0
N  N107  1  0.50287066  0.41378941  0.67318767  1  0  -0.223528  0  3.01526  0  0  -0.214212  0  3.294545  0  0  -0.220752  0  3.310073  0  -0.720933  0  -0.225494  -0.210034  0  3.28436  0
N  N108  1  0.71740766  0.22333950  0.11928465  1  0  -0.217402  0  3.038535  0  0  -0.206466  0  3.318639  0  0  -0.213032  0  3.334592  0  -0.704847  0  -0.222196  -0.202183  0  3.308094  0
N  N109  1  0.28258833  0.77665951  0.88070961  1  0  -0.217255  0  3.038598  0  0  -0.206282  0  3.318674  0  0  -0.212852  0  3.334638  0  -0.70444  0  -0.222114  -0.202011  0  3.308121  0
N  N110  1  0.67467719  0.29070312  0.39442442  1  0  -0.638491  0  3.029973  0  0  -0.602152  0  3.342902  0  0  -0.627213  0  3.347173  0  -1.417299  0  -0.389591  -0.584074  0  3.339018  0
N  N111  1  0.32532412  0.70930070  0.60557422  1  0  -0.638586  0  3.029994  0  0  -0.602204  0  3.342879  0  0  -0.627263  0  3.347146  0  -1.417288  0  -0.389582  -0.584125  0  3.338992  0
N  N112  1  0.60196972  0.54961467  0.09148759  1  0  -0.629271  0  3.026669  0  0  -0.593589  0  3.339138  0  0  -0.61838  0  3.343736  0  -1.421938  0  -0.390232  -0.576108  0  3.335095  0
N  N113  1  0.39803294  0.45038049  0.90851013  1  0  -0.629251  0  3.026625  0  0  -0.593573  0  3.339134  0  0  -0.618364  0  3.343729  0  -1.421932  0  -0.390216  -0.576095  0  3.335092  0
N  N114  1  0.93616260  0.87265741  0.37342470  1  0  -0.675132  0  3.159763  0  0  -0.636941  0  3.388677  0  0  -0.658556  0  3.389016  0  -1.334637  0  -0.595527  -0.622326  0  3.388039  0
N  N115  1  0.06382378  0.12733389  0.62658422  1  0  -0.67507  0  3.159652  0  0  -0.63685  0  3.388578  0  0  -0.658459  0  3.388923  0  -1.334454  0  -0.595546  -0.622235  0  3.387935  0
N  N116  1  0.29350083  0.44471220  0.18516643  1  0  -0.663829  0  3.176829  0  0  -0.601686  0  3.423057  0  0  -0.620159  0  3.417073  0  -1.216104  0  -0.601018  -0.588741  0  3.426607  0
N  N117  1  0.70650060  0.55528778  0.81483173  1  0  -0.663831  0  3.176777  0  0  -0.601723  0  3.423145  0  0  -0.620187  0  3.41715  0  -1.216089  0  -0.601028  -0.588784  0  3.426691  0
N  N118  1  0.40735755  0.16861276  0.25507132  1  0  -0.331669  0  3.326685  0  0  -0.240559  0  3.601911  0  0  -0.259311  0  3.617351  0  -1.261994  0  -0.336792  -0.227743  0  3.591111  0
N  N119  1  0.59264163  0.83138914  0.74493418  1  0  -0.331597  0  3.326853  0  0  -0.240606  0  3.602147  0  0  -0.259362  0  3.617595  0  -1.261978  0  -0.336836  -0.227791  0  3.59135  0
O  O120  1  0.84524376  0.30585582  0.52676043  1  0  -0.634179  0  1.936064  0  0  -0.575259  0  2.175023  0  0  -0.596362  0  2.164173  0  -1.319487  0  -0.323797  -0.56008  0  2.182042  0
O  O121  1  0.15475638  0.69415090  0.47323606  1  0  -0.634223  0  1.935978  0  0  -0.5753  0  2.174919  0  0  -0.596406  0  2.164064  0  -1.319531  0  -0.323829  -0.560132  0  2.181952  0
O  O122  1  0.83120507  0.10716594  0.44600244  1  0  -0.617814  0  1.977921  0  0  -0.565257  0  2.216381  0  0  -0.583988  0  2.202431  0  -1.292945  0  -0.320191  -0.55176  0  2.225596  0
O  O123  1  0.16879722  0.89284174  0.55399532  1  0  -0.617664  0  1.978005  0  0  -0.565162  0  2.216531  0  0  -0.583924  0  2.202593  0  -1.292904  0  -0.320097  -0.551662  0  2.225733  0
O  O124  1  0.53714313  0.77227224  0.03132317  1  0  -0.609522  0  1.917188  0  0  -0.569706  0  2.157374  0  0  -0.589322  0  2.145855  0  -1.32306  0  -0.331665  -0.555661  0  2.164733  0
O  O125  1  0.46287793  0.22772870  0.96867061  1  0  -0.609593  0  1.917377  0  0  -0.569682  0  2.157496  0  0  -0.589293  0  2.145983  0  -1.32338  0  -0.331721  -0.555637  0  2.164849  0
O  O126  1  0.76905178  0.66961782  0.97821235  1  0  -0.672407  0  1.988754  0  0  -0.614692  0  2.238364  0  0  -0.636544  0  2.227048  0  -1.325779  0  -0.335465  -0.599218  0  2.245873  0
O  O127  1  0.23096864  0.33036770  0.02178626  1  0  -0.672333  0  1.98881  0  0  -0.614587  0  2.238407  0  0  -0.636455  0  2.227142  0  -1.325479  0  -0.335377  -0.599115  0  2.245919  0
