# generated using pymatgen
data_Ag2H10C13I(NO2)2
_symmetry_space_group_name_H-M   'P 1'
_cell_length_a   8.73071343
_cell_length_b   13.57352178
_cell_length_c   15.08390000
_cell_angle_alpha   115.37233352
_cell_angle_beta   90.00000000
_cell_angle_gamma   108.76069212
_symmetry_Int_Tables_number   1
_chemical_formula_structural   Ag2H10C13I(NO2)2
_chemical_formula_sum   'Ag8 H40 C52 I4 N8 O16'
_cell_volume   1509.33620356
_cell_formula_units_Z   4
loop_
 _symmetry_equiv_pos_site_id
 _symmetry_equiv_pos_as_xyz
  1  'x, y, z'
loop_
 _atom_site_type_symbol
 _atom_site_label
 _atom_site_symmetry_multiplicity
 _atom_site_fract_x
 _atom_site_fract_y
 _atom_site_fract_z
 _atom_site_occupancy
 _atom_site_hle17_bader_spin_density
 _atom_site_hle17_ddec_charge
 _atom_site_hle17_ddec_spin_density
 _atom_site_hle17_ddec_sum_bond_order
 _atom_site_hle17_magmom
 _atom_site_hse06_10hf_bader_spin_density
 _atom_site_hse06_10hf_ddec_charge
 _atom_site_hse06_10hf_ddec_spin_density
 _atom_site_hse06_10hf_ddec_sum_bond_order
 _atom_site_hse06_10hf_magmom
 _atom_site_hse06_bader_spin_density
 _atom_site_hse06_ddec_charge
 _atom_site_hse06_ddec_spin_density
 _atom_site_hse06_ddec_sum_bond_order
 _atom_site_hse06_magmom
 _atom_site_pbe_bader_charge
 _atom_site_pbe_bader_spin_density
 _atom_site_pbe_cm5_charge
 _atom_site_pbe_ddec_charge
 _atom_site_pbe_ddec_spin_density
 _atom_site_pbe_ddec_sum_bond_order
 _atom_site_pbe_magmom
Ag  Ag0  1  0.97055967  0.30393065  0.78028914  1  0  0.521352  0  1.41628  0  0  0.380543  0  1.849426  0  0  0.413686  0  1.804721  0  0.556821  0  0.426078  0.357244  0  1.880152  0
Ag  Ag1  1  0.66658067  0.69590421  0.71961994  1  0  0.521096  0  1.415656  0  0  0.380348  0  1.848592  0  0  0.413484  0  1.803945  0  0.55386  0  0.426023  0.35706  0  1.87927  0
Ag  Ag2  1  0.02943942  0.69606737  0.21971004  1  0  0.521356  0  1.416272  0  0  0.380552  0  1.849392  0  0  0.413695  0  1.80469  0  0.556868  0  0.42608  0.357252  0  1.880115  0
Ag  Ag3  1  0.33341972  0.30409643  0.28038024  1  0  0.521121  0  1.415688  0  0  0.380386  0  1.848633  0  0  0.413521  0  1.803983  0  0.553858  0  0.42605  0.357098  0  1.879311  0
Ag  Ag4  1  0.00174365  0.01284704  0.91134000  1  0  0.53451  0  1.526135  0  0  0.425882  0  1.995617  0  0  0.459279  0  1.935426  0  0.578282  0  0.376951  0.402931  0  2.036987  0
Ag  Ag5  1  0.98904732  0.98730368  0.58872865  1  0  0.534012  0  1.527221  0  0  0.425293  0  1.996737  0  0  0.45869  0  1.936567  0  0.579166  0  0.376722  0.402334  0  2.038106  0
Ag  Ag6  1  0.99825860  0.98715273  0.08865586  1  0  0.534543  0  1.52612  0  0  0.425917  0  1.995592  0  0  0.459313  0  1.935402  0  0.577948  0  0.376967  0.402966  0  2.036961  0
Ag  Ag7  1  0.01094964  0.01269697  0.41127285  1  0  0.533975  0  1.52727  0  0  0.425246  0  1.996803  0  0  0.458645  0  1.936631  0  0.578726  0  0.376695  0.402286  0  2.038172  0
H  H8  1  0.04426985  0.28971200  0.55766441  1  0  0.111562  0  0.961552  0  0  0.119402  0  1.026124  0  0  0.122048  0  1.023314  0  0.187155  0  0.133488  0.117411  0  1.028186  0
H  H9  1  0.75464477  0.71018045  0.94230400  1  0  0.111339  0  0.961762  0  0  0.119899  0  1.025652  0  0  0.122464  0  1.022953  0  0.189718  0  0.133485  0.117915  0  1.027709  0
H  H10  1  0.95573213  0.71028952  0.44233544  1  0  0.111566  0  0.96158  0  0  0.119395  0  1.026164  0  0  0.122039  0  1.023359  0  0.187137  0  0.13349  0.117404  0  1.028225  0
H  H11  1  0.24535633  0.28981932  0.05769585  1  0  0.111323  0  0.961792  0  0  0.119882  0  1.025687  0  0  0.122446  0  1.022987  0  0.189716  0  0.133469  0.117899  0  1.027742  0
H  H12  1  0.53452671  0.17095538  0.93115622  1  0  0.107425  0  0.958828  0  0  0.111  0  1.03275  0  0  0.115485  0  1.028635  0  0.110597  0  0.100881  0.107747  0  1.035756  0
H  H13  1  0.36381362  0.82928696  0.56898025  1  0  0.107674  0  0.959224  0  0  0.111446  0  1.032827  0  0  0.115921  0  1.028727  0  0.110737  0  0.101324  0.108197  0  1.035823  0
H  H14  1  0.46547210  0.82904440  0.06884561  1  0  0.107395  0  0.958843  0  0  0.110973  0  1.03277  0  0  0.115458  0  1.028656  0  0.110565  0  0.100881  0.107719  0  1.035778  0
H  H15  1  0.63617860  0.17071107  0.43101760  1  0  0.107659  0  0.959293  0  0  0.111447  0  1.032885  0  0  0.115923  0  1.028784  0  0.110838  0  0.101306  0.108198  0  1.035883  0
H  H16  1  0.33366045  0.64867187  0.70597661  1  0  0.114368  0  0.995827  0  0  0.122278  0  1.063533  0  0  0.125234  0  1.060933  0  0.165628  0  0.114022  0.120059  0  1.065588  0
H  H17  1  0.68497472  0.35121535  0.79394867  1  0  0.114687  0  0.995023  0  0  0.121848  0  1.063676  0  0  0.124798  0  1.061095  0  0.146419  0  0.113836  0.119638  0  1.065717  0
H  H18  1  0.66634224  0.35132877  0.29402423  1  0  0.114375  0  0.995813  0  0  0.122285  0  1.063511  0  0  0.125241  0  1.060909  0  0.165654  0  0.114016  0.120066  0  1.065565  0
H  H19  1  0.31502884  0.64878704  0.20605284  1  0  0.114697  0  0.994985  0  0  0.121844  0  1.063661  0  0  0.124804  0  1.061068  0  0.146419  0  0.113837  0.119633  0  1.065702  0
H  H20  1  0.22872633  0.57068480  0.84660726  1  0  0.101278  0  0.959944  0  0  0.113916  0  1.016786  0  0  0.115226  0  1.017535  0  0.098412  0  0.114168  0.112911  0  1.016421  0
H  H21  1  0.65821213  0.42925826  0.65332100  1  0  0.10216  0  0.959614  0  0  0.114734  0  1.016408  0  0  0.116053  0  1.017145  0  0.081785  0  0.114598  0.11373  0  1.016059  0
H  H22  1  0.77127064  0.42931584  0.15339359  1  0  0.101256  0  0.95996  0  0  0.113879  0  1.016839  0  0  0.11519  0  1.017584  0  0.098421  0  0.114134  0.11288  0  1.016459  0
H  H23  1  0.34179743  0.57074239  0.34668117  1  0  0.102163  0  0.959508  0  0  0.114735  0  1.016311  0  0  0.116053  0  1.017048  0  0.081854  0  0.114587  0.11373  0  1.015963  0
H  H24  1  0.98683567  0.21411914  0.08281599  1  0  0.089603  0  1.001489  0  0  0.092768  0  1.083053  0  0  0.096833  0  1.078263  0  0.074947  0  0.094086  0.089731  0  1.086651  0
H  H25  1  0.77288516  0.78603071  0.41723907  1  0  0.08908  0  1.001516  0  0  0.092387  0  1.082809  0  0  0.096458  0  1.077982  0  0.090487  0  0.093985  0.089348  0  1.086416  0
H  H26  1  0.01316457  0.78587889  0.91718385  1  0  0.089575  0  1.001442  0  0  0.092758  0  1.08298  0  0  0.096823  0  1.07819  0  0.074938  0  0.094068  0.08972  0  1.086575  0
H  H27  1  0.22710951  0.21396994  0.58275978  1  0  0.089092  0  1.001539  0  0  0.092414  0  1.082834  0  0  0.096482  0  1.07801  0  0.090397  0  0.094014  0.089375  0  1.086439  0
H  H28  1  0.13353937  0.62265408  0.54690530  1  0  0.067997  0  0.952409  0  0  0.082555  0  1.022029  0  0  0.083332  0  1.022487  0  0.050094  0  0.082849  0.081887  0  1.02182  0
H  H29  1  0.51072645  0.37730381  0.95307906  1  0  0.067546  0  0.953059  0  0  0.082023  0  1.022961  0  0  0.082854  0  1.023385  0  0.05082  0  0.082658  0.081332  0  1.022751  0
H  H30  1  0.86646015  0.37734482  0.45309420  1  0  0.067979  0  0.952436  0  0  0.082542  0  1.022051  0  0  0.083318  0  1.022509  0  0.05007  0  0.082851  0.081876  0  1.021839  0
H  H31  1  0.48927466  0.62269596  0.04692013  1  0  0.067518  0  0.953098  0  0  0.082017  0  1.022974  0  0  0.082849  0  1.023398  0  0.050826  0  0.082658  0.081327  0  1.022763  0
H  H32  1  0.09202704  0.52228851  0.41933020  1  0  0.073757  0  0.94346  0  0  0.092311  0  1.003825  0  0  0.092528  0  1.005429  0  0.017195  0  0.092885  0.092098  0  1.002756  0
H  H33  1  0.56971894  0.47767723  0.08065188  1  0  0.073461  0  0.943048  0  0  0.092305  0  1.003279  0  0  0.092529  0  1.004901  0  0.047914  0  0.093005  0.092073  0  1.002226  0
H  H34  1  0.90797319  0.47770952  0.58066897  1  0  0.073712  0  0.943437  0  0  0.092261  0  1.00383  0  0  0.092478  0  1.005435  0  0.017203  0  0.092864  0.092047  0  1.002762  0
H  H35  1  0.43028102  0.52232254  0.91934796  1  0  0.073479  0  0.943028  0  0  0.09232  0  1.003266  0  0  0.092545  0  1.004888  0  0.047914  0  0.09301  0.092088  0  1.002212  0
H  H36  1  0.53312927  0.12154696  0.19463906  1  0  0.124446  0  0.934511  0  0  0.133524  0  0.994405  0  0  0.137869  0  0.990887  0  0.160846  0  0.108896  0.130384  0  0.996987  0
H  H37  1  0.41162510  0.87851389  0.30540953  1  0  0.123783  0  0.935587  0  0  0.133114  0  0.995068  0  0  0.13751  0  0.991488  0  0.118488  0  0.108804  0.129927  0  0.997704  0
H  H38  1  0.46687113  0.87845369  0.80536311  1  0  0.12445  0  0.934546  0  0  0.133518  0  0.994447  0  0  0.137866  0  0.990933  0  0.160891  0  0.108887  0.130378  0  0.997028  0
H  H39  1  0.58837202  0.12148937  0.69459034  1  0  0.123781  0  0.935563  0  0  0.13316  0  0.995007  0  0  0.137545  0  0.99144  0  0.118587  0  0.108793  0.129973  0  0.997642  0
H  H40  1  0.17452571  0.38322476  0.45265858  1  0  0.070626  0  0.974769  0  0  0.079708  0  1.053493  0  0  0.081484  0  1.051404  0  0.118183  0  0.098642  0.078273  0  1.055184  0
H  H41  1  0.79140772  0.61660661  0.04728163  1  0  0.071167  0  0.974788  0  0  0.080608  0  1.053085  0  0  0.082296  0  1.051082  0  0.123618  0  0.098975  0.079242  0  1.054706  0
H  H42  1  0.82547611  0.61677414  0.54734225  1  0  0.070674  0  0.974749  0  0  0.079738  0  1.05347  0  0  0.081515  0  1.051381  0  0.118365  0  0.098648  0.078303  0  1.055159  0
H  H43  1  0.20859268  0.38339403  0.95271987  1  0  0.071168  0  0.974811  0  0  0.080607  0  1.053116  0  0  0.082294  0  1.051113  0  0.123634  0  0.098983  0.079243  0  1.054735  0
H  H44  1  0.33218664  0.52398470  0.51081088  1  0  0.07989  0  0.920312  0  0  0.094573  0  0.983817  0  0  0.096178  0  0.981821  0  0.078375  0  0.108259  0.093281  0  0.985402  0
H  H45  1  0.80809718  0.47578560  0.98911772  1  0  0.079354  0  0.921616  0  0  0.09438  0  0.984932  0  0  0.095955  0  0.982953  0  0.064485  0  0.10815  0.093134  0  0.986453  0
H  H46  1  0.66781446  0.47601507  0.48918830  1  0  0.0799  0  0.920344  0  0  0.094584  0  0.983824  0  0  0.096197  0  0.98182  0  0.078294  0  0.108258  0.093287  0  0.985416  0
H  H47  1  0.19190392  0.52421417  0.01088345  1  0  0.079367  0  0.921627  0  0  0.094391  0  0.984942  0  0  0.095968  0  0.98296  0  0.064502  0  0.108153  0.093146  0  0.986463  0
C  C48  1  0.10915580  0.37527694  0.61885125  1  0  0.153954  0  3.631917  0  0  0.098722  0  3.885414  0  0  0.111391  0  3.900695  0  0.931754  0  0.135845  0.090499  0  3.874852  0
C  C49  1  0.73400988  0.62462773  0.88109933  1  0  0.153515  0  3.632273  0  0  0.097522  0  3.885842  0  0  0.110247  0  3.901189  0  0.929824  0  0.135619  0.089291  0  3.875224  0
C  C50  1  0.89084460  0.62472370  0.38114893  1  0  0.153935  0  3.631966  0  0  0.098714  0  3.885472  0  0  0.11138  0  3.900754  0  0.93175  0  0.135819  0.090492  0  3.87491  0
C  C51  1  0.26599352  0.37537205  0.11890052  1  0  0.15351  0  3.632228  0  0  0.09753  0  3.885798  0  0  0.110256  0  3.901143  0  0.929797  0  0.135615  0.089298  0  3.875179  0
C  C52  1  0.60208828  0.17214899  0.99250788  1  0  -0.059751  0  3.660359  0  0  -0.095646  0  3.906197  0  0  -0.091909  0  3.922657  0  0.015688  0  -0.076212  -0.097919  0  3.895175  0
C  C53  1  0.43020624  0.82815879  0.50765514  1  0  -0.06005  0  3.661716  0  0  -0.096112  0  3.907318  0  0  -0.09236  0  3.923767  0  0.012874  0  -0.076819  -0.098383  0  3.896292  0
C  C54  1  0.39791283  0.82785078  0.00749329  1  0  -0.05965  0  3.660479  0  0  -0.095571  0  3.906339  0  0  -0.091832  0  3.922798  0  0.015607  0  -0.076228  -0.097844  0  3.895317  0
C  C55  1  0.56978914  0.17184099  0.49234338  1  0  -0.060084  0  3.661864  0  0  -0.096175  0  3.907462  0  0  -0.092422  0  3.923911  0  0.012792  0  -0.076817  -0.098446  0  3.896433  0
C  C56  1  0.51764224  0.14560332  0.06296075  1  0  -0.054454  0  3.734121  0  0  -0.026447  0  3.967277  0  0  -0.035832  0  3.990903  0  -0.04743  0  -0.017327  -0.02049  0  3.951481  0
C  C57  1  0.37217580  0.85461022  0.43718384  1  0  -0.054198  0  3.733842  0  0  -0.026123  0  3.967121  0  0  -0.035509  0  3.990758  0  -0.052737  0  -0.017212  -0.020178  0  3.951316  0
C  C58  1  0.48235772  0.85439645  0.93704108  1  0  -0.054601  0  3.7344  0  0  -0.026587  0  3.967555  0  0  -0.035971  0  3.991183  0  -0.047546  0  -0.017377  -0.02063  0  3.951756  0
C  C59  1  0.62782045  0.14539129  0.56281535  1  0  -0.054111  0  3.733715  0  0  -0.026034  0  3.967017  0  0  -0.035418  0  3.990651  0  -0.05238  0  -0.017195  -0.020088  0  3.951212  0
C  C60  1  0.33436806  0.11104700  0.05086787  1  0  0.624939  0  3.925186  0  0  0.574343  0  4.20792  0  0  0.609127  0  4.205344  0  1.568939  0  0.198793  0.550768  0  4.208751  0
C  C61  1  0.22327673  0.88897196  0.44920965  1  0  0.625096  0  3.925159  0  0  0.574071  0  4.208533  0  0  0.608875  0  4.205947  0  1.553503  0  0.198559  0.55049  0  4.209357  0
C  C62  1  0.66563146  0.88895190  0.94913296  1  0  0.625063  0  3.925156  0  0  0.574465  0  4.207885  0  0  0.609242  0  4.205319  0  1.56883  0  0.198857  0.550894  0  4.208711  0
C  C63  1  0.77671952  0.11102955  0.55078756  1  0  0.625066  0  3.925197  0  0  0.574059  0  4.208533  0  0  0.608865  0  4.20595  0  1.553033  0  0.198565  0.550479  0  4.209357  0
C  C64  1  0.26046102  0.56332855  0.69817113  1  0  -0.073926  0  3.697157  0  0  -0.11337  0  3.957005  0  0  -0.112581  0  3.976289  0  0.267686  0  -0.005434  -0.113885  0  3.944276  0
C  C65  1  0.69719102  0.43655954  0.80175516  1  0  -0.074677  0  3.697104  0  0  -0.113549  0  3.957266  0  0  -0.112757  0  3.976545  0  0.287171  0  -0.00585  -0.114075  0  3.944532  0
C  C66  1  0.73954008  0.43667122  0.30182938  1  0  -0.073981  0  3.697049  0  0  -0.11341  0  3.956895  0  0  -0.112621  0  3.976178  0  0.267619  0  -0.005426  -0.113924  0  3.944166  0
C  C67  1  0.30281178  0.56343674  0.19824600  1  0  -0.074489  0  3.697293  0  0  -0.113338  0  3.957429  0  0  -0.112553  0  3.976702  0  0.287125  0  -0.005766  -0.113869  0  3.944703  0
C  C68  1  0.20681578  0.52314010  0.76622809  1  0  -0.007566  0  3.760428  0  0  -0.040216  0  4.0189  0  0  -0.038501  0  4.041761  0  0.408691  0  -0.011255  -0.041393  0  4.003418  0
C  C69  1  0.68379941  0.47677330  0.73369337  1  0  -0.008011  0  3.759507  0  0  -0.040509  0  4.017745  0  0  -0.038808  0  4.040624  0  0.420453  0  -0.011213  -0.041687  0  4.002263  0
C  C70  1  0.79318347  0.47686055  0.23377143  1  0  -0.007452  0  3.760349  0  0  -0.040097  0  4.018799  0  0  -0.038381  0  4.04166  0  0.408704  0  -0.0112  -0.041271  0  4.003319  0
C  C71  1  0.31620813  0.52322560  0.26630150  1  0  -0.008181  0  3.75977  0  0  -0.040677  0  4.01803  0  0  -0.038976  0  4.040912  0  0.420494  0  -0.011239  -0.041854  0  4.002547  0
C  C72  1  0.77075612  0.19536772  0.99893830  1  0  -0.043899  0  3.743114  0  0  -0.016832  0  3.970235  0  0  -0.024831  0  3.992194  0  -0.037409  0  -0.017603  -0.011867  0  3.955618  0
C  C73  1  0.57562854  0.80488072  0.50117732  1  0  -0.043664  0  3.741492  0  0  -0.01635  0  3.968403  0  0  -0.024364  0  3.990345  0  -0.052784  0  -0.016778  -0.01138  0  3.953793  0
C  C74  1  0.22924526  0.80463030  0.00106088  1  0  -0.04398  0  3.743169  0  0  -0.016901  0  3.970281  0  0  -0.024902  0  3.992241  0  -0.037354  0  -0.017595  -0.011935  0  3.95566  0
C  C75  1  0.42436613  0.19511993  0.49882087  1  0  -0.043625  0  3.741427  0  0  -0.016297  0  3.968331  0  0  -0.024313  0  3.99027  0  -0.052342  0  -0.016811  -0.011328  0  3.953721  0
C  C76  1  0.85535508  0.19496898  0.07765075  1  0  -0.120341  0  3.776855  0  0  -0.150219  0  4.026086  0  0  -0.149568  0  4.045627  0  0.052113  0  -0.096902  -0.150359  0  4.012983  0
C  C77  1  0.66063150  0.80527161  0.42246449  1  0  -0.11979  0  3.775425  0  0  -0.149685  0  4.024586  0  0  -0.149097  0  4.044295  0  -0.016941  0  -0.096767  -0.149775  0  4.01136  0
C  C78  1  0.14464630  0.80502905  0.92234908  1  0  -0.120263  0  3.776784  0  0  -0.15015  0  4.026025  0  0  -0.149497  0  4.045564  0  0.05213  0  -0.096859  -0.15029  0  4.012928  0
C  C79  1  0.33936503  0.19472816  0.57753337  1  0  -0.119785  0  3.775499  0  0  -0.149706  0  4.024595  0  0  -0.149123  0  4.044325  0  -0.017354  0  -0.096755  -0.149793  0  4.011367  0
C  C80  1  0.08791873  0.52895023  0.49458900  1  0  -0.13197  0  3.685144  0  0  -0.171814  0  3.942756  0  0  -0.173771  0  3.957941  0  -0.027025  0  -0.169045  -0.170267  0  3.932208  0
C  C81  1  0.55891793  0.47101115  0.00539140  1  0  -0.130118  0  3.682905  0  0  -0.170467  0  3.941427  0  0  -0.172486  0  3.956597  0  -0.043019  0  -0.168729  -0.168872  0  3.930872  0
C  C82  1  0.91208150  0.47104779  0.50541018  1  0  -0.131882  0  3.685069  0  0  -0.171781  0  3.942729  0  0  -0.173738  0  3.957917  0  -0.007573  0  -0.169062  -0.170235  0  3.932178  0
C  C83  1  0.44108318  0.52898862  0.99460910  1  0  -0.130107  0  3.682919  0  0  -0.170464  0  3.941429  0  0  -0.172486  0  3.956602  0  -0.068511  0  -0.168722  -0.168865  0  3.930873  0
C  C84  1  0.60178211  0.14391760  0.14143684  1  0  -0.091667  0  3.695577  0  0  -0.123554  0  3.942219  0  0  -0.12197  0  3.96094  0  -0.023248  0  -0.085954  -0.124342  0  3.929629  0
C  C85  1  0.45797055  0.85626627  0.35869101  1  0  -0.090699  0  3.695362  0  0  -0.122775  0  3.941792  0  0  -0.121229  0  3.960458  0  0.025548  0  -0.085557  -0.123522  0  3.929239  0
C  C86  1  0.39821944  0.85608304  0.85856533  1  0  -0.091642  0  3.695656  0  0  -0.123509  0  3.942273  0  0  -0.121931  0  3.960999  0  -0.023118  0  -0.085938  -0.124298  0  3.929682  0
C  C87  1  0.54202455  0.14373524  0.64130818  1  0  -0.090704  0  3.695335  0  0  -0.122868  0  3.941798  0  0  -0.121312  0  3.960469  0  0.025462  0  -0.08557  -0.123615  0  3.929243  0
C  C88  1  0.20543521  0.47339663  0.51085183  1  0  -0.004306  0  3.623187  0  0  -0.064518  0  3.877868  0  0  -0.060461  0  3.888375  0  0.243022  0  -0.055583  -0.066976  0  3.870528  0
C  C89  1  0.73205751  0.52645132  0.98908086  1  0  -0.005251  0  3.623808  0  0  -0.066092  0  3.87936  0  0  -0.061966  0  3.88992  0  0.25715  0  -0.055982  -0.068638  0  3.872087  0
C  C90  1  0.79456546  0.52660227  0.48914834  1  0  -0.004395  0  3.623198  0  0  -0.064541  0  3.877804  0  0  -0.060491  0  3.888309  0  0.242903  0  -0.055576  -0.067005  0  3.870481  0
C  C91  1  0.26794245  0.47354845  0.01091965  1  0  -0.005265  0  3.623841  0  0  -0.066102  0  3.879374  0  0  -0.061979  0  3.88994  0  0.257137  0  -0.05599  -0.068654  0  3.872107  0
C  C92  1  0.77057894  0.17007674  0.14818561  1  0  0.018557  0  3.684689  0  0  0.050409  0  3.934711  0  0  0.048717  0  3.961418  0  -0.324394  0  -0.050954  0.051252  0  3.916676  0
C  C93  1  0.60063029  0.83009753  0.35191400  1  0  0.017329  0  3.686695  0  0  0.04946  0  3.936216  0  0  0.047755  0  3.962954  0  -0.240228  0  -0.051617  0.050308  0  3.918179  0
C  C94  1  0.22942331  0.82992303  0.85181489  1  0  0.018576  0  3.684662  0  0  0.050419  0  3.934694  0  0  0.048726  0  3.961402  0  -0.324191  0  -0.050928  0.051261  0  3.916658  0
C  C95  1  0.39936252  0.16990398  0.64808585  1  0  0.01724  0  3.686714  0  0  0.049421  0  3.936219  0  0  0.047716  0  3.962945  0  -0.23822  0  -0.051608  0.050267  0  3.918184  0
C  C96  1  0.86434195  0.21774360  0.92179535  1  0  0.638444  0  3.907398  0  0  0.593475  0  4.176322  0  0  0.6281  0  4.172383  0  1.563809  0  0.19796  0.569965  0  4.17813  0
C  C97  1  0.64675893  0.78237658  0.57825557  1  0  0.639549  0  3.905482  0  0  0.593971  0  4.175197  0  0  0.628605  0  4.171257  0  1.570875  0  0.198404  0.570456  0  4.177002  0
C  C98  1  0.13565828  0.78225442  0.07820449  1  0  0.638571  0  3.907368  0  0  0.593619  0  4.17625  0  0  0.628245  0  4.172309  0  1.563725  0  0.198045  0.570111  0  4.178056  0
C  C99  1  0.35323689  0.21762407  0.42174395  1  0  0.639471  0  3.905455  0  0  0.593898  0  4.175163  0  0  0.628533  0  4.171221  0  1.569969  0  0.198375  0.570382  0  4.176969  0
I  I100  1  0.90651116  0.16935866  0.26378327  1  0  0.054604  0  1.610568  0  0  0.047792  0  1.990666  0  0  0.045236  0  1.968491  0  0.18365  0  0.162546  0.049422  0  2.00632  0
I  I101  1  0.73691809  0.83053729  0.23612019  1  0  0.055163  0  1.610903  0  0  0.048227  0  1.990698  0  0  0.045716  0  1.968478  0  0.182132  0  0.162785  0.049868  0  2.006307  0
I  I102  1  0.09349153  0.83064199  0.73621758  1  0  0.054638  0  1.610547  0  0  0.047832  0  1.990637  0  0  0.045275  0  1.968461  0  0.183521  0  0.162566  0.049465  0  2.006286  0
I  I103  1  0.26307887  0.16946336  0.76387933  1  0  0.055164  0  1.610965  0  0  0.04822  0  1.990747  0  0  0.045707  0  1.968529  0  0.18024  0  0.162758  0.049859  0  2.006357  0
N  N104  1  0.11269425  0.40558144  0.71584130  1  0  -0.370236  0  3.416889  0  0  -0.284691  0  3.723989  0  0  -0.307205  0  3.741306  0  -1.170327  0  -0.386785  -0.269228  0  3.711558  0
N  N105  1  0.70727581  0.59435202  0.78411972  1  0  -0.369496  0  3.415419  0  0  -0.283946  0  3.722585  0  0  -0.306465  0  3.739928  0  -1.165333  0  -0.386494  -0.268475  0  3.710127  0
N  N106  1  0.88730385  0.59441920  0.28415888  1  0  -0.370266  0  3.416937  0  0  -0.284716  0  3.724032  0  0  -0.307231  0  3.741351  0  -1.170325  0  -0.386768  -0.269252  0  3.711599  0
N  N107  1  0.29273032  0.40564863  0.21588113  1  0  -0.369492  0  3.415462  0  0  -0.283981  0  3.722671  0  0  -0.306499  0  3.740011  0  -1.165376  0  -0.386561  -0.268511  0  3.710216  0
N  N108  1  0.19889618  0.46876702  0.60579631  1  0  -0.049474  0  3.560351  0  0  0.048541  0  3.767801  0  0  0.033839  0  3.794956  0  -1.227856  0  -0.244404  0.058224  0  3.749362  0
N  N109  1  0.73020258  0.53111409  0.89413921  1  0  -0.049542  0  3.560934  0  0  0.048807  0  3.768326  0  0  0.03409  0  3.795429  0  -1.227156  0  -0.24429  0.058501  0  3.749912  0
N  N110  1  0.80110650  0.53123363  0.39420387  1  0  -0.04945  0  3.560304  0  0  0.048535  0  3.767753  0  0  0.033833  0  3.79491  0  -1.227821  0  -0.244418  0.058217  0  3.749311  0
N  N111  1  0.26979896  0.46888655  0.10586163  1  0  -0.049584  0  3.56099  0  0  0.048767  0  3.768377  0  0  0.034048  0  3.795483  0  -1.227173  0  -0.244266  0.058462  0  3.749965  0
O  O112  1  0.26485378  0.10987433  0.97609407  1  0  -0.612682  0  2.125911  0  0  -0.539376  0  2.392487  0  0  -0.571185  0  2.383626  0  -1.14629  0  -0.328075  -0.517267  0  2.397753  0
O  O113  1  0.15499678  0.89017168  0.52400250  1  0  -0.613277  0  2.125883  0  0  -0.539745  0  2.39265  0  0  -0.571547  0  2.383793  0  -1.138595  0  -0.328343  -0.517649  0  2.397918  0
O  O114  1  0.73514733  0.89012544  0.02390710  1  0  -0.612737  0  2.125863  0  0  -0.539426  0  2.39244  0  0  -0.571233  0  2.383581  0  -1.146196  0  -0.328122  -0.517318  0  2.397705  0
O  O115  1  0.84499270  0.10982547  0.47599369  1  0  -0.613251  0  2.125977  0  0  -0.539745  0  2.392788  0  0  -0.571549  0  2.383929  0  -1.138645  0  -0.328312  -0.51765  0  2.398056  0
O  O116  1  0.99671757  0.19776717  0.90981385  1  0  -0.631932  0  2.02458  0  0  -0.561458  0  2.274389  0  0  -0.589805  0  2.262811  0  -1.18108  0  -0.332653  -0.541571  0  2.28174  0
O  O117  1  0.79916512  0.80262524  0.59040767  1  0  -0.632072  0  2.024549  0  0  -0.561506  0  2.27502  0  0  -0.589862  0  2.263446  0  -1.189656  0  -0.332941  -0.541608  0  2.282368  0
O  O118  1  0.00328065  0.80222912  0.09018598  1  0  -0.63199  0  2.024593  0  0  -0.561525  0  2.27439  0  0  -0.589872  0  2.262811  0  -1.181081  0  -0.332701  -0.541639  0  2.28174  0
O  O119  1  0.20083069  0.19737540  0.40959185  1  0  -0.632039  0  2.024473  0  0  -0.56147  0  2.274935  0  0  -0.589826  0  2.26336  0  -1.188882  0  -0.332933  -0.541573  0  2.282284  0
O  O120  1  0.26411145  0.08516881  0.11630561  1  0  -0.62215  0  2.137562  0  0  -0.543047  0  2.411813  0  0  -0.574996  0  2.399694  0  -1.130966  0  -0.330612  -0.520774  0  2.419199  0
O  O121  1  0.17870780  0.91464424  0.38367262  1  0  -0.621488  0  2.139003  0  0  -0.54222  0  2.413682  0  0  -0.574175  0  2.401557  0  -1.128042  0  -0.330042  -0.519959  0  2.421086  0
O  O122  1  0.73588878  0.91482921  0.88369489  1  0  -0.622185  0  2.137565  0  0  -0.543084  0  2.411822  0  0  -0.57503  0  2.399705  0  -1.130937  0  -0.330617  -0.520814  0  2.419209  0
O  O123  1  0.82129293  0.08536164  0.61632825  1  0  -0.621472  0  2.138957  0  0  -0.542222  0  2.413663  0  0  -0.574167  0  2.40151  0  -1.127937  0  -0.330052  -0.519956  0  2.42106  0
O  O124  1  0.80405814  0.25869901  0.87345151  1  0  -0.613072  0  2.064549  0  0  -0.530778  0  2.323486  0  0  -0.563136  0  2.312996  0  -1.124408  0  -0.337728  -0.508025  0  2.329745  0
O  O125  1  0.54539466  0.74096921  0.62630248  1  0  -0.613574  0  2.062937  0  0  -0.531134  0  2.322371  0  0  -0.563509  0  2.311877  0  -1.130547  0  -0.338127  -0.508363  0  2.328617  0
O  O126  1  0.19594253  0.74129989  0.12654932  1  0  -0.613136  0  2.064503  0  0  -0.530853  0  2.32343  0  0  -0.563211  0  2.312939  0  -1.124424  0  -0.337765  -0.508094  0  2.329673  0
O  O127  1  0.45460143  0.25902969  0.37369703  1  0  -0.613544  0  2.062994  0  0  -0.531107  0  2.322428  0  0  -0.563481  0  2.311933  0  -1.130522  0  -0.338114  -0.508336  0  2.328675  0
