# generated using pymatgen
data_NdH8C9NO7
_symmetry_space_group_name_H-M   'P 1'
_cell_length_a   8.31626901
_cell_length_b   9.43557536
_cell_length_c   16.93108128
_cell_angle_alpha   107.85099428
_cell_angle_beta   90.00022802
_cell_angle_gamma   89.99995104
_symmetry_Int_Tables_number   1
_chemical_formula_structural   NdH8C9NO7
_chemical_formula_sum   'Nd4 H32 C36 N4 O28'
_cell_volume   1264.60033458
_cell_formula_units_Z   4
loop_
 _symmetry_equiv_pos_site_id
 _symmetry_equiv_pos_as_xyz
  1  'x, y, z'
loop_
 _atom_site_type_symbol
 _atom_site_label
 _atom_site_symmetry_multiplicity
 _atom_site_fract_x
 _atom_site_fract_y
 _atom_site_fract_z
 _atom_site_occupancy
 _atom_site_pbe_bader_spin_density
 _atom_site_pbe_cm5_charge
 _atom_site_pbe_ddec_charge
 _atom_site_pbe_ddec_spin_density
 _atom_site_pbe_ddec_sum_bond_order
 _atom_site_pbe_magmom
Nd  Nd0  1  0.92600504  0.83353225  0.90166194  1  0  1.491718  2.056844  0  2.188823  0
Nd  Nd1  1  0.42600804  0.66646696  0.59833673  1  0  1.491742  2.05673  0  2.188869  0
Nd  Nd2  1  0.07399263  0.16646949  0.09833862  1  0  1.491768  2.056838  0  2.188731  0
Nd  Nd3  1  0.57399564  0.33353481  0.40166443  1  0  1.491705  2.056817  0  2.188821  0
H  H4  1  0.95428130  0.49525438  0.94896626  1  0  0.122123  0.088926  0  1.049007  0
H  H5  1  0.45428407  0.00474271  0.55103029  1  0  0.122068  0.088854  0  1.049034  0
H  H6  1  0.04572119  0.50474401  0.05103316  1  0  0.122122  0.088898  0  1.049036  0
H  H7  1  0.54571962  0.99526344  0.44896921  1  0  0.122098  0.088899  0  1.049006  0
H  H8  1  0.62860118  0.15919508  0.80585218  1  0  0.116929  0.119654  0  1.00485  0
H  H9  1  0.12860719  0.34080318  0.69414982  1  0  0.116883  0.119539  0  1.004839  0
H  H10  1  0.37139409  0.84080568  0.19415235  1  0  0.116871  0.119571  0  1.004775  0
H  H11  1  0.87139649  0.65919864  0.30585311  1  0  0.11688  0.11957  0  1.004788  0
H  H12  1  0.52252321  0.35282378  0.74207801  1  0  0.112846  0.124358  0  1.009795  0
H  H13  1  0.02253113  0.14716547  0.75791996  1  0  0.112813  0.124332  0  1.009744  0
H  H14  1  0.47747326  0.64717140  0.25792502  1  0  0.112841  0.124385  0  1.00974  0
H  H15  1  0.97747376  0.85282742  0.24208093  1  0  0.112817  0.124322  0  1.009777  0
H  H16  1  0.47224176  0.96426045  0.09968770  1  0  0.104773  0.165653  0  1.019207  0
H  H17  1  0.97224384  0.53573594  0.40031135  1  0  0.104797  0.16566  0  1.019217  0
H  H18  1  0.52775111  0.03574679  0.90031138  1  0  0.104788  0.165692  0  1.019166  0
H  H19  1  0.02775984  0.46426360  0.59968944  1  0  0.104782  0.165658  0  1.019227  0
H  H20  1  0.60912467  0.11098258  0.14973301  1  0  0.106112  0.158295  0  1.002004  0
H  H21  1  0.10912829  0.38901730  0.35026998  1  0  0.106102  0.158259  0  1.002044  0
H  H22  1  0.39087060  0.88902356  0.85026649  1  0  0.106113  0.15829  0  1.001999  0
H  H23  1  0.89087299  0.61098565  0.64973373  1  0  0.106078  0.158255  0  1.00203  0
H  H24  1  0.63039468  0.93367466  0.16386230  1  0  0.10064  0.148035  0  0.998384  0
H  H25  1  0.13039249  0.56632167  0.33613784  1  0  0.100638  0.148052  0  0.998413  0
H  H26  1  0.36960179  0.06633036  0.83613643  1  0  0.100667  0.148063  0  0.998252  0
H  H27  1  0.86960759  0.43367570  0.66386436  1  0  0.100641  0.14803  0  0.998347  0
H  H28  1  0.18576884  0.66552209  0.78068545  1  0  0.302128  0.40248  0  0.933327  0
H  H29  1  0.68576797  0.83447707  0.71931391  1  0  0.302116  0.402459  0  0.933355  0
H  H30  1  0.81422764  0.33447966  0.21931511  1  0  0.302118  0.402436  0  0.933389  0
H  H31  1  0.31423332  0.16552467  0.28068664  1  0  0.302114  0.402491  0  0.933283  0
H  H32  1  0.23046472  0.62985321  0.86467549  1  0  0.333512  0.420615  0  0.861832  0
H  H33  1  0.73046794  0.87015047  0.63532646  1  0  0.333497  0.420614  0  0.861828  0
H  H34  1  0.76953296  0.37014967  0.13532584  1  0  0.333515  0.420639  0  0.861795  0
H  H35  1  0.26953214  0.12985353  0.36467564  1  0  0.33352  0.420657  0  0.861792  0
C  C36  1  0.85728090  0.45874825  0.90431683  1  0  0.067213  0.10452  0  3.91592  0
C  C37  1  0.35728160  0.04124216  0.59567962  1  0  0.067174  0.104489  0  3.916028  0
C  C38  1  0.14272038  0.54124462  0.09568347  1  0  0.067139  0.104426  0  3.915873  0
C  C39  1  0.64272329  0.95875839  0.40431779  1  0  0.067201  0.104556  0  3.916322  0
C  C40  1  0.79405783  0.31478006  0.88545410  1  0  -0.003006  -0.07012  0  3.914984  0
C  C41  1  0.29405614  0.18521807  0.61454171  1  0  -0.003028  -0.070134  0  3.914785  0
C  C42  1  0.20593984  0.68522282  0.11454723  1  0  -0.003038  -0.070098  0  3.914757  0
C  C43  1  0.70594154  0.81478803  0.38545601  1  0  -0.003084  -0.070253  0  3.914856  0
C  C44  1  0.67445229  0.27282202  0.82448296  1  0  -0.054779  -0.036746  0  3.909357  0
C  C45  1  0.17445225  0.22716397  0.67551538  1  0  -0.054726  -0.036626  0  3.909587  0
C  C46  1  0.32554298  0.72716982  0.17551954  1  0  -0.05471  -0.036651  0  3.909391  0
C  C47  1  0.82555264  0.77283324  0.32448149  1  0  -0.05468  -0.036544  0  3.909312  0
C  C48  1  0.61726178  0.37792767  0.78876092  1  0  -0.073424  -0.131557  0  3.925648  0
C  C49  1  0.11726815  0.12206926  0.71123376  1  0  -0.073365  -0.131527  0  3.925727  0
C  C50  1  0.38273589  0.62207183  0.21123868  1  0  -0.073421  -0.131652  0  3.925629  0
C  C51  1  0.88273434  0.87792906  0.28876329  1  0  -0.073414  -0.131572  0  3.925971  0
C  C52  1  0.68567591  0.52001025  0.81300793  1  0  0.12277  0.109519  0  3.983299  0
C  C53  1  0.18567692  0.97997548  0.68698689  1  0  0.122701  0.109451  0  3.983163  0
C  C54  1  0.31432778  0.47997814  0.18699046  1  0  0.122798  0.109634  0  3.983012  0
C  C55  1  0.81432677  0.02001390  0.31300752  1  0  0.12276  0.109528  0  3.983041  0
C  C56  1  0.63404317  0.63735478  0.77478390  1  0  0.237749  0.584563  0  4.197953  0
C  C57  1  0.13405663  0.86263192  0.72520684  1  0  0.237794  0.584758  0  4.197232  0
C  C58  1  0.36594729  0.36263127  0.22521057  1  0  0.237769  0.584657  0  4.197501  0
C  C59  1  0.86594947  0.13736186  0.27478651  1  0  0.237725  0.584603  0  4.197633  0
C  C60  1  0.85567584  0.20888044  0.92961726  1  0  0.23251  0.62869  0  4.190581  0
C  C61  1  0.35567489  0.29111893  0.57038242  1  0  0.23244  0.628508  0  4.190983  0
C  C62  1  0.14432785  0.79112813  0.07038914  1  0  0.232476  0.628517  0  4.191152  0
C  C63  1  0.64432399  0.70888061  0.42961837  1  0  0.232416  0.628505  0  4.190773  0
C  C64  1  0.70918795  0.93992613  0.04599073  1  0  0.218004  0.741549  0  4.087302  0
C  C65  1  0.20918552  0.56007913  0.45401102  1  0  0.218083  0.74156  0  4.087149  0
C  C66  1  0.29080732  0.06008115  0.95400955  1  0  0.217987  0.741395  0  4.087205  0
C  C67  1  0.79081095  0.43992604  0.54599305  1  0  0.217985  0.741422  0  4.087244  0
C  C68  1  0.59708507  0.99122578  0.11867147  1  0  -0.236355  -0.510825  0  3.840993  0
C  C69  1  0.09708330  0.50877272  0.38132778  1  0  -0.236399  -0.510807  0  3.841077  0
C  C70  1  0.40290780  0.00878147  0.88132821  1  0  -0.236388  -0.510847  0  3.840868  0
C  C71  1  0.90291558  0.49122676  0.61867123  1  0  -0.236354  -0.510788  0  3.841  0
N  N72  1  0.80624821  0.55864910  0.86854878  1  0  -0.363644  -0.335195  0  3.494361  0
N  N73  1  0.30625242  0.94134771  0.63144512  1  0  -0.363573  -0.335078  0  3.494589  0
N  N74  1  0.19375668  0.44134927  0.13145005  1  0  -0.363667  -0.335194  0  3.494537  0
N  N75  1  0.69375127  0.05864946  0.36855056  1  0  -0.363613  -0.33518  0  3.494528  0
O  O76  1  0.71867368  0.75664266  0.79293815  1  0  -0.366832  -0.629046  0  2.342801  0
O  O77  1  0.21867028  0.74335202  0.70705937  1  0  -0.366755  -0.628976  0  2.342775  0
O  O78  1  0.28133000  0.24335912  0.20706360  1  0  -0.366776  -0.628954  0  2.342997  0
O  O79  1  0.78132740  0.25664409  0.29293791  1  0  -0.366773  -0.62894  0  2.342737  0
O  O80  1  0.51534192  0.61042799  0.72647073  1  0  -0.364971  -0.607205  0  2.296442  0
O  O81  1  0.01533530  0.88956556  0.77352798  1  0  -0.365066  -0.607435  0  2.295639  0
O  O82  1  0.48467139  0.38956264  0.27352861  1  0  -0.365037  -0.607417  0  2.295879  0
O  O83  1  0.98465877  0.11043504  0.22647121  1  0  -0.365045  -0.607374  0  2.296245  0
O  O84  1  0.94147296  0.26477331  0.99416705  1  0  -0.376734  -0.656846  0  2.264333  0
O  O85  1  0.44148116  0.23522496  0.50583202  1  0  -0.376785  -0.656873  0  2.264286  0
O  O86  1  0.05852110  0.73522851  0.00583588  1  0  -0.376751  -0.656771  0  2.264044  0
O  O87  1  0.55851651  0.76477894  0.49416652  1  0  -0.376669  -0.656721  0  2.264203  0
O  O88  1  0.81587308  0.07363859  0.89891820  1  0  -0.371981  -0.626191  0  2.299541  0
O  O89  1  0.31587344  0.42635288  0.60107716  1  0  -0.371977  -0.626113  0  2.299944  0
O  O90  1  0.18412700  0.92634978  0.10107960  1  0  -0.371936  -0.626108  0  2.300237  0
O  O91  1  0.68413145  0.57364546  0.39892048  1  0  -0.371928  -0.626103  0  2.299785  0
O  O92  1  0.85019949  0.99988872  0.05085742  1  0  -0.459545  -0.784411  0  2.396913  0
O  O93  1  0.35019708  0.50011000  0.44914650  1  0  -0.459559  -0.784435  0  2.396702  0
O  O94  1  0.14979818  0.00011199  0.94914533  1  0  -0.459497  -0.784312  0  2.396839  0
O  O95  1  0.64980540  0.49989404  0.55085679  1  0  -0.45956  -0.784398  0  2.396987  0
O  O96  1  0.66875539  0.83755859  0.98117913  1  0  -0.375645  -0.625882  0  2.111086  0
O  O97  1  0.16876015  0.66245265  0.51881684  1  0  -0.375726  -0.6259  0  2.111171  0
O  O98  1  0.33123868  0.16245084  0.01881913  1  0  -0.375693  -0.625849  0  2.111058  0
O  O99  1  0.83124474  0.33754791  0.48118116  1  0  -0.375665  -0.625841  0  2.110895  0
O  O100  1  0.14086430  0.64329584  0.83085870  1  0  -0.62201  -0.839552  0  2.016384  0
O  O101  1  0.64086540  0.85670781  0.66914308  1  0  -0.622004  -0.839542  0  2.01641  0
O  O102  1  0.85913338  0.35670709  0.16914441  1  0  -0.62199  -0.83954  0  2.016418  0
O  O103  1  0.35913468  0.14329846  0.33086058  1  0  -0.621997  -0.839591  0  2.016306  0
