# generated using pymatgen
data_ZnH10C14O5
_symmetry_space_group_name_H-M   'P 1'
_cell_length_a   5.77193716
_cell_length_b   12.86029348
_cell_length_c   16.98139749
_cell_angle_alpha   103.70463883
_cell_angle_beta   90.00146937
_cell_angle_gamma   89.99900858
_symmetry_Int_Tables_number   1
_chemical_formula_structural   ZnH10C14O5
_chemical_formula_sum   'Zn4 H40 C56 O20'
_cell_volume   1224.62209574
_cell_formula_units_Z   4
loop_
 _symmetry_equiv_pos_site_id
 _symmetry_equiv_pos_as_xyz
  1  'x, y, z'
loop_
 _atom_site_type_symbol
 _atom_site_label
 _atom_site_symmetry_multiplicity
 _atom_site_fract_x
 _atom_site_fract_y
 _atom_site_fract_z
 _atom_site_occupancy
 _atom_site_hle17_bader_spin_density
 _atom_site_hle17_ddec_charge
 _atom_site_hle17_ddec_spin_density
 _atom_site_hle17_ddec_sum_bond_order
 _atom_site_hle17_magmom
 _atom_site_hse06_10hf_bader_charge
 _atom_site_hse06_10hf_bader_spin_density
 _atom_site_hse06_10hf_ddec_charge
 _atom_site_hse06_10hf_ddec_spin_density
 _atom_site_hse06_10hf_ddec_sum_bond_order
 _atom_site_hse06_10hf_magmom
 _atom_site_hse06_bader_spin_density
 _atom_site_hse06_ddec_charge
 _atom_site_hse06_ddec_spin_density
 _atom_site_hse06_ddec_sum_bond_order
 _atom_site_hse06_magmom
 _atom_site_pbe_bader_spin_density
 _atom_site_pbe_cm5_charge
 _atom_site_pbe_ddec_charge
 _atom_site_pbe_ddec_spin_density
 _atom_site_pbe_ddec_sum_bond_order
 _atom_site_pbe_magmom
Zn  Zn0  1  0.02853313  0.94067571  0.88765185  1  0  1.195414  0  1.707626  0  1.372278  0  1.020517  0  2.193919  0  0  1.071501  0  2.125714  0  0  0.70354  0.984528  0  2.241211  0
Zn  Zn1  1  0.52856792  0.05933456  0.61236199  1  0  1.195466  0  1.707529  0  1.37214  0  1.020574  0  2.193784  0  0  1.07156  0  2.125587  0  0  0.703499  0.984576  0  2.241035  0
Zn  Zn2  1  0.97146570  0.05932581  0.11234742  1  0  1.195475  0  1.707425  0  1.372382  0  1.020525  0  2.19367  0  0  1.071515  0  2.12547  0  0  0.703567  0.984531  0  2.240958  0
Zn  Zn3  1  0.47146210  0.94066615  0.38765009  1  0  1.195444  0  1.707299  0  1.372283  0  1.020537  0  2.193531  0  0  1.071527  0  2.125332  0  0  0.703541  0.984521  0  2.240778  0
H  H4  1  0.80812341  0.55125159  0.91415697  1  0  0.080958  0  0.977752  0  0.073227  0  0.08915  0  1.046484  0  0  0.09144  0  1.046244  0  0  0.095756  0.08754  0  1.046694  0
H  H5  1  0.30815559  0.44875061  0.58584130  1  0  0.080992  0  0.977908  0  0.073087  0  0.08922  0  1.046577  0  0  0.091508  0  1.046342  0  0  0.095841  0.087614  0  1.046795  0
H  H6  1  0.19188062  0.44875633  0.08584817  1  0  0.081011  0  0.977825  0  0.073236  0  0.089223  0  1.046519  0  0  0.091511  0  1.046288  0  0  0.095824  0.087612  0  1.046734  0
H  H7  1  0.69186403  0.55124291  0.41415182  1  0  0.080939  0  0.977802  0  0.073218  0  0.089147  0  1.046481  0  0  0.09143  0  1.046267  0  0  0.095787  0.087536  0  1.046695  0
H  H8  1  0.05251007  0.50269398  0.79017970  1  0  0.076145  0  1.001213  0  0.109335  0  0.086062  0  1.066607  0  0  0.087284  0  1.068158  0  0  0.093897  0.08516  0  1.065592  0
H  H9  1  0.55255234  0.49731376  0.70981976  1  0  0.076284  0  1.001101  0  0.10899  0  0.086122  0  1.066611  0  0  0.087344  0  1.068164  0  0  0.093879  0.085209  0  1.065594  0
H  H10  1  0.94749396  0.49730834  0.20982267  1  0  0.076137  0  1.001177  0  0.109611  0  0.086062  0  1.066572  0  0  0.087285  0  1.068124  0  0  0.093888  0.085162  0  1.065556  0
H  H11  1  0.44749846  0.50267977  0.29016512  1  0  0.076163  0  1.001167  0  0.109551  0  0.086069  0  1.066595  0  0  0.087297  0  1.068152  0  0  0.093868  0.08515  0  1.065581  0
H  H12  1  0.01342190  0.60510992  0.68326442  1  0  0.083754  0  0.970575  0  0.081632  0  0.093032  0  1.035299  0  0  0.094894  0  1.036239  0  0  0.096015  0.091714  0  1.034741  0
H  H13  1  0.51347612  0.39489965  0.81673621  1  0  0.083774  0  0.970734  0  0.081301  0  0.093073  0  1.035414  0  0  0.094936  0  1.036353  0  0  0.096022  0.091729  0  1.034868  0
H  H14  1  0.98661159  0.39490680  0.31674524  1  0  0.083829  0  0.970659  0  0.081544  0  0.093001  0  1.035461  0  0  0.094865  0  1.036392  0  0  0.095994  0.091684  0  1.034902  0
H  H15  1  0.48655910  0.60511148  0.18325654  1  0  0.083888  0  0.970542  0  0.081484  0  0.093132  0  1.035283  0  0  0.094993  0  1.036219  0  0  0.096012  0.091785  0  1.034739  0
H  H16  1  0.71554295  0.74719762  0.69786394  1  0  0.098125  0  0.962713  0  0.089996  0  0.108764  0  1.023534  0  0  0.1115  0  1.022322  0  0  0.105721  0.106766  0  1.02454  0
H  H17  1  0.21559543  0.25281794  0.80213771  1  0  0.098035  0  0.96274  0  0.090106  0  0.108658  0  1.023596  0  0  0.111395  0  1.02238  0  0  0.10571  0.10665  0  1.024599  0
H  H18  1  0.28450093  0.25282150  0.30214321  1  0  0.098195  0  0.962648  0  0.090172  0  0.108827  0  1.023485  0  0  0.111569  0  1.022272  0  0  0.105766  0.106843  0  1.024475  0
H  H19  1  0.78443285  0.74720039  0.19786812  1  0  0.098155  0  0.962814  0  0.089934  0  0.108786  0  1.023628  0  0  0.111521  0  1.022416  0  0  0.105705  0.106774  0  1.024633  0
H  H20  1  0.29211296  0.55820811  0.91790438  1  0  0.088418  0  0.96324  0  0.070704  0  0.099597  0  1.02675  0  0  0.102167  0  1.026225  0  0  0.0983  0.097775  0  1.027187  0
H  H21  1  0.79206590  0.44177417  0.58209901  1  0  0.088191  0  0.963112  0  0.070275  0  0.099508  0  1.026506  0  0  0.102078  0  1.02598  0  0  0.09826  0.097682  0  1.026948  0
H  H22  1  0.70790666  0.44177261  0.08208821  1  0  0.088085  0  0.963218  0  0.070424  0  0.099361  0  1.026651  0  0  0.10193  0  1.026125  0  0  0.09821  0.097553  0  1.02709  0
H  H23  1  0.20787230  0.55821774  0.41790207  1  0  0.08824  0  0.963306  0  0.070617  0  0.099437  0  1.026808  0  0  0.102004  0  1.026284  0  0  0.098199  0.097607  0  1.027257  0
H  H24  1  0.05485484  0.59266369  0.04409227  1  0  0.078344  0  0.955406  0  0.044148  0  0.093945  0  1.010505  0  0  0.096327  0  1.009215  0  0  0.098744  0.092215  0  1.011519  0
H  H25  1  0.55486743  0.40732838  0.45589525  1  0  0.078312  0  0.955403  0  0.044222  0  0.093864  0  1.010565  0  0  0.096248  0  1.00927  0  0  0.098695  0.092139  0  1.011576  0
H  H26  1  0.94514399  0.40731622  0.95589782  1  0  0.078173  0  0.955458  0  0.044352  0  0.093797  0  1.010549  0  0  0.096184  0  1.00925  0  0  0.09862  0.092022  0  1.01162  0
H  H27  1  0.44513660  0.59265394  0.54408938  1  0  0.078189  0  0.955558  0  0.044151  0  0.093793  0  1.010667  0  0  0.096175  0  1.009378  0  0  0.098684  0.092056  0  1.011685  0
H  H28  1  0.13299808  0.75558811  0.15443276  1  0  0.090898  0  0.989499  0  0.067711  0  0.097836  0  1.056268  0  0  0.100485  0  1.055636  0  0  0.096661  0.095932  0  1.056787  0
H  H29  1  0.63303219  0.24441390  0.34555192  1  0  0.090793  0  0.989551  0  0.067967  0  0.09778  0  1.056243  0  0  0.100447  0  1.055592  0  0  0.09661  0.095851  0  1.056776  0
H  H30  1  0.86700422  0.24439100  0.84555777  1  0  0.090867  0  0.989406  0  0.067923  0  0.09777  0  1.056217  0  0  0.100421  0  1.055583  0  0  0.096634  0.095862  0  1.056742  0
H  H31  1  0.36701515  0.75556361  0.65444068  1  0  0.09084  0  0.989442  0  0.067275  0  0.097804  0  1.056121  0  0  0.100496  0  1.055444  0  0  0.096613  0.095865  0  1.056655  0
H  H32  1  0.45169420  0.87765782  0.13912735  1  0  0.101639  0  0.968324  0  0.098046  0  0.108856  0  1.035131  0  0  0.112616  0  1.03233  0  0  0.102498  0.106101  0  1.037255  0
H  H33  1  0.95170441  0.12233346  0.36087046  1  0  0.101624  0  0.968201  0  0.098009  0  0.108805  0  1.035046  0  0  0.112613  0  1.032192  0  0  0.102494  0.106045  0  1.037161  0
H  H34  1  0.54829597  0.12232209  0.86086156  1  0  0.101822  0  0.968085  0  0.097832  0  0.108904  0  1.035009  0  0  0.112679  0  1.032193  0  0  0.102579  0.106147  0  1.037129  0
H  H35  1  0.04832560  0.87765444  0.63914579  1  0  0.101664  0  0.968154  0  0.097632  0  0.108811  0  1.035004  0  0  0.112636  0  1.032133  0  0  0.102519  0.106033  0  1.037121  0
H  H36  1  0.88357493  0.01466243  0.76232719  1  0  0.446486  0  0.850995  0  0.682762  0  0.414988  0  0.914277  0  0  0.42584  0  0.898507  0  0  0.303178  0.407341  0  0.925382  0
H  H37  1  0.38358929  0.98533210  0.73767565  1  0  0.446449  0  0.851068  0  0.68271  0  0.414949  0  0.914351  0  0  0.425799  0  0.898586  0  0  0.303091  0.407283  0  0.925477  0
H  H38  1  0.11642044  0.98533988  0.23767753  1  0  0.446476  0  0.851006  0  0.682785  0  0.414975  0  0.914284  0  0  0.425825  0  0.898517  0  0  0.303159  0.40733  0  0.925386  0
H  H39  1  0.61641821  0.01468142  0.26233638  1  0  0.446522  0  0.850929  0  0.682957  0  0.41503  0  0.914197  0  0  0.425879  0  0.898434  0  0  0.303127  0.407354  0  0.925336  0
H  H40  1  0.71426608  0.92101243  0.77794194  1  0  0.426219  0  0.887128  0  0.670722  0  0.39274  0  0.954787  0  0  0.403661  0  0.939331  0  0  0.294005  0.385076  0  0.965609  0
H  H41  1  0.21426833  0.07897912  0.72205833  1  0  0.426297  0  0.887016  0  0.670743  0  0.392833  0  0.954647  0  0  0.403753  0  0.939193  0  0  0.294058  0.385161  0  0.96548  0
H  H42  1  0.28572236  0.07899308  0.22206865  1  0  0.42622  0  0.887129  0  0.670592  0  0.392778  0  0.954729  0  0  0.403699  0  0.939272  0  0  0.294065  0.385114  0  0.965551  0
H  H43  1  0.78573224  0.92102800  0.27794313  1  0  0.426266  0  0.887069  0  0.670785  0  0.392799  0  0.954705  0  0  0.403719  0  0.939251  0  0  0.294021  0.385126  0  0.965538  0
C  C44  1  0.59180768  0.72899494  0.81375341  1  0  -0.111939  0  3.721167  0  -0.037367  0  -0.09375  0  3.954952  0  0  -0.102257  0  3.976198  0  0  -0.016571  -0.088219  0  3.940691  0
C  C45  1  0.09184880  0.27101335  0.68624589  1  0  -0.111865  0  3.720432  0  -0.036805  0  -0.093808  0  3.954303  0  0  -0.102331  0  3.975575  0  0  -0.016538  -0.088279  0  3.940051  0
C  C46  1  0.40818422  0.27100898  0.18624630  1  0  -0.111968  0  3.721139  0  -0.037356  0  -0.093714  0  3.954878  0  0  -0.102221  0  3.976125  0  0  -0.016562  -0.088181  0  3.940618  0
C  C47  1  0.90815523  0.72900097  0.31376157  1  0  -0.112125  0  3.721257  0  -0.036588  0  -0.093951  0  3.954923  0  0  -0.102462  0  3.976173  0  0  -0.01667  -0.088422  0  3.940658  0
C  C48  1  0.62305015  0.67546014  0.87649505  1  0  0.0665  0  3.726437  0  0.00802  0  0.073325  0  3.956664  0  0  0.075407  0  3.97923  0  0  0.006504  0.072021  0  3.941389  0
C  C49  1  0.12308449  0.32454717  0.62349904  1  0  0.06633  0  3.726416  0  0.008885  0  0.073332  0  3.956413  0  0  0.075413  0  3.978981  0  0  0.006414  0.072028  0  3.94113  0
C  C50  1  0.37692789  0.32453818  0.12350247  1  0  0.066522  0  3.726434  0  0.008357  0  0.073297  0  3.956608  0  0  0.075379  0  3.979175  0  0  0.006458  0.071992  0  3.941328  0
C  C51  1  0.87690741  0.67546795  0.37650444  1  0  0.06668  0  3.726444  0  0.007632  0  0.073524  0  3.956545  0  0  0.075607  0  3.979104  0  0  0.006492  0.072215  0  3.94125  0
C  C52  1  0.78720060  0.59330368  0.86596510  1  0  -0.118578  0  3.739859  0  -0.032007  0  -0.136095  0  3.988795  0  0  -0.140505  0  4.009981  0  0  -0.089269  -0.133159  0  3.974422  0
C  C53  1  0.28723629  0.40669624  0.63402611  1  0  -0.118581  0  3.739832  0  -0.032905  0  -0.136152  0  3.988663  0  0  -0.140561  0  4.009845  0  0  -0.089367  -0.133214  0  3.974275  0
C  C54  1  0.21279130  0.40669864  0.13403372  1  0  -0.118454  0  3.740045  0  -0.031416  0  -0.135992  0  3.988967  0  0  -0.140403  0  4.010154  0  0  -0.089256  -0.133052  0  3.974591  0
C  C55  1  0.71278160  0.59330848  0.36596727  1  0  -0.118425  0  3.739555  0  -0.031621  0  -0.135918  0  3.988456  0  0  -0.14033  0  4.009635  0  0  -0.089172  -0.132982  0  3.97407  0
C  C56  1  0.92526816  0.56663613  0.79675430  1  0  -0.038109  0  3.75229  0  -0.118881  0  -0.054005  0  4.000382  0  0  -0.052956  0  4.019738  0  0  -0.08443  -0.054494  0  3.987138  0
C  C57  1  0.42530652  0.43337097  0.70324467  1  0  -0.038139  0  3.751967  0  -0.118417  0  -0.054019  0  4.000148  0  0  -0.052973  0  4.019508  0  0  -0.0844  -0.054508  0  3.986903  0
C  C58  1  0.07474106  0.43336859  0.20324732  1  0  -0.038083  0  3.752354  0  -0.120087  0  -0.054004  0  4.000438  0  0  -0.05296  0  4.019799  0  0  -0.084397  -0.054491  0  3.987185  0
C  C59  1  0.57471310  0.56663376  0.29674576  1  0  -0.038118  0  3.752176  0  -0.119433  0  -0.054016  0  4.000275  0  0  -0.052979  0  4.019643  0  0  -0.084479  -0.054514  0  3.987044  0
C  C60  1  0.90150850  0.62298676  0.73646001  1  0  -0.074446  0  3.765103  0  -0.018516  0  -0.087497  0  4.016709  0  0  -0.090365  0  4.03668  0  0  -0.093818  -0.085628  0  4.003125  0
C  C61  1  0.40156048  0.37702208  0.76353731  1  0  -0.074624  0  3.765085  0  -0.018448  0  -0.087659  0  4.01666  0  0  -0.090523  0  4.036628  0  0  -0.093864  -0.085809  0  4.003117  0
C  C62  1  0.09850073  0.37702676  0.26354496  1  0  -0.074583  0  3.765333  0  -0.018206  0  -0.087529  0  4.016948  0  0  -0.090392  0  4.036917  0  0  -0.093893  -0.08566  0  4.003369  0
C  C63  1  0.59846781  0.62298584  0.23645958  1  0  -0.074653  0  3.765225  0  -0.018556  0  -0.08768  0  4.016876  0  0  -0.090543  0  4.036848  0  0  -0.093848  -0.085828  0  4.003336  0
C  C64  1  0.73427931  0.70297553  0.74485822  1  0  -0.074816  0  3.74186  0  -0.062783  0  -0.098422  0  3.989033  0  0  -0.097835  0  4.008742  0  0  -0.085521  -0.098589  0  3.975625  0
C  C65  1  0.23432483  0.29703591  0.75514345  1  0  -0.074648  0  3.741205  0  -0.062964  0  -0.098235  0  3.98849  0  0  -0.097642  0  4.008196  0  0  -0.08553  -0.098423  0  3.975111  0
C  C66  1  0.26573512  0.29703800  0.25514498  1  0  -0.075006  0  3.742055  0  -0.062972  0  -0.098654  0  3.989252  0  0  -0.098075  0  4.008967  0  0  -0.085587  -0.098834  0  3.975841  0
C  C67  1  0.76569825  0.70298401  0.24486502  1  0  -0.074857  0  3.741876  0  -0.062901  0  -0.09847  0  3.989058  0  0  -0.097881  0  4.008767  0  0  -0.085539  -0.09866  0  3.975675  0
C  C68  1  0.49216941  0.70209086  0.95418914  1  0  0.073035  0  3.727278  0  0.008116  0  0.079599  0  3.959378  0  0  0.0826  0  3.98127  0  0  0.006803  0.077608  0  3.944567  0
C  C69  1  0.99220611  0.29790623  0.54580212  1  0  0.072905  0  3.727444  0  0.008148  0  0.079479  0  3.959433  0  0  0.082493  0  3.981306  0  0  0.006655  0.077489  0  3.944619  0
C  C70  1  0.50780170  0.29789946  0.04579752  1  0  0.072829  0  3.727392  0  0.008399  0  0.079482  0  3.959201  0  0  0.082485  0  3.981084  0  0  0.00671  0.077497  0  3.944391  0
C  C71  1  0.00778060  0.70208968  0.45420203  1  0  0.072716  0  3.727728  0  0.008424  0  0.079338  0  3.959695  0  0  0.082344  0  3.981584  0  0  0.006622  0.077355  0  3.944872  0
C  C72  1  0.32352764  0.62910780  0.96640934  1  0  -0.11742  0  3.747147  0  -0.015443  0  -0.138182  0  3.998589  0  0  -0.142183  0  4.019512  0  0  -0.091849  -0.13551  0  3.98441  0
C  C73  1  0.82352786  0.37088150  0.53358556  1  0  -0.117243  0  3.746898  0  -0.015233  0  -0.138148  0  3.998354  0  0  -0.142151  0  4.019273  0  0  -0.091849  -0.135479  0  3.984182  0
C  C74  1  0.67646946  0.37087532  0.03357838  1  0  -0.117242  0  3.747387  0  -0.015828  0  -0.138164  0  3.998862  0  0  -0.142164  0  4.01979  0  0  -0.09191  -0.135499  0  3.984667  0
C  C75  1  0.17644499  0.62910881  0.46641287  1  0  -0.117382  0  3.747371  0  -0.015439  0  -0.138208  0  3.998839  0  0  -0.14221  0  4.019753  0  0  -0.09182  -0.135548  0  3.984677  0
C  C76  1  0.19242438  0.64808501  0.03726083  1  0  -0.057032  0  3.786489  0  -0.072924  0  -0.072529  0  4.038007  0  0  -0.072603  0  4.058504  0  0  -0.08941  -0.072282  0  4.023976  0
C  C77  1  0.69243775  0.35191023  0.46272961  1  0  -0.057088  0  3.786484  0  -0.072461  0  -0.072573  0  4.03807  0  0  -0.072646  0  4.058565  0  0  -0.08944  -0.07234  0  4.024049  0
C  C78  1  0.80756232  0.35189890  0.96272880  1  0  -0.056813  0  3.786516  0  -0.07212  0  -0.072321  0  4.038033  0  0  -0.072397  0  4.058535  0  0  -0.089286  -0.072033  0  4.024014  0
C  C79  1  0.30755416  0.64807288  0.53725987  1  0  -0.056737  0  3.786551  0  -0.072621  0  -0.072249  0  4.038092  0  0  -0.072322  0  4.058595  0  0  -0.089382  -0.072018  0  4.024071  0
C  C80  1  0.23526866  0.73870006  0.09915671  1  0  -0.071676  0  3.76926  0  -0.007743  0  -0.085482  0  4.020991  0  0  -0.0886  0  4.042436  0  0  -0.095316  -0.083377  0  4.006382  0
C  C81  1  0.73530126  0.26129813  0.40083345  1  0  -0.07154  0  3.76897  0  -0.008064  0  -0.085322  0  4.020588  0  0  -0.088469  0  4.042067  0  0  -0.09526  -0.083219  0  4.006001  0
C  C82  1  0.76471977  0.26128226  0.90082969  1  0  -0.071566  0  3.768851  0  -0.008506  0  -0.085336  0  4.020558  0  0  -0.088461  0  4.042025  0  0  -0.095206  -0.083228  0  4.005935  0
C  C83  1  0.26472183  0.73868658  0.59916575  1  0  -0.071668  0  3.768935  0  -0.007612  0  -0.085442  0  4.020646  0  0  -0.088596  0  4.042083  0  0  -0.095266  -0.083358  0  4.00607  0
C  C84  1  0.41149212  0.80871738  0.09003424  1  0  -0.05743  0  3.719367  0  -0.047399  0  -0.079902  0  3.966065  0  0  -0.079303  0  3.985795  0  0  -0.084358  -0.080082  0  3.952734  0
C  C85  1  0.91152447  0.19128214  0.40996118  1  0  -0.057381  0  3.719185  0  -0.043903  0  -0.079845  0  3.965904  0  0  -0.07929  0  3.98562  0  0  -0.084319  -0.080022  0  3.952574  0
C  C86  1  0.58848592  0.19127614  0.90995594  1  0  -0.057456  0  3.719549  0  -0.041857  0  -0.079923  0  3.966218  0  0  -0.079338  0  3.98594  0  0  -0.084401  -0.080101  0  3.952897  0
C  C87  1  0.08849342  0.80870256  0.59004626  1  0  -0.057412  0  3.719254  0  -0.047082  0  -0.079846  0  3.965982  0  0  -0.079298  0  3.985692  0  0  -0.084398  -0.080029  0  3.95266  0
C  C88  1  0.53950383  0.79261847  0.01785037  1  0  -0.111928  0  3.690821  0  -0.005015  0  -0.095685  0  3.923295  0  0  -0.105512  0  3.945966  0  0  -0.015949  -0.089209  0  3.908005  0
C  C89  1  0.03955802  0.20738250  0.48214333  1  0  -0.111873  0  3.691179  0  -0.008963  0  -0.095657  0  3.923557  0  0  -0.105484  0  3.946234  0  0  -0.01586  -0.08919  0  3.908268  0
C  C90  1  0.46044823  0.20737986  0.98213184  1  0  -0.111946  0  3.691439  0  -0.01056  0  -0.095483  0  3.92348  0  0  -0.105305  0  3.946149  0  0  -0.015798  -0.089005  0  3.908194  0
C  C91  1  0.96044254  0.79260781  0.51786865  1  0  -0.111797  0  3.691128  0  -0.005144  0  -0.095545  0  3.923539  0  0  -0.105378  0  3.94622  0  0  -0.015825  -0.089099  0  3.908255  0
C  C92  1  0.41784571  0.81699220  0.82049306  1  0  0.68851  0  3.856427  0  1.593649  0  0.629441  0  4.155153  0  0  0.665127  0  4.145997  0  0  0.225262  0.605198  0  4.160634  0
C  C93  1  0.91788128  0.18302133  0.67951701  1  0  0.688691  0  3.856739  0  1.593017  0  0.629623  0  4.155497  0  0  0.665315  0  4.146337  0  0  0.225339  0.605388  0  4.160978  0
C  C94  1  0.58215486  0.18300771  0.17951299  1  0  0.688521  0  3.856587  0  1.59358  0  0.629374  0  4.155372  0  0  0.665059  0  4.146218  0  0  0.225215  0.605132  0  4.160853  0
C  C95  1  0.08212621  0.81698979  0.32048811  1  0  0.688396  0  3.856914  0  1.593054  0  0.629486  0  4.155343  0  0  0.665172  0  4.146189  0  0  0.225257  0.605252  0  4.160815  0
C  C96  1  0.72070998  0.87448991  0.01325756  1  0  0.703932  0  3.845811  0  1.579291  0  0.653344  0  4.131155  0  0  0.69043  0  4.121368  0  0  0.232922  0.628045  0  4.137081  0
C  C97  1  0.22075533  0.12551557  0.48673437  1  0  0.70429  0  3.846111  0  1.579168  0  0.653879  0  4.131192  0  0  0.690967  0  4.121385  0  0  0.233152  0.628603  0  4.13711  0
C  C98  1  0.27923861  0.12552122  0.98673638  1  0  0.704006  0  3.846271  0  1.579404  0  0.653385  0  4.13154  0  0  0.690474  0  4.121743  0  0  0.232956  0.628091  0  4.137479  0
C  C99  1  0.77923657  0.87447714  0.51327215  1  0  0.703935  0  3.846098  0  1.579436  0  0.653316  0  4.131445  0  0  0.69041  0  4.121644  0  0  0.232997  0.628068  0  4.137331  0
O  O100  1  0.24310372  0.81827371  0.86695101  1  0  -0.630339  0  2.06873  0  -1.179005  0  -0.55593  0  2.341538  0  0  -0.587236  0  2.329432  0  0  -0.302212  -0.534099  0  2.34928  0
O  O101  1  0.74310109  0.18174887  0.63306510  1  0  -0.630551  0  2.068663  0  -1.178578  0  -0.556114  0  2.341443  0  0  -0.587428  0  2.329339  0  0  -0.302283  -0.534278  0  2.349168  0
O  O102  1  0.75690377  0.18173340  0.13306222  1  0  -0.630347  0  2.068865  0  -1.179065  0  -0.55584  0  2.341591  0  0  -0.587148  0  2.329488  0  0  -0.302138  -0.53402  0  2.349337  0
O  O103  1  0.25690120  0.81826064  0.36694268  1  0  -0.630382  0  2.068418  0  -1.178784  0  -0.556039  0  2.341169  0  0  -0.587354  0  2.329067  0  0  -0.302261  -0.534199  0  2.348889  0
O  O104  1  0.45294026  0.88592175  0.77889729  1  0  -0.658932  0  2.066147  0  -1.225151  0  -0.588002  0  2.288554  0  0  -0.614157  0  2.276533  0  0  -0.308621  -0.569765  0  2.296388  0
O  O105  1  0.95295727  0.11409878  0.72110845  1  0  -0.658931  0  2.066557  0  -1.22466  0  -0.587978  0  2.288951  0  0  -0.614129  0  2.276921  0  0  -0.308588  -0.569755  0  2.296773  0
O  O106  1  0.54704644  0.11409416  0.22111811  1  0  -0.658906  0  2.066283  0  -1.22491  0  -0.587959  0  2.2887  0  0  -0.61411  0  2.276677  0  0  -0.308579  -0.569727  0  2.296538  0
O  O107  1  0.04706062  0.88590674  0.27889508  1  0  -0.658796  0  2.066731  0  -1.22471  0  -0.587874  0  2.289005  0  0  -0.614023  0  2.276977  0  0  -0.308526  -0.569671  0  2.29685  0
O  O108  1  0.76446067  0.89456429  0.94477969  1  0  -0.664308  0  2.11849  0  -1.212296  0  -0.589337  0  2.397902  0  0  -0.618432  0  2.379074  0  0  -0.310191  -0.569083  0  2.410322  0
O  O109  1  0.26448716  0.10542536  0.55521006  1  0  -0.664382  0  2.118403  0  -1.21208  0  -0.589548  0  2.397827  0  0  -0.61864  0  2.378978  0  0  -0.310239  -0.569334  0  2.410245  0
O  O110  1  0.23550178  0.10543325  0.05518647  1  0  -0.664111  0  2.119514  0  -1.212366  0  -0.589196  0  2.398999  0  0  -0.618279  0  2.380148  0  0  -0.310067  -0.568943  0  2.41143  0
O  O111  1  0.73551860  0.89457773  0.44482070  1  0  -0.664043  0  2.119402  0  -1.212198  0  -0.589094  0  2.398848  0  0  -0.618177  0  2.379998  0  0  -0.310142  -0.568921  0  2.411267  0
O  O112  1  0.81539573  0.92114402  0.08031663  1  0  -0.655668  0  2.095215  0  -1.197878  0  -0.5842  0  2.379497  0  0  -0.61321  0  2.360109  0  0  -0.313288  -0.564034  0  2.39229  0
O  O113  1  0.31546007  0.07886969  0.41968229  1  0  -0.65589  0  2.095382  0  -1.19816  0  -0.584511  0  2.379605  0  0  -0.61352  0  2.360216  0  0  -0.313569  -0.564394  0  2.392398  0
O  O114  1  0.18450435  0.07887432  0.91965740  1  0  -0.655875  0  2.094398  0  -1.197877  0  -0.584438  0  2.378654  0  0  -0.613457  0  2.359276  0  0  -0.313532  -0.56426  0  2.391444  0
O  O115  1  0.68449891  0.92112300  0.58034837  1  0  -0.655867  0  2.094306  0  -1.197981  0  -0.584372  0  2.378529  0  0  -0.613394  0  2.359152  0  0  -0.3136  -0.56428  0  2.391315  0
O  O116  1  0.87843080  0.94923719  0.78399169  1  0  -0.855715  0  1.911174  0  -1.317367  0  -0.782144  0  2.141534  0  0  -0.806101  0  2.102889  0  0  -0.578784  -0.765285  0  2.168326  0
O  O117  1  0.37843012  0.05075418  0.71600818  1  0  -0.855822  0  1.911193  0  -1.317304  0  -0.782246  0  2.141539  0  0  -0.806201  0  2.102889  0  0  -0.578812  -0.765389  0  2.168346  0
O  O118  1  0.12157323  0.05075793  0.21600761  1  0  -0.855684  0  1.911246  0  -1.317222  0  -0.782143  0  2.141597  0  0  -0.8061  0  2.102952  0  0  -0.578776  -0.765286  0  2.16839  0
O  O119  1  0.62157911  0.94925454  0.28400004  1  0  -0.855815  0  1.911101  0  -1.3177  0  -0.782291  0  2.141496  0  0  -0.806244  0  2.102842  0  0  -0.578792  -0.765437  0  2.168312  0
