# generated using pymatgen
data_CdH11C15(NO)4
_symmetry_space_group_name_H-M   'P 1'
_cell_length_a   10.06340969
_cell_length_b   13.24108034
_cell_length_c   17.91581954
_cell_angle_alpha   78.19299842
_cell_angle_beta   73.68179946
_cell_angle_gamma   67.68164145
_symmetry_Int_Tables_number   1
_chemical_formula_structural   CdH11C15(NO)4
_chemical_formula_sum   'Cd4 H44 C60 N16 O16'
_cell_volume   2106.55920677
_cell_formula_units_Z   4
loop_
 _symmetry_equiv_pos_site_id
 _symmetry_equiv_pos_as_xyz
  1  'x, y, z'
loop_
 _atom_site_type_symbol
 _atom_site_label
 _atom_site_symmetry_multiplicity
 _atom_site_fract_x
 _atom_site_fract_y
 _atom_site_fract_z
 _atom_site_occupancy
 _atom_site_pbe_bader_charge
 _atom_site_pbe_bader_spin_density
 _atom_site_pbe_cm5_charge
 _atom_site_pbe_ddec_charge
 _atom_site_pbe_ddec_spin_density
 _atom_site_pbe_ddec_sum_bond_order
 _atom_site_pbe_magmom
Cd  Cd0  1  0.42443481  0.90024281  0.93196526  1  1.276479  0  0.774274  0.891046  0  2.184122  0
Cd  Cd1  1  0.25658529  0.59974938  0.56815610  1  1.277908  0  0.774497  0.89086  0  2.185985  0
Cd  Cd2  1  0.57557325  0.09974792  0.06803732  1  1.276583  0  0.774234  0.891031  0  2.184035  0
Cd  Cd3  1  0.74340223  0.40025970  0.43183653  1  1.27788  0  0.774508  0.890915  0  2.18595  0
H  H4  1  0.67218871  0.79329861  0.77983376  1  0.116553  0  0.115563  0.093331  0  1.009115  0
H  H5  1  0.24503532  0.70665616  0.72038173  1  0.124749  0  0.115704  0.093442  0  1.007858  0
H  H6  1  0.32781449  0.20668623  0.22017374  1  0.116581  0  0.115576  0.093313  0  1.009062  0
H  H7  1  0.75496753  0.29335138  0.27960773  1  0.124714  0  0.115709  0.093391  0  1.007897  0
H  H8  1  0.74832007  0.64424742  0.69465087  1  0.117154  0  0.112726  0.131079  0  1.017518  0
H  H9  1  0.08739280  0.85616727  0.80522522  1  0.113053  0  0.112942  0.132055  0  1.016861  0
H  H10  1  0.25167470  0.35573898  0.30535908  1  0.11674  0  0.112682  0.131158  0  1.017438  0
H  H11  1  0.91260735  0.14383337  0.19477482  1  0.113308  0  0.112955  0.132043  0  1.016899  0
H  H12  1  0.38942338  0.54299760  0.84526229  1  0.06823  0  0.116287  0.132094  0  1.000131  0
H  H13  1  0.77790558  0.95705053  0.65469832  1  0.137416  0  0.11641  0.132876  0  0.999872  0
H  H14  1  0.61057974  0.45698697  0.15475378  1  0.068133  0  0.116236  0.131932  0  1.000224  0
H  H15  1  0.22209666  0.04297243  0.34529602  1  0.137995  0  0.116357  0.132854  0  0.999827  0
H  H16  1  0.32213448  0.70201878  0.91806909  1  0.086842  0  0.116029  0.085272  0  1.003859  0
H  H17  1  0.94233209  0.79798450  0.58196173  1  0.086153  0  0.115544  0.084178  0  1.004103  0
H  H18  1  0.67787624  0.29796667  0.08194510  1  0.086909  0  0.116068  0.085342  0  1.003895  0
H  H19  1  0.05767131  0.20204864  0.41802182  1  0.08721  0  0.115529  0.084152  0  1.0042  0
H  H20  1  0.37670125  0.30818639  0.80856221  1  0.100714  0  0.11938  0.136927  0  0.977327  0
H  H21  1  0.49384153  0.19187979  0.69147786  1  0.117028  0  0.119955  0.13832  0  0.976844  0
H  H22  1  0.62329937  0.69179613  0.19144079  1  0.10071  0  0.119297  0.13682  0  0.977513  0
H  H23  1  0.50617012  0.80812566  0.30852573  1  0.116801  0  0.120039  0.138476  0  0.976729  0
H  H24  1  0.38717921  0.18644680  0.93575619  1  0.149944  0  0.117458  0.103711  0  1.014152  0
H  H25  1  0.50978111  0.31326608  0.56413223  1  0.169492  0  0.117229  0.103746  0  1.013517  0
H  H26  1  0.61282880  0.81353656  0.06424621  1  0.14994  0  0.117444  0.103752  0  1.014113  0
H  H27  1  0.49022216  0.68672737  0.43586226  1  0.169498  0  0.117278  0.103817  0  1.013479  0
H  H28  1  0.74061764  0.25557385  0.96023740  1  0.077447  0  0.116273  0.087995  0  0.994478  0
H  H29  1  0.95681754  0.24429207  0.53940077  1  0.078257  0  0.116075  0.087435  0  0.994127  0
H  H30  1  0.25938038  0.74441776  0.03976335  1  0.07761  0  0.116347  0.08806  0  0.994426  0
H  H31  1  0.04318919  0.75571480  0.46058410  1  0.078442  0  0.116113  0.087452  0  0.99418  0
H  H32  1  0.74111609  0.38376525  0.83802126  1  0.072713  0  0.106691  0.116999  0  1.014173  0
H  H33  1  0.96334327  0.11616814  0.66168543  1  0.082003  0  0.106632  0.117094  0  1.015054  0
H  H34  1  0.25887784  0.61621899  0.16197922  1  0.072593  0  0.10669  0.116958  0  1.014287  0
H  H35  1  0.03667240  0.88385075  0.33830798  1  0.070462  0  0.106596  0.116974  0  1.015272  0
H  H36  1  0.01100096  0.34876807  0.64243310  1  0.073011  0  0.113364  0.139861  0  0.946349  0
H  H37  1  0.00257609  0.15129955  0.85751068  1  0.066949  0  0.113256  0.139648  0  0.946567  0
H  H38  1  0.98899650  0.65124467  0.35754755  1  0.072742  0  0.113332  0.139875  0  0.946275  0
H  H39  1  0.99742617  0.84869749  0.14249958  1  0.066821  0  0.113266  0.139604  0  0.946606  0
H  H40  1  0.90083521  0.43370373  0.71663551  1  0.062273  0  0.100933  0.112073  0  0.997736  0
H  H41  1  0.05141596  0.06641800  0.78328209  1  0.059987  0  0.100785  0.111722  0  0.997308  0
H  H42  1  0.09916505  0.56628562  0.28335899  1  0.062086  0  0.100967  0.112112  0  0.997694  0
H  H43  1  0.94858665  0.93358827  0.21672185  1  0.059886  0  0.100781  0.111746  0  0.997251  0
H  H44  1  0.86316837  0.48754730  0.54436000  1  0.138018  0  0.110962  0.12237  0  1.027979  0
H  H45  1  0.89533925  0.01249935  0.95557313  1  0.135441  0  0.110806  0.121737  0  1.027953  0
H  H46  1  0.13680311  0.51246893  0.45563976  1  0.13787  0  0.110919  0.122265  0  1.027974  0
H  H47  1  0.10467226  0.98748570  0.04442797  1  0.13534  0  0.110789  0.121713  0  1.028014  0
C  C48  1  0.61224842  0.73618661  0.79156992  1  0.514086  0  0.046639  0.109996  0  3.957192  0
C  C49  1  0.13992734  0.76389313  0.70850447  1  0.457651  0  0.047208  0.111  0  3.956794  0
C  C50  1  0.38775698  0.26379814  0.20844062  1  0.514841  0  0.04652  0.110068  0  3.957185  0
C  C51  1  0.86007557  0.23611838  0.29148906  1  0.453449  0  0.047269  0.111166  0  3.956814  0
C  C52  1  0.65574177  0.65212424  0.74504822  1  -0.019396  0  -0.086669  -0.211292  0  3.935929  0
C  C53  1  0.05307607  0.84818688  0.75486361  1  -0.022081  0  -0.087213  -0.213903  0  3.935772  0
C  C54  1  0.34426118  0.34785149  0.25496232  1  -0.020415  0  -0.086541  -0.211412  0  3.935699  0
C  C55  1  0.94692905  0.15181637  0.24513211  1  -0.022683  0  -0.087142  -0.213763  0  3.935809  0
C  C56  1  0.57821771  0.57804666  0.76458130  1  0.290232  0  0.113395  0.166927  0  4.009591  0
C  C57  1  0.92100863  0.92216626  0.73535170  1  0.318048  0  0.113389  0.168799  0  4.008936  0
C  C58  1  0.42176859  0.42195304  0.23542278  1  0.291285  0  0.11323  0.16668  0  4.009854  0
C  C59  1  0.07899401  0.07785094  0.26464324  1  0.317443  0  0.113423  0.168827  0  4.008966  0
C  C60  1  0.45638571  0.59536549  0.82901820  1  0.057741  0  -0.088979  -0.212706  0  3.96359  0
C  C61  1  0.88097721  0.90473439  0.67093862  1  -0.026741  0  -0.089279  -0.21564  0  3.965634  0
C  C62  1  0.54362867  0.40461277  0.17098988  1  0.057501  0  -0.08885  -0.212369  0  3.963569  0
C  C63  1  0.11902416  0.09528211  0.32905276  1  -0.026786  0  -0.089325  -0.215757  0  3.965568  0
C  C64  1  0.41936660  0.68378050  0.87001010  1  0.468355  0  0.042369  0.097366  0  3.999686  0
C  C65  1  0.97326259  0.81625661  0.63001309  1  0.535021  0  0.04263  0.099152  0  3.99911  0
C  C66  1  0.58064187  0.31620261  0.13000031  1  0.468412  0  0.0423  0.097255  0  4.000218  0
C  C67  1  0.02673646  0.18376651  0.36997603  1  0.533661  0  0.042665  0.099279  0  3.998907  0
C  C68  1  0.55741184  0.35727233  0.81228888  1  0.476839  0  0.107886  0.208898  0  4.135303  0
C  C69  1  0.72739798  0.14276718  0.68755966  1  0.393483  0  0.108845  0.209217  0  4.133844  0
C  C70  1  0.44260863  0.64269206  0.18771735  1  0.477015  0  0.108021  0.209033  0  4.135423  0
C  C71  1  0.27261619  0.85723186  0.31243962  1  0.393255  0  0.108832  0.209233  0  4.133629  0
C  C72  1  0.45662282  0.29992468  0.84173133  1  -0.003175  0  -0.079144  -0.195975  0  3.915715  0
C  C73  1  0.59867159  0.20002609  0.65817594  1  0.001645  0  -0.079618  -0.198184  0  3.918649  0
C  C74  1  0.54338199  0.70007026  0.15826811  1  -0.002955  0  -0.07906  -0.195827  0  3.91559  0
C  C75  1  0.40133495  0.79998363  0.34182218  1  0.001805  0  -0.079667  -0.198289  0  3.918553  0
C  C76  1  0.46174232  0.23322792  0.91202701  1  0.428161  0  0.042591  0.099478  0  3.956545  0
C  C77  1  0.60742681  0.26653358  0.58780180  1  0.411388  0  0.04329  0.100724  0  3.957676  0
C  C78  1  0.53825659  0.76676029  0.08797779  1  0.428308  0  0.042516  0.099396  0  3.956871  0
C  C79  1  0.39258001  0.73346722  0.41219352  1  0.411188  0  0.043166  0.100574  0  3.957523  0
C  C80  1  0.65813643  0.27287709  0.92633911  1  0.474114  0  0.032991  0.084583  0  4.03107  0
C  C81  1  0.85777018  0.22697408  0.57335051  1  0.478924  0  0.033901  0.08683  0  4.02898  0
C  C82  1  0.34185783  0.72711684  0.07366630  1  0.473998  0  0.032905  0.084702  0  4.030905  0
C  C83  1  0.14223612  0.77303424  0.42664027  1  0.479261  0  0.033902  0.086934  0  4.029064  0
C  C84  1  0.65851255  0.34394227  0.85829864  1  -0.035053  0  -0.100156  -0.233259  0  3.972803  0
C  C85  1  0.86119698  0.15597648  0.64143034  1  -0.024965  0  -0.100142  -0.233157  0  3.971752  0
C  C86  1  0.34148236  0.65605331  0.14170627  1  -0.035413  0  -0.100168  -0.233476  0  3.972971  0
C  C87  1  0.13881157  0.84403911  0.35856366  1  -0.013522  0  -0.100034  -0.232929  0  3.97187  0
C  C88  1  0.56974853  0.55105266  0.58536374  1  1.569881  0  0.20677  0.568678  0  4.254076  0
C  C89  1  0.70640327  0.94887852  0.91469203  1  1.588759  0  0.205845  0.568144  0  4.252695  0
C  C90  1  0.43023154  0.44894374  0.41464109  1  1.569368  0  0.206781  0.568534  0  4.254142  0
C  C91  1  0.29360176  0.05111646  0.08530612  1  1.5888  0  0.205957  0.568416  0  4.252193  0
C  C92  1  0.68040294  0.50621438  0.63620696  1  0.332332  0  0.068695  -0.059248  0  3.966398  0
C  C93  1  0.82289781  0.99384410  0.86381476  1  0.288001  0  0.068385  -0.060528  0  3.965063  0
C  C94  1  0.31958057  0.49378774  0.36379865  1  0.33328  0  0.068631  -0.059365  0  3.966294  0
C  C95  1  0.17710361  0.00615403  0.13618744  1  0.289011  0  0.068364  -0.060698  0  3.964859  0
C  C96  1  0.82620005  0.47723175  0.60792639  1  -0.020429  0  -0.065272  -0.051507  0  3.93014  0
C  C97  1  0.91148801  0.02288487  0.89202278  1  0.005095  0  -0.064644  -0.049838  0  3.927684  0
C  C98  1  0.17378323  0.52277542  0.39207466  1  -0.020454  0  -0.065294  -0.051388  0  3.929918  0
C  C99  1  0.08852168  0.97711086  0.10797757  1  0.003979  0  -0.064637  -0.04976  0  3.927569  0
C  C100  1  0.94374802  0.43460864  0.65298538  1  -0.023959  0  -0.158006  -0.291629  0  3.967897  0
C  C101  1  0.03154472  0.06549101  0.84693042  1  -0.045044  0  -0.157763  -0.290833  0  3.965852  0
C  C102  1  0.05623917  0.56540046  0.34700652  1  -0.023778  0  -0.158018  -0.291765  0  3.96786  0
C  C103  1  0.96845872  0.93450958  0.15307155  1  -0.044803  0  -0.157689  -0.290771  0  3.965806  0
C  C104  1  0.05032548  0.49944340  0.62658596  1  1.562991  0  0.18841  0.615775  0  4.176001  0
C  C105  1  0.17652065  0.00054354  0.87334360  1  1.58302  0  0.189419  0.615771  0  4.175031  0
C  C106  1  0.94965432  0.50057287  0.37341269  1  1.563318  0  0.188562  0.61593  0  4.175729  0
C  C107  1  0.82348598  0.99945212  0.12665883  1  1.583123  0  0.189348  0.615828  0  4.17505  0
N  N108  1  0.49606172  0.75280904  0.85322291  1  -1.212759  0  -0.329601  -0.258519  0  3.481654  0
N  N109  1  0.10198694  0.74713988  0.64691889  1  -1.237474  0  -0.329164  -0.257788  0  3.481714  0
N  N110  1  0.50394476  0.24718067  0.14678597  1  -1.212444  0  -0.329665  -0.25871  0  3.48187  0
N  N111  1  0.89801090  0.25288327  0.35306935  1  -1.23257  0  -0.329231  -0.258055  0  3.482083  0
N  N112  1  0.61765881  0.49233792  0.71898220  1  -0.72939  0  -0.10136  0.138334  0  3.693203  0
N  N113  1  0.82902844  0.00775473  0.78099904  1  -0.722355  0  -0.10018  0.139351  0  3.697311  0
N  N114  1  0.38234864  0.50762802  0.28102696  1  -0.730206  0  -0.101296  0.138464  0  3.692511  0
N  N115  1  0.17097534  0.99224090  0.21900419  1  -0.72225  0  -0.100044  0.139625  0  3.697058  0
N  N116  1  0.56251956  0.41099095  0.73856730  1  -0.586991  0  -0.177178  -0.215412  0  3.095508  0
N  N117  1  0.71248381  0.08931769  0.76137416  1  -0.567392  0  -0.177164  -0.214669  0  3.099132  0
N  N118  1  0.43746681  0.58902706  0.26142797  1  -0.587466  0  -0.177429  -0.215621  0  3.095172  0
N  N119  1  0.28753464  0.91071989  0.23862417  1  -0.567274  0  -0.177264  -0.2149  0  3.099084  0
N  N120  1  0.56139490  0.21852347  0.95410259  1  -1.223535  0  -0.342753  -0.273955  0  3.535847  0
N  N121  1  0.73440548  0.28124295  0.54564881  1  -1.215874  0  -0.34328  -0.275206  0  3.537038  0
N  N122  1  0.43860527  0.78146561  0.04590049  1  -1.223352  0  -0.342849  -0.274181  0  3.535839  0
N  N123  1  0.26559908  0.71875551  0.45434273  1  -1.215671  0  -0.343279  -0.275283  0  3.537118  0
O  O124  1  0.43606958  0.59146552  0.62218068  1  -1.155919  0  -0.330029  -0.548145  0  2.295746  0
O  O125  1  0.64970065  0.90859244  0.87790838  1  -1.150094  0  -0.330204  -0.548142  0  2.291852  0
O  O126  1  0.56390726  0.40852674  0.37782545  1  -1.155964  0  -0.329978  -0.548026  0  2.295655  0
O  O127  1  0.35030221  0.09141170  0.12208497  1  -1.149937  0  -0.330226  -0.548213  0  2.291652  0
O  O128  1  0.61407398  0.54740899  0.51230513  1  -1.158945  0  -0.321611  -0.552895  0  2.282493  0
O  O129  1  0.67441234  0.95224053  0.98776789  1  -1.15717  0  -0.321944  -0.553748  0  2.283028  0
O  O130  1  0.38589486  0.45258985  0.48770034  1  -1.159167  0  -0.321637  -0.552755  0  2.282394  0
O  O131  1  0.32559696  0.04774954  0.01222962  1  -1.157303  0  -0.32201  -0.55388  0  2.282871  0
O  O132  1  0.16009211  0.46871846  0.65752698  1  -1.160801  0  -0.348166  -0.559376  0  2.09671  0
O  O133  1  0.28659170  0.03120992  0.84244002  1  -1.15742  0  -0.349452  -0.560227  0  2.096798  0
O  O134  1  0.83988074  0.53130505  0.34247585  1  -1.16112  0  -0.348353  -0.559511  0  2.096516  0
O  O135  1  0.71341475  0.96878507  0.15755774  1  -1.157397  0  -0.349431  -0.560253  0  2.096697  0
O  O136  1  0.02369466  0.58036623  0.57332725  1  -1.184683  0  -0.34172  -0.579639  0  2.160192  0
O  O137  1  0.17738339  0.91960750  0.92657633  1  -1.181702  0  -0.341531  -0.579253  0  2.159411  0
O  O138  1  0.97628667  0.41964846  0.42666965  1  -1.184649  0  -0.341612  -0.579595  0  2.160193  0
O  O139  1  0.82262077  0.08038901  0.07342500  1  -1.181807  0  -0.341586  -0.579369  0  2.159466  0
