# generated using pymatgen
data_Cu3MoH12C17S3N6O
_symmetry_space_group_name_H-M   'P 1'
_cell_length_a   9.11420384
_cell_length_b   11.09616097
_cell_length_c   15.60140930
_cell_angle_alpha   95.52946157
_cell_angle_beta   93.94452140
_cell_angle_gamma   113.93137952
_symmetry_Int_Tables_number   1
_chemical_formula_structural   Cu3MoH12C17S3N6O
_chemical_formula_sum   'Cu6 Mo2 H24 C34 S6 N12 O2'
_cell_volume   1425.33295452
_cell_formula_units_Z   2
loop_
 _symmetry_equiv_pos_site_id
 _symmetry_equiv_pos_as_xyz
  1  'x, y, z'
loop_
 _atom_site_type_symbol
 _atom_site_label
 _atom_site_symmetry_multiplicity
 _atom_site_fract_x
 _atom_site_fract_y
 _atom_site_fract_z
 _atom_site_occupancy
 _atom_site_hle17_bader_spin_density
 _atom_site_hle17_ddec_charge
 _atom_site_hle17_ddec_spin_density
 _atom_site_hle17_ddec_sum_bond_order
 _atom_site_hle17_magmom
 _atom_site_hse06_10hf_bader_spin_density
 _atom_site_hse06_10hf_ddec_charge
 _atom_site_hse06_10hf_ddec_spin_density
 _atom_site_hse06_10hf_ddec_sum_bond_order
 _atom_site_hse06_10hf_magmom
 _atom_site_hse06_bader_spin_density
 _atom_site_hse06_ddec_charge
 _atom_site_hse06_ddec_spin_density
 _atom_site_hse06_ddec_sum_bond_order
 _atom_site_hse06_magmom
 _atom_site_pbe_bader_spin_density
 _atom_site_pbe_cm5_charge
 _atom_site_pbe_ddec_charge
 _atom_site_pbe_ddec_spin_density
 _atom_site_pbe_ddec_sum_bond_order
 _atom_site_pbe_magmom
Cu  Cu0  1  0.36579289  0.82587102  0.73494482  1  0  0.462757  0  2.377  0  0  0.39292  0  2.89298  0  0  0.379459  0  2.864856  0  0  0.475027  0.405239  0  2.908956  0
Cu  Cu1  1  0.63421555  0.17412639  0.26505551  1  0  0.462803  0  2.37687  0  0  0.392991  0  2.892808  0  0  0.379536  0  2.864689  0  0  0.475043  0.405312  0  2.908788  0
Cu  Cu2  1  0.75177137  0.83498625  0.66355436  1  0  0.377378  0  2.373695  0  0  0.29433  0  2.879096  0  0  0.278653  0  2.855261  0  0  0.478867  0.309109  0  2.891939  0
Cu  Cu3  1  0.24823138  0.16501515  0.33644857  1  0  0.377378  0  2.373589  0  0  0.294342  0  2.878993  0  0  0.278689  0  2.855154  0  0  0.478852  0.309115  0  2.891855  0
Cu  Cu4  1  0.64550998  0.12792253  0.65464109  1  0  0.545108  0  2.255128  0  0  0.485753  0  2.756496  0  0  0.481686  0  2.717925  0  0  0.46284  0.490382  0  2.78096  0
Cu  Cu5  1  0.35448516  0.87207689  0.34536266  1  0  0.5451  0  2.255009  0  0  0.485754  0  2.756371  0  0  0.481702  0  2.71776  0  0  0.462851  0.490382  0  2.780833  0
Mo  Mo6  1  0.50676543  0.87419569  0.58883299  1  0  1.196761  0  4.443998  0  0  1.19676  0  5.047448  0  0  1.265136  0  5.033979  0  0  0.95233  1.150727  0  5.057051  0
Mo  Mo7  1  0.49323930  0.12579875  0.41116698  1  0  1.196804  0  4.443958  0  0  1.196791  0  5.047408  0  0  1.265159  0  5.033944  0  0  0.952373  1.150755  0  5.057033  0
H  H8  1  0.39625112  0.73164131  0.90364315  1  0  0.081991  0  0.919702  0  0  0.091684  0  0.977047  0  0  0.094858  0  0.974467  0  0  0.11682  0.089221  0  0.979125  0
H  H9  1  0.60375243  0.26835511  0.09635563  1  0  0.082041  0  0.91972  0  0  0.091702  0  0.977081  0  0  0.094874  0  0.974503  0  0  0.116845  0.089239  0  0.979156  0
H  H10  1  0.59115980  0.79500068  0.03680070  1  0  0.104248  0  0.945197  0  0  0.118508  0  0.996276  0  0  0.121712  0  0.995464  0  0  0.110211  0.1161  0  0.997153  0
H  H11  1  0.40884595  0.20499575  0.96319688  1  0  0.104088  0  0.945158  0  0  0.118371  0  0.996229  0  0  0.121577  0  0.995414  0  0  0.110135  0.115965  0  0.997108  0
H  H12  1  0.84315267  0.17608607  0.94801075  1  0  0.108314  0  0.937536  0  0  0.122657  0  0.987756  0  0  0.126035  0  0.986764  0  0  0.111486  0.120115  0  0.988798  0
H  H13  1  0.15685070  0.82391434  0.05198957  1  0  0.108312  0  0.937555  0  0  0.122647  0  0.987785  0  0  0.12602  0  0.986797  0  0  0.111479  0.120103  0  0.988828  0
H  H14  1  0.64242814  0.09298507  0.81689907  1  0  0.066662  0  0.979927  0  0  0.067425  0  1.061446  0  0  0.073093  0  1.054327  0  0  0.101497  0.062979  0  1.066911  0
H  H15  1  0.35756989  0.90701136  0.18310396  1  0  0.066745  0  0.979859  0  0  0.067497  0  1.061387  0  0  0.073165  0  1.054271  0  0  0.101517  0.063053  0  1.066848  0
H  H16  1  0.70976570  0.88868245  0.16073280  1  0  0.108844  0  0.943068  0  0  0.123738  0  0.993994  0  0  0.126589  0  0.993086  0  0  0.110157  0.121573  0  0.994963  0
H  H17  1  0.29023047  0.11131897  0.83926858  1  0  0.108859  0  0.943101  0  0  0.12374  0  0.994046  0  0  0.126586  0  0.993145  0  0  0.110144  0.121577  0  0.995017  0
H  H18  1  0.24378058  0.25259112  0.16126570  1  0  0.079637  0  0.926463  0  0  0.088302  0  0.989209  0  0  0.091212  0  0.986665  0  0  0.114827  0.085959  0  0.991359  0
H  H19  1  0.75621216  0.74740134  0.83873363  1  0  0.07962  0  0.926391  0  0  0.088272  0  0.989163  0  0  0.091183  0  0.986619  0  0  0.114803  0.085929  0  0.991312  0
H  H20  1  0.04700115  0.19257960  0.02979091  1  0  0.101207  0  0.9459  0  0  0.114465  0  1.000003  0  0  0.117577  0  0.999102  0  0  0.108502  0.112236  0  1.00082  0
H  H21  1  0.95300038  0.80741284  0.97020815  1  0  0.101175  0  0.945918  0  0  0.114459  0  0.999989  0  0  0.117571  0  0.999088  0  0  0.108518  0.112232  0  1.000806  0
H  H22  1  0.92516226  0.95471898  0.28301422  1  0  0.089542  0  0.922214  0  0  0.103028  0  0.974932  0  0  0.105512  0  0.97285  0  0  0.116505  0.100894  0  0.97686  0
H  H23  1  0.07483061  0.04528244  0.71698829  1  0  0.089524  0  0.922233  0  0  0.103004  0  0.974941  0  0  0.10549  0  0.97286  0  0  0.1165  0.10087  0  0.976874  0
H  H24  1  0.64211929  0.54330795  0.61781819  1  0  0.080667  0  0.937227  0  0  0.094527  0  0.992426  0  0  0.096533  0  0.990935  0  0  0.108015  0.092947  0  0.993775  0
H  H25  1  0.35788119  0.45669545  0.38218222  1  0  0.080626  0  0.937266  0  0  0.094489  0  0.992457  0  0  0.096493  0  0.990966  0  0  0.107994  0.092912  0  0.993801  0
H  H26  1  0.74699509  0.38763769  0.55334117  1  0  0.118387  0  1.000138  0  0  0.127545  0  1.06267  0  0  0.131031  0  1.061591  0  0  0.10425  0.125058  0  1.06364  0
H  H27  1  0.25300590  0.61236671  0.44665805  1  0  0.118346  0  1.000172  0  0  0.127575  0  1.062621  0  0  0.131062  0  1.06154  0  0  0.104253  0.125089  0  1.063589  0
H  H28  1  0.15199240  0.73084193  0.49163716  1  0  0.109553  0  0.998893  0  0  0.117046  0  1.066222  0  0  0.120214  0  1.065372  0  0  0.10008  0.114559  0  1.067362  0
H  H29  1  0.84801842  0.26916243  0.50837144  1  0  0.109492  0  0.998922  0  0  0.116964  0  1.066286  0  0  0.120135  0  1.065434  0  0  0.100047  0.114478  0  1.067427  0
H  H30  1  0.03006616  0.87075665  0.55905400  1  0  0.079136  0  0.940272  0  0  0.090614  0  1.00098  0  0  0.092181  0  1.000378  0  0  0.103434  0.089546  0  1.001256  0
H  H31  1  0.96994139  0.12924773  0.44095126  1  0  0.079118  0  0.940276  0  0  0.090601  0  1.000973  0  0  0.092167  0  1.000373  0  0  0.103454  0.089534  0  1.00125  0
C  C32  1  0.49832951  0.82913555  0.91623073  1  0  0.122035  0  3.720455  0  0  0.093398  0  3.976917  0  0  0.099233  0  3.992516  0  0  0.04244  0.089464  0  3.967066  0
C  C33  1  0.50167344  0.17086187  0.08377002  1  0  0.121951  0  3.720605  0  0  0.093359  0  3.977032  0  0  0.099192  0  3.992628  0  0  0.042501  0.089429  0  3.967178  0
C  C34  1  0.60720491  0.86596691  0.99080459  1  0  -0.163266  0  3.726101  0  0  -0.181774  0  3.973211  0  0  -0.189457  0  3.995282  0  0  -0.08421  -0.176923  0  3.958834  0
C  C35  1  0.39279390  0.13402454  0.00919685  1  0  -0.163044  0  3.726052  0  0  -0.18153  0  3.973134  0  0  -0.189212  0  3.995206  0  0  -0.084184  -0.176684  0  3.958765  0
C  C36  1  0.73767386  0.99223416  0.00500907  1  0  0.09066  0  3.760511  0  0  0.103293  0  3.999807  0  0  0.107545  0  4.021651  0  0  0.010186  0.10031  0  3.985228  0
C  C37  1  0.26232149  0.00776128  0.99499057  1  0  0.090545  0  3.760535  0  0  0.103078  0  3.999964  0  0  0.107327  0  4.021808  0  0  0.01013  0.100084  0  3.985407  0
C  C38  1  0.74811479  0.07549631  0.94115493  1  0  -0.15323  0  3.702247  0  0  -0.171772  0  3.944352  0  0  -0.17934  0  3.966695  0  0  -0.081084  -0.167029  0  3.929929  0
C  C39  1  0.25188005  0.92449814  0.05884463  1  0  -0.15311  0  3.70211  0  0  -0.171622  0  3.944202  0  0  -0.179183  0  3.966547  0  0  -0.081011  -0.166869  0  3.929781  0
C  C40  1  0.63490001  0.03031507  0.86787675  1  0  0.125702  0  3.710375  0  0  0.099162  0  3.965617  0  0  0.10452  0  3.980221  0  0  0.044138  0.095461  0  3.956835  0
C  C41  1  0.36509795  0.96968336  0.13212321  1  0  0.125531  0  3.710366  0  0  0.099023  0  3.965581  0  0  0.104371  0  3.980188  0  0  0.044102  0.095318  0  3.956798  0
C  C42  1  0.85888816  0.03288780  0.08193869  1  0  0.098861  0  3.743756  0  0  0.095999  0  3.998372  0  0  0.100861  0  4.018812  0  0  0.008163  0.092751  0  3.984712  0
C  C43  1  0.14110936  0.96710763  0.91806489  1  0  0.098894  0  3.743622  0  0  0.096089  0  3.998211  0  0  0.100958  0  4.018641  0  0  0.00814  0.092841  0  3.984556  0
C  C44  1  0.82759567  0.96732905  0.15568263  1  0  -0.150163  0  3.703213  0  0  -0.166636  0  3.955083  0  0  -0.17289  0  3.973961  0  0  -0.07959  -0.163028  0  3.943293  0
C  C45  1  0.17239681  0.03266940  0.84431518  1  0  -0.150273  0  3.703455  0  0  -0.166764  0  3.955328  0  0  -0.173017  0  3.97421  0  0  -0.079593  -0.163154  0  3.943539  0
C  C46  1  0.03999950  0.61753930  0.77641479  1  0  0.490669  0  3.99158  0  0  0.463381  0  4.26739  0  0  0.484691  0  4.280873  0  0  0.298701  0.449015  0  4.257919  0
C  C47  1  0.95999143  0.38245817  0.22357455  1  0  0.490793  0  3.991656  0  0  0.463517  0  4.267463  0  0  0.484826  0  4.280943  0  0  0.29873  0.449144  0  4.258  0
C  C48  1  0.12451755  0.17098709  0.15748113  1  0  0.129224  0  3.698078  0  0  0.095484  0  3.958991  0  0  0.102204  0  3.974345  0  0  0.043551  0.09109  0  3.949357  0
C  C49  1  0.87548639  0.82901232  0.84252171  1  0  0.129317  0  3.697961  0  0  0.095571  0  3.958886  0  0  0.102289  0  3.974237  0  0  0.0436  0.091174  0  3.949251  0
C  C50  1  0.01244722  0.13759591  0.08463171  1  0  -0.153337  0  3.710479  0  0  -0.170083  0  3.965096  0  0  -0.177717  0  3.986773  0  0  -0.080868  -0.165274  0  3.950665  0
C  C51  1  0.98755524  0.86240053  0.91536574  1  0  -0.153374  0  3.710717  0  0  -0.170142  0  3.965309  0  0  -0.177776  0  3.986984  0  0  -0.080923  -0.16534  0  3.950878  0
C  C52  1  0.94690169  0.00509487  0.22550518  1  0  0.134729  0  3.679159  0  0  0.10608  0  3.926469  0  0  0.113033  0  3.940964  0  0  0.046086  0.101161  0  3.918121  0
C  C53  1  0.05309606  0.99490753  0.77449953  1  0  0.134759  0  3.679666  0  0  0.106132  0  3.926938  0  0  0.113079  0  3.941436  0  0  0.046065  0.101211  0  3.91859  0
C  C54  1  0.75625588  0.58054559  0.58992047  1  0  0.122235  0  3.704665  0  0  0.094726  0  3.951717  0  0  0.099794  0  3.969531  0  0  0.037383  0.091227  0  3.940144  0
C  C55  1  0.24374629  0.41945682  0.41007994  1  0  0.122337  0  3.704659  0  0  0.094834  0  3.951715  0  0  0.099899  0  3.96952  0  0  0.037425  0.091339  0  3.940142  0
C  C56  1  0.81682143  0.49382107  0.55363535  1  0  -0.154052  0  3.699739  0  0  -0.172484  0  3.94162  0  0  -0.18107  0  3.965266  0  0  -0.084058  -0.166953  0  3.925885  0
C  C57  1  0.18317955  0.50618333  0.44636515  1  0  -0.154088  0  3.699767  0  0  -0.172559  0  3.941643  0  0  -0.18115  0  3.965289  0  0  -0.084092  -0.167027  0  3.92591  0
C  C58  1  0.96423564  0.54434869  0.51831296  1  0  0.095704  0  3.742874  0  0  0.10999  0  3.966366  0  0  0.113614  0  3.988562  0  0  0.012498  0.107635  0  3.951171  0
C  C59  1  0.03576863  0.45565570  0.48168960  1  0  0.095691  0  3.742777  0  0  0.109916  0  3.966339  0  0  0.113546  0  3.988532  0  0  0.01247  0.107553  0  3.951149  0
C  C60  1  0.03955682  0.68289101  0.51923357  1  0  -0.152216  0  3.695591  0  0  -0.170106  0  3.937231  0  0  -0.178096  0  3.959942  0  0  -0.083676  -0.164931  0  3.922423  0
C  C61  1  0.96045013  0.31711436  0.48077238  1  0  -0.152137  0  3.695434  0  0  -0.169997  0  3.937062  0  0  -0.17799  0  3.959777  0  0  -0.083628  -0.164819  0  3.922255  0
C  C62  1  0.97115985  0.76294222  0.55711339  1  0  0.128605  0  3.699138  0  0  0.10281  0  3.943344  0  0  0.107983  0  3.961485  0  0  0.038853  0.099308  0  3.931491  0
C  C63  1  0.02884542  0.23706415  0.44289063  1  0  0.128701  0  3.699208  0  0  0.102927  0  3.94338  0  0  0.10809  0  3.961518  0  0  0.038861  0.099425  0  3.931533  0
C  C64  1  0.83236280  0.40792281  0.75211553  1  0  0.504876  0  4.010715  0  0  0.479356  0  4.279093  0  0  0.502083  0  4.292103  0  0  0.305802  0.463975  0  4.269954  0
C  C65  1  0.16762848  0.59209059  0.24787878  1  0  0.504632  0  4.011389  0  0  0.47911  0  4.279736  0  0  0.501832  0  4.292754  0  0  0.305806  0.463726  0  4.270595  0
S  S66  1  0.38400053  0.99251671  0.65778328  1  0  -0.606325  0  2.281338  0  0  -0.598373  0  2.74547  0  0  -0.606801  0  2.724691  0  0  -0.428536  -0.592207  0  2.758432  0
S  S67  1  0.61599660  0.00747574  0.34221559  1  0  -0.606361  0  2.281415  0  0  -0.598417  0  2.745565  0  0  -0.606847  0  2.724784  0  0  -0.428558  -0.59225  0  2.75853  0
S  S68  1  0.48511475  0.70543267  0.66599860  1  0  -0.584288  0  2.216514  0  0  -0.580704  0  2.656836  0  0  -0.585053  0  2.636886  0  0  -0.438646  -0.577383  0  2.669003  0
S  S69  1  0.51489209  0.29456374  0.33400224  1  0  -0.584352  0  2.216483  0  0  -0.580781  0  2.656802  0  0  -0.585142  0  2.636862  0  0  -0.438671  -0.57746  0  2.668977  0
S  S70  1  0.77373239  0.01105656  0.59410250  1  0  -0.581607  0  2.248754  0  0  -0.574603  0  2.704801  0  0  -0.581372  0  2.683652  0  0  -0.42439  -0.569984  0  2.718188  0
S  S71  1  0.22627245  0.98894682  0.40590322  1  0  -0.581612  0  2.248792  0  0  -0.574609  0  2.704861  0  0  -0.581384  0  2.68371  0  0  -0.424381  -0.56999  0  2.718258  0
N  N72  1  0.51136312  0.90884145  0.85470365  1  0  -0.280371  0  3.313664  0  0  -0.218533  0  3.600242  0  0  -0.225692  0  3.608822  0  0  -0.343322  -0.214941  0  3.595222  0
N  N73  1  0.48863661  0.09115398  0.14529810  1  0  -0.280287  0  3.31371  0  0  -0.218488  0  3.60029  0  0  -0.225636  0  3.608861  0  0  -0.343351  -0.214897  0  3.595271  0
N  N74  1  0.16051103  0.70839692  0.76789356  1  0  -0.554337  0  3.05261  0  0  -0.516319  0  3.373587  0  0  -0.527406  0  3.374409  0  0  -0.429175  -0.509556  0  3.372678  0
N  N75  1  0.83949470  0.29160153  0.23209455  1  0  -0.554459  0  3.052876  0  0  -0.516455  0  3.373851  0  0  -0.527539  0  3.374664  0  0  -0.429182  -0.50969  0  3.372942  0
N  N76  1  0.09434938  0.10541950  0.22716586  1  0  -0.26028  0  3.340525  0  0  -0.192121  0  3.632891  0  0  -0.199086  0  3.640061  0  0  -0.354093  -0.189214  0  3.629278  0
N  N77  1  0.90564851  0.89458093  0.77283231  1  0  -0.26032  0  3.340467  0  0  -0.192146  0  3.632803  0  0  -0.199095  0  3.639955  0  0  -0.354093  -0.189239  0  3.629184  0
N  N78  1  0.83238363  0.71380203  0.59328968  1  0  -0.282023  0  3.346541  0  0  -0.213024  0  3.630327  0  0  -0.222096  0  3.640906  0  0  -0.357219  -0.207443  0  3.623331  0
N  N79  1  0.16761844  0.28620236  0.40671279  1  0  -0.282089  0  3.346694  0  0  -0.213109  0  3.630488  0  0  -0.222158  0  3.641039  0  0  -0.357206  -0.207533  0  3.623505  0
N  N80  1  0.75456188  0.29720449  0.71985879  1  0  -0.580841  0  3.098389  0  0  -0.536888  0  3.415871  0  0  -0.549747  0  3.41146  0  0  -0.447191  -0.529061  0  3.418851  0
N  N81  1  0.24542055  0.70279797  0.28013567  1  0  -0.580718  0  3.099143  0  0  -0.536766  0  3.416605  0  0  -0.549628  0  3.412202  0  0  -0.447219  -0.528944  0  3.419583  0
N  N82  1  0.90532833  0.52702943  0.79335314  1  0  -0.48145  0  3.293477  0  0  -0.431665  0  3.542163  0  0  -0.454722  0  3.547298  0  0  -0.32135  -0.4153  0  3.537598  0
N  N83  1  0.09466426  0.47298000  0.20663646  1  0  -0.481343  0  3.292991  0  0  -0.431568  0  3.541655  0  0  -0.454626  0  3.546792  0  0  -0.321348  -0.415195  0  3.537089  0
O  O84  1  0.42020845  0.81445642  0.48250443  1  0  -0.615645  0  1.751093  0  0  -0.577858  0  2.040492  0  0  -0.606478  0  2.038037  0  0  -0.525187  -0.558766  0  2.042649  0
O  O85  1  0.57980365  0.18553302  0.51749486  1  0  -0.615675  0  1.751059  0  0  -0.577837  0  2.040399  0  0  -0.606451  0  2.037943  0  0  -0.525255  -0.558743  0  2.042562  0
