# generated using pymatgen
data_AgP2H31C29(NO2)2
_symmetry_space_group_name_H-M   'P 1'
_cell_length_a   11.01880755
_cell_length_b   11.88756615
_cell_length_c   12.90549217
_cell_angle_alpha   112.39275263
_cell_angle_beta   102.33393681
_cell_angle_gamma   105.78731989
_symmetry_Int_Tables_number   1
_chemical_formula_structural   AgP2H31C29(NO2)2
_chemical_formula_sum   'Ag2 P4 H62 C58 N4 O8'
_cell_volume   1405.15483083
_cell_formula_units_Z   2
loop_
 _symmetry_equiv_pos_site_id
 _symmetry_equiv_pos_as_xyz
  1  'x, y, z'
loop_
 _atom_site_type_symbol
 _atom_site_label
 _atom_site_symmetry_multiplicity
 _atom_site_fract_x
 _atom_site_fract_y
 _atom_site_fract_z
 _atom_site_occupancy
 _atom_site_hle17_bader_spin_density
 _atom_site_hle17_ddec_charge
 _atom_site_hle17_ddec_spin_density
 _atom_site_hle17_ddec_sum_bond_order
 _atom_site_hle17_magmom
 _atom_site_hse06_10hf_bader_spin_density
 _atom_site_hse06_10hf_ddec_charge
 _atom_site_hse06_10hf_ddec_spin_density
 _atom_site_hse06_10hf_ddec_sum_bond_order
 _atom_site_hse06_10hf_magmom
 _atom_site_hse06_bader_spin_density
 _atom_site_hse06_ddec_charge
 _atom_site_hse06_ddec_spin_density
 _atom_site_hse06_ddec_sum_bond_order
 _atom_site_hse06_magmom
 _atom_site_pbe_bader_spin_density
 _atom_site_pbe_cm5_charge
 _atom_site_pbe_ddec_charge
 _atom_site_pbe_ddec_spin_density
 _atom_site_pbe_ddec_sum_bond_order
 _atom_site_pbe_magmom
Ag  Ag0  1  0.20216556  0.48474084  0.32399380  1  0  0.201706  0  1.905938  0  0  0.090603  0  2.395959  0  0  0.10446  0  2.355918  0  0  0.41061  0.081202  0  2.42408  0
Ag  Ag1  1  0.79783420  0.51525911  0.67600690  1  0  0.201722  0  1.905944  0  0  0.090616  0  2.395964  0  0  0.104474  0  2.355923  0  0  0.410621  0.081214  0  2.424081  0
P  P2  1  0.31901351  0.34641576  0.34291217  1  0  0.357944  0  3.668669  0  0  0.316412  0  4.136447  0  0  0.326722  0  4.131585  0  0  -0.016861  0.309294  0  4.140088  0
P  P3  1  0.68098757  0.65358518  0.65708834  1  0  0.357931  0  3.668724  0  0  0.316395  0  4.136507  0  0  0.326702  0  4.131649  0  0  -0.016881  0.309285  0  4.14013  0
P  P4  1  0.10917423  0.62825415  0.43433508  1  0  0.35301  0  3.690578  0  0  0.314826  0  4.151112  0  0  0.324831  0  4.147391  0  0  -0.018837  0.307739  0  4.153979  0
P  P5  1  0.89082512  0.37174482  0.56566597  1  0  0.353021  0  3.690531  0  0  0.314866  0  4.151001  0  0  0.324869  0  4.147277  0  0  -0.018841  0.307781  0  4.15387  0
H  H6  1  0.40427011  0.44883855  0.55820209  1  0  0.111751  0  0.937074  0  0  0.131594  0  0.992537  0  0  0.132292  0  0.994321  0  0  0.104154  0.130997  0  0.99145  0
H  H7  1  0.59573243  0.55116140  0.44179755  1  0  0.111795  0  0.937076  0  0  0.131634  0  0.992544  0  0  0.132333  0  0.994327  0  0  0.104171  0.131055  0  0.991433  0
H  H8  1  0.51092233  0.37427891  0.50267744  1  0  0.100925  0  0.963555  0  0  0.115364  0  1.033227  0  0  0.11741  0  1.031407  0  0  0.096062  0.113586  0  1.035073  0
H  H9  1  0.48907888  0.62572005  0.49732084  1  0  0.100925  0  0.963542  0  0  0.115365  0  1.033225  0  0  0.117411  0  1.031406  0  0  0.096046  0.113585  0  1.035075  0
H  H10  1  0.13709001  0.58869352  0.60435614  1  0  0.110743  0  0.933959  0  0  0.129758  0  0.990094  0  0  0.130768  0  0.991585  0  0  0.102641  0.128969  0  0.989112  0
H  H11  1  0.86291067  0.41130643  0.39564550  1  0  0.110746  0  0.933958  0  0  0.129745  0  0.99011  0  0  0.130754  0  0.991601  0  0  0.102653  0.128958  0  0.989127  0
H  H12  1  0.99715327  0.63343307  0.58105208  1  0  0.097183  0  0.954894  0  0  0.111583  0  1.025098  0  0  0.114118  0  1.022682  0  0  0.09431  0.109345  0  1.027488  0
H  H13  1  0.00284689  0.36656788  0.41894981  1  0  0.097241  0  0.954874  0  0  0.111631  0  1.025082  0  0  0.114167  0  1.022664  0  0  0.094338  0.109393  0  1.027473  0
H  H14  1  0.94286622  0.34425533  0.02038360  1  0  0.040907  0  0.915214  0  0  0.054485  0  0.976646  0  0  0.055634  0  0.97265  0  0  0.121406  0.053352  0  0.979778  0
H  H15  1  0.05713301  0.65574562  0.97961580  1  0  0.040927  0  0.915194  0  0  0.054482  0  0.97665  0  0  0.05563  0  0.972655  0  0  0.121408  0.053349  0  0.979781  0
H  H16  1  0.77577342  0.96850780  0.95163658  1  0  0.090076  0  0.956092  0  0  0.108887  0  1.023827  0  0  0.108267  0  1.026024  0  0  0.096716  0.109224  0  1.022398  0
H  H17  1  0.22422912  0.03149214  0.04836307  1  0  0.090075  0  0.956116  0  0  0.108904  0  1.023828  0  0  0.108284  0  1.026023  0  0  0.096727  0.109241  0  1.022398  0
H  H18  1  0.65305558  0.02726832  0.99428281  1  0  0.091905  0  0.947278  0  0  0.111449  0  1.01299  0  0  0.111544  0  1.014072  0  0  0.100857  0.111241  0  1.012427  0
H  H19  1  0.34694696  0.97273162  0.00571839  1  0  0.091918  0  0.947241  0  0  0.111439  0  1.012987  0  0  0.111532  0  1.014069  0  0  0.100859  0.11123  0  1.012423  0
H  H20  1  0.81866289  0.09047889  0.10322436  1  0  0.106638  0  0.953114  0  0  0.123854  0  1.019043  0  0  0.125209  0  1.018182  0  0  0.107655  0.122889  0  1.019492  0
H  H21  1  0.18134005  0.90952204  0.89677648  1  0  0.106652  0  0.953131  0  0  0.12389  0  1.019027  0  0  0.125243  0  1.018167  0  0  0.107668  0.122925  0  1.019476  0
H  H22  1  0.77900251  0.22961322  0.85118422  1  0  0.105989  0  0.938432  0  0  0.12388  0  1.004793  0  0  0.124332  0  1.004776  0  0  0.107558  0.123391  0  1.004954  0
H  H23  1  0.22099724  0.77038673  0.14881647  1  0  0.105981  0  0.938434  0  0  0.123876  0  1.004792  0  0  0.124327  0  1.004777  0  0  0.107554  0.123387  0  1.004955  0
H  H24  1  0.62759332  0.12938456  0.85411960  1  0  0.091941  0  0.962732  0  0  0.109361  0  1.031149  0  0  0.10975  0  1.031433  0  0  0.098867  0.108906  0  1.031216  0
H  H25  1  0.37240603  0.87061440  0.14587990  1  0  0.091948  0  0.962735  0  0  0.10937  0  1.031149  0  0  0.109757  0  1.031435  0  0  0.098873  0.108913  0  1.031217  0
H  H26  1  0.73160314  0.05461112  0.79031461  1  0  0.093756  0  0.972978  0  0  0.111174  0  1.040845  0  0  0.110692  0  1.04385  0  0  0.096249  0.111544  0  1.038631  0
H  H27  1  0.26839662  0.94538884  0.20968531  1  0  0.093753  0  0.972985  0  0  0.111172  0  1.04085  0  0  0.11069  0  1.043855  0  0  0.096248  0.111542  0  1.038637  0
H  H28  1  0.29720098  0.35235730  0.11634597  1  0  0.089929  0  0.974246  0  0  0.096859  0  1.043476  0  0  0.099634  0  1.042092  0  0  0.0975  0.094811  0  1.044556  0
H  H29  1  0.70279838  0.64764167  0.88365198  1  0  0.089907  0  0.974275  0  0  0.096847  0  1.043489  0  0  0.099614  0  1.042115  0  0  0.097493  0.094799  0  1.044571  0
H  H30  1  0.42911870  0.30727836  0.98096973  1  0  0.095125  0  0.963353  0  0  0.107398  0  1.021265  0  0  0.10971  0  1.020471  0  0  0.103856  0.105667  0  1.022058  0
H  H31  1  0.57088198  0.69272159  0.01903036  1  0  0.09509  0  0.963379  0  0  0.107382  0  1.021275  0  0  0.109694  0  1.020481  0  0  0.103853  0.105647  0  1.022066  0
H  H32  1  0.61702127  0.23966593  0.03122563  1  0  0.085644  0  0.976738  0  0  0.095919  0  1.040074  0  0  0.098335  0  1.039395  0  0  0.100935  0.094174  0  1.04066  0
H  H33  1  0.38297888  0.76033501  0.96877394  1  0  0.085644  0  0.976742  0  0  0.09592  0  1.040073  0  0  0.098335  0  1.039396  0  0  0.10093  0.094174  0  1.040661  0
H  H34  1  0.66849140  0.20376072  0.21195034  1  0  0.087221  0  0.958865  0  0  0.100138  0  1.016435  0  0  0.102456  0  1.016471  0  0  0.099576  0.098526  0  1.016371  0
H  H35  1  0.33150916  0.79624121  0.78805042  1  0  0.087205  0  0.958879  0  0  0.100129  0  1.01644  0  0  0.102442  0  1.016482  0  0  0.099573  0.098518  0  1.016374  0
H  H36  1  0.53788412  0.24621433  0.34521704  1  0  0.080562  0  0.98275  0  0  0.092882  0  1.046936  0  0  0.094344  0  1.047787  0  0  0.095217  0.091785  0  1.046438  0
H  H37  1  0.46211591  0.75378859  0.65478320  1  0  0.080533  0  0.982734  0  0  0.092856  0  1.04692  0  0  0.094317  0  1.047772  0  0  0.09521  0.091758  0  1.046423  0
H  H38  1  0.07460404  0.13688443  0.16008989  1  0  0.095221  0  0.973159  0  0  0.106603  0  1.034423  0  0  0.109878  0  1.032409  0  0  0.0995  0.104197  0  1.035995  0
H  H39  1  0.92539612  0.86311652  0.83991045  1  0  0.095177  0  0.973182  0  0  0.106557  0  1.034451  0  0  0.109831  0  1.032437  0  0  0.099476  0.10415  0  1.036026  0
H  H40  1  0.93300673  0.91646346  0.12934302  1  0  0.083696  0  0.944858  0  0  0.098907  0  0.998154  0  0  0.101491  0  0.997477  0  0  0.100483  0.097048  0  0.998613  0
H  H41  1  0.06699302  0.08353649  0.87065613  1  0  0.083689  0  0.944876  0  0  0.098909  0  0.998161  0  0  0.101469  0  0.997513  0  0  0.100479  0.097051  0  0.998619  0
H  H42  1  0.99062009  0.84791073  0.28753622  1  0  0.087317  0  0.98506  0  0  0.096798  0  1.047864  0  0  0.098109  0  1.049724  0  0  0.096745  0.095811  0  1.046699  0
H  H43  1  0.00937926  0.15208823  0.71246173  1  0  0.087321  0  0.985047  0  0  0.0968  0  1.047854  0  0  0.098111  0  1.049715  0  0  0.096747  0.095812  0  1.04669  0
H  H44  1  0.19632048  0.99576214  0.47030784  1  0  0.085562  0  0.999693  0  0  0.095464  0  1.06225  0  0  0.096422  0  1.065079  0  0  0.094888  0.094711  0  1.060466  0
H  H45  1  0.80367795  0.00423683  0.52968994  1  0  0.08556  0  0.999662  0  0  0.095448  0  1.062233  0  0  0.096409  0  1.065065  0  0  0.094878  0.094696  0  1.060448  0
H  H46  1  0.34485598  0.20863156  0.49638670  1  0  0.098672  0  0.964064  0  0  0.112752  0  1.022173  0  0  0.114867  0  1.021717  0  0  0.104218  0.111258  0  1.02242  0
H  H47  1  0.65514285  0.79136840  0.50361382  1  0  0.098701  0  0.964154  0  0  0.112788  0  1.022248  0  0  0.114904  0  1.021783  0  0  0.10424  0.111292  0  1.022497  0
H  H48  1  0.03279297  0.57129532  0.18879488  1  0  0.087764  0  0.985759  0  0  0.095633  0  1.055917  0  0  0.098621  0  1.053777  0  0  0.092902  0.093301  0  1.057793  0
H  H49  1  0.96720731  0.42870364  0.81120711  1  0  0.087784  0  0.98576  0  0  0.095658  0  1.05592  0  0  0.098647  0  1.053781  0  0  0.092917  0.093325  0  1.057799  0
H  H50  1  0.82733153  0.54854141  0.04144209  1  0  0.093239  0  0.992473  0  0  0.09589  0  1.065997  0  0  0.100059  0  1.062678  0  0  0.092803  0.092863  0  1.068415  0
H  H51  1  0.17266915  0.45145854  0.95856032  1  0  0.093282  0  0.992421  0  0  0.095937  0  1.065943  0  0  0.100099  0  1.06263  0  0  0.092847  0.092909  0  1.068362  0
H  H52  1  0.64028579  0.58951213  0.10777474  1  0  0.089863  0  0.964662  0  0  0.097978  0  1.030741  0  0  0.101175  0  1.028488  0  0  0.099804  0.095606  0  1.032552  0
H  H53  1  0.35971609  0.41049078  0.89222815  1  0  0.089934  0  0.964522  0  0  0.097993  0  1.030661  0  0  0.101194  0  1.028399  0  0  0.099811  0.09562  0  1.032472  0
H  H54  1  0.65898891  0.65829701  0.31817641  1  0  0.091503  0  0.98253  0  0  0.096831  0  1.053641  0  0  0.100211  0  1.051599  0  0  0.096287  0.094471  0  1.055049  0
H  H55  1  0.34101071  0.34170493  0.68182496  1  0  0.091506  0  0.982561  0  0  0.096828  0  1.05367  0  0  0.100207  0  1.051629  0  0  0.0963  0.094474  0  1.055064  0
H  H56  1  0.86100622  0.67742152  0.46514549  1  0  0.076351  0  0.980229  0  0  0.087885  0  1.047265  0  0  0.089899  0  1.046977  0  0  0.092808  0.086399  0  1.047592  0
H  H57  1  0.13899486  0.32257942  0.53485656  1  0  0.076324  0  0.980266  0  0  0.087847  0  1.047314  0  0  0.089859  0  1.04703  0  0  0.092815  0.086377  0  1.047622  0
H  H58  1  0.07339644  0.84549927  0.62169782  1  0  0.086576  0  0.970525  0  0  0.098855  0  1.032761  0  0  0.100576  0  1.033341  0  0  0.099105  0.097701  0  1.032132  0
H  H59  1  0.92660159  0.15449871  0.37830109  1  0  0.086605  0  0.970504  0  0  0.098887  0  1.032739  0  0  0.100605  0  1.033323  0  0  0.09912  0.097739  0  1.032106  0
H  H60  1  0.22446343  0.07895881  0.75802342  1  0  0.084594  0  0.968667  0  0  0.09527  0  1.03068  0  0  0.097405  0  1.030884  0  0  0.098581  0.093806  0  1.030516  0
H  H61  1  0.77553500  0.92104016  0.24197591  1  0  0.084603  0  0.968644  0  0  0.095257  0  1.030678  0  0  0.097391  0  1.030884  0  0  0.09858  0.093793  0  1.030514  0
H  H62  1  0.45067562  0.17123105  0.75040651  1  0  0.093791  0  1.005948  0  0  0.098172  0  1.076111  0  0  0.101843  0  1.073314  0  0  0.098612  0.095309  0  1.078483  0
H  H63  1  0.54932188  0.82876792  0.24959343  1  0  0.093796  0  1.00597  0  0  0.09818  0  1.07613  0  0  0.10185  0  1.073334  0  0  0.098604  0.095311  0  1.078508  0
H  H64  1  0.52837344  0.02663182  0.60478224  1  0  0.08899  0  0.954902  0  0  0.102948  0  1.010121  0  0  0.104878  0  1.010822  0  0  0.101138  0.101811  0  1.009164  0
H  H65  1  0.47162539  0.97336814  0.39521829  1  0  0.089025  0  0.954822  0  0  0.102961  0  1.01007  0  0  0.104891  0  1.010771  0  0  0.101149  0.101822  0  1.009114  0
H  H66  1  0.37652239  0.79079526  0.46514930  1  0  0.090722  0  0.985432  0  0  0.095625  0  1.061098  0  0  0.099251  0  1.058017  0  0  0.094267  0.093048  0  1.063189  0
H  H67  1  0.62347643  0.20920470  0.53485045  1  0  0.090714  0  0.985407  0  0  0.095613  0  1.061079  0  0  0.099238  0  1.057998  0  0  0.09427  0.093037  0  1.063167  0
C  C68  1  0.45324672  0.43361727  0.49098254  1  0  -0.258867  0  3.67985  0  0  -0.280314  0  3.924002  0  0  -0.284516  0  3.937213  0  0  -0.167549  -0.2773  0  3.915281  0
C  C69  1  0.54675489  0.56638268  0.50901616  1  0  -0.258939  0  3.679877  0  0  -0.280366  0  3.923968  0  0  -0.284571  0  3.937182  0  0  -0.167552  -0.277363  0  3.915244  0
C  C70  1  0.04727858  0.57276449  0.53473687  1  0  -0.258479  0  3.696838  0  0  -0.280194  0  3.942638  0  0  -0.284575  0  3.955593  0  0  -0.167504  -0.277062  0  3.934085  0
C  C71  1  0.95272210  0.42723546  0.46526399  1  0  -0.258578  0  3.696919  0  0  -0.28023  0  3.942636  0  0  -0.284604  0  3.955581  0  0  -0.167565  -0.277098  0  3.934087  0
C  C72  1  0.91822517  0.27263803  0.05551758  1  0  0.38447  0  3.840396  0  0  0.314159  0  4.121585  0  0  0.341734  0  4.123279  0  0  0.16988  0.295827  0  4.119632  0
C  C73  1  0.08177366  0.72736193  0.94448140  1  0  0.384447  0  3.840427  0  0  0.314146  0  4.121621  0  0  0.341722  0  4.123312  0  0  0.169854  0.295814  0  4.119667  0
C  C74  1  0.76125402  0.05601236  0.00894527  1  0  -0.166146  0  3.655611  0  0  -0.265014  0  3.898431  0  0  -0.261148  0  3.908762  0  0  -0.136229  -0.267294  0  3.891275  0
C  C75  1  0.23874707  0.94398858  0.99105524  1  0  -0.166167  0  3.655536  0  0  -0.265046  0  3.898358  0  0  -0.261178  0  3.908687  0  0  -0.136241  -0.267326  0  3.891203  0
C  C76  1  0.73235901  0.14267726  0.86199403  1  0  -0.177825  0  3.674452  0  0  -0.281052  0  3.929054  0  0  -0.277295  0  3.940107  0  0  -0.136639  -0.283283  0  3.921548  0
C  C77  1  0.26764075  0.85732269  0.13800589  1  0  -0.177825  0  3.674465  0  0  -0.281053  0  3.929063  0  0  -0.277296  0  3.940117  0  0  -0.136637  -0.283284  0  3.921557  0
C  C78  1  0.40996024  0.30416026  0.24044780  1  0  -0.106381  0  3.763554  0  0  -0.066613  0  3.999383  0  0  -0.072832  0  4.02695  0  0  -0.02941  -0.062495  0  3.98058  0
C  C79  1  0.59003819  0.69583871  0.75955075  1  0  -0.106429  0  3.763649  0  0  -0.066699  0  3.999531  0  0  -0.072907  0  4.027063  0  0  -0.029457  -0.062582  0  3.980726  0
C  C80  1  0.37798946  0.31875627  0.13637931  1  0  -0.078689  0  3.751291  0  0  -0.098616  0  3.994286  0  0  -0.100216  0  4.017509  0  0  -0.087781  -0.097462  0  3.978562  0
C  C81  1  0.62200937  0.68124369  0.86361967  1  0  -0.078675  0  3.75133  0  0  -0.098595  0  3.994318  0  0  -0.100188  0  4.017549  0  0  -0.087788  -0.097441  0  3.978592  0
C  C82  1  0.45132458  0.29321295  0.06044517  1  0  -0.063218  0  3.745352  0  0  -0.073238  0  3.986563  0  0  -0.076494  0  4.009443  0  0  -0.086478  -0.071042  0  3.971089  0
C  C83  1  0.54867518  0.70678700  0.93955398  1  0  -0.063169  0  3.745345  0  0  -0.073207  0  3.986556  0  0  -0.076465  0  4.009438  0  0  -0.086458  -0.071005  0  3.971077  0
C  C84  1  0.55693400  0.25389250  0.08833342  1  0  -0.054843  0  3.748307  0  0  -0.06839  0  3.990766  0  0  -0.068899  0  4.011508  0  0  -0.084575  -0.067937  0  3.976686  0
C  C85  1  0.44306483  0.74610746  0.91166633  1  0  -0.054917  0  3.748342  0  0  -0.068469  0  3.990814  0  0  -0.068978  0  4.011556  0  0  -0.084614  -0.068016  0  3.976732  0
C  C86  1  0.58720347  0.23612518  0.19043718  1  0  -0.07887  0  3.772227  0  0  -0.087744  0  4.013325  0  0  -0.090347  0  4.034538  0  0  -0.091532  -0.085991  0  3.99877  0
C  C87  1  0.41279628  0.76387477  0.80956196  1  0  -0.078805  0  3.772277  0  0  -0.087684  0  4.013366  0  0  -0.090284  0  4.034583  0  0  -0.091485  -0.085932  0  3.998808  0
C  C88  1  0.51356715  0.26063775  0.26598252  1  0  -0.072506  0  3.751731  0  0  -0.089779  0  3.986939  0  0  -0.09112  0  4.010484  0  0  -0.087235  -0.08856  0  3.970703  0
C  C89  1  0.48643208  0.73936320  0.73401765  1  0  -0.072411  0  3.751719  0  0  -0.08967  0  3.986914  0  0  -0.09101  0  4.010462  0  0  -0.087191  -0.088451  0  3.970676  0
C  C90  1  0.22059904  0.18723138  0.32898492  1  0  -0.110497  0  3.769215  0  0  -0.07361  0  4.014088  0  0  -0.078896  0  4.039444  0  0  -0.029957  -0.07  0  3.997014  0
C  C91  1  0.77939939  0.81276759  0.67101363  1  0  -0.110538  0  3.769227  0  0  -0.073615  0  4.014045  0  0  -0.078901  0  4.039403  0  0  -0.029969  -0.070005  0  3.996973  0
C  C92  1  0.10358749  0.10352130  0.22587213  1  0  -0.087514  0  3.755735  0  0  -0.107432  0  4.001833  0  0  -0.107966  0  4.021776  0  0  -0.090078  -0.107155  0  3.988497  0
C  C93  1  0.89641174  0.89647965  0.77412726  1  0  -0.087427  0  3.755713  0  0  -0.107348  0  4.001785  0  0  -0.107881  0  4.021722  0  0  -0.09003  -0.107073  0  3.988449  0
C  C94  1  0.02273309  0.98116308  0.21022527  1  0  -0.07413  0  3.777152  0  0  -0.085488  0  4.024296  0  0  -0.088023  0  4.045093  0  0  -0.090853  -0.083671  0  4.010021  0
C  C95  1  0.97726707  0.01883786  0.78977352  1  0  -0.074155  0  3.777238  0  0  -0.085527  0  4.024396  0  0  -0.088042  0  4.045192  0  0  -0.090865  -0.083711  0  4.01012  0
C  C96  1  0.05511211  0.94241304  0.29862569  1  0  -0.067599  0  3.755248  0  0  -0.078888  0  3.996459  0  0  -0.079559  0  4.017088  0  0  -0.088772  -0.078361  0  3.982497  0
C  C97  1  0.94488725  0.05758593  0.70137303  1  0  -0.06758  0  3.755271  0  0  -0.078863  0  3.996479  0  0  -0.079532  0  4.017101  0  0  -0.088768  -0.078336  0  3.982516  0
C  C98  1  0.17066551  0.02523336  0.40113453  1  0  -0.066443  0  3.75579  0  0  -0.076059  0  3.995706  0  0  -0.078359  0  4.017483  0  0  -0.090195  -0.074485  0  3.980787  0
C  C99  1  0.82933345  0.97476462  0.59886377  1  0  -0.06643  0  3.755734  0  0  -0.076035  0  3.995649  0  0  -0.078339  0  4.017431  0  0  -0.090181  -0.07446  0  3.980727  0
C  C100  1  0.25439142  0.14648133  0.41601432  1  0  -0.084772  0  3.74324  0  0  -0.103095  0  3.982065  0  0  -0.104358  0  4.004021  0  0  -0.087985  -0.102171  0  3.966776  0
C  C101  1  0.74560701  0.85351764  0.58398501  1  0  -0.084808  0  3.743315  0  0  -0.103154  0  3.982135  0  0  -0.104414  0  4.004092  0  0  -0.088005  -0.102231  0  3.966848  0
C  C102  1  0.96036626  0.62462900  0.33614531  1  0  -0.10343  0  3.760071  0  0  -0.064067  0  3.993094  0  0  -0.069616  0  4.019603  0  0  -0.032049  -0.060192  0  3.974847  0
C  C103  1  0.03963270  0.37536898  0.66385532  1  0  -0.103466  0  3.759964  0  0  -0.064102  0  3.992998  0  0  -0.069652  0  4.019505  0  0  -0.032077  -0.060235  0  3.974767  0
C  C104  1  0.95058988  0.59039902  0.21690909  1  0  -0.092993  0  3.773086  0  0  -0.110065  0  4.012637  0  0  -0.111848  0  4.035575  0  0  -0.092437  -0.108785  0  3.99717  0
C  C105  1  0.04940907  0.40959896  0.78309153  1  0  -0.0931  0  3.772932  0  0  -0.110192  0  4.0125  0  0  -0.111977  0  4.03544  0  0  -0.092489  -0.10891  0  3.997033  0
C  C106  1  0.83664280  0.57917259  0.13488464  1  0  -0.077132  0  3.765713  0  0  -0.086272  0  4.010571  0  0  -0.089798  0  4.03217  0  0  -0.096344  -0.083869  0  3.995954  0
C  C107  1  0.16335788  0.42082736  0.86511777  1  0  -0.077113  0  3.765476  0  0  -0.086239  0  4.010308  0  0  -0.089761  0  4.031912  0  0  -0.096348  -0.083837  0  3.99569  0
C  C108  1  0.73182901  0.60269255  0.17196685  1  0  -0.051774  0  3.740288  0  0  -0.066683  0  3.985663  0  0  -0.0674  0  4.006677  0  0  -0.084981  -0.066126  0  3.971653  0
C  C109  1  0.26817075  0.39730740  0.82803384  1  0  -0.051821  0  3.740119  0  0  -0.066673  0  3.985472  0  0  -0.067389  0  4.006484  0  0  -0.08498  -0.066115  0  3.971461  0
C  C110  1  0.74168306  0.63966452  0.29097260  1  0  -0.072513  0  3.755713  0  0  -0.083358  0  4.002599  0  0  -0.086576  0  4.024867  0  0  -0.092238  -0.081148  0  3.987385  0
C  C111  1  0.25831935  0.36033741  0.70903004  1  0  -0.07255  0  3.755681  0  0  -0.083391  0  4.002558  0  0  -0.086609  0  4.024826  0  0  -0.092253  -0.08118  0  3.987343  0
C  C112  1  0.85526811  0.65005958  0.37282668  1  0  -0.080124  0  3.755946  0  0  -0.097254  0  3.992504  0  0  -0.098286  0  4.015277  0  0  -0.091061  -0.096234  0  3.976636  0
C  C113  1  0.14473032  0.34993939  0.62717343  1  0  -0.080036  0  3.755821  0  0  -0.097165  0  3.992401  0  0  -0.098196  0  4.015173  0  0  -0.09105  -0.096157  0  3.97653  0
C  C114  1  0.21590442  0.80198101  0.53496187  1  0  -0.10449  0  3.766769  0  0  -0.064832  0  4.001625  0  0  -0.071034  0  4.028357  0  0  -0.027952  -0.060782  0  3.983724  0
C  C115  1  0.78409494  0.19801796  0.46503763  1  0  -0.104494  0  3.766751  0  0  -0.064848  0  4.001628  0  0  -0.07105  0  4.028359  0  0  -0.027955  -0.060799  0  3.983735  0
C  C116  1  0.17327470  0.88356815  0.61771498  1  0  -0.072372  0  3.74539  0  0  -0.091562  0  3.983688  0  0  -0.091818  0  4.005145  0  0  -0.084544  -0.091014  0  3.968701  0
C  C117  1  0.82672280  0.11643082  0.38228418  1  0  -0.072415  0  3.745421  0  0  -0.091609  0  3.983723  0  0  -0.091864  0  4.005181  0  0  -0.084547  -0.091066  0  3.96874  0
C  C118  1  0.25840151  0.01548871  0.69499468  1  0  -0.075924  0  3.771046  0  0  -0.086123  0  4.014132  0  0  -0.088977  0  4.035616  0  0  -0.090589  -0.084326  0  3.999485  0
C  C119  1  0.74159824  0.98451124  0.30500679  1  0  -0.075839  0  3.771069  0  0  -0.086017  0  4.01415  0  0  -0.088871  0  4.035635  0  0  -0.090554  -0.08422  0  3.999507  0
C  C120  1  0.38612579  0.06730366  0.69064338  1  0  -0.062901  0  3.744006  0  0  -0.075013  0  3.98624  0  0  -0.075614  0  4.005536  0  0  -0.088892  -0.074318  0  3.973501  0
C  C121  1  0.61387211  0.93269630  0.30935543  1  0  -0.062972  0  3.744088  0  0  -0.075079  0  3.986301  0  0  -0.075681  0  4.005599  0  0  -0.0889  -0.074379  0  3.973569  0
C  C122  1  0.42882087  0.98652598  0.60852563  1  0  -0.069761  0  3.757613  0  0  -0.07978  0  3.999377  0  0  -0.08265  0  4.021384  0  0  -0.090871  -0.077989  0  3.984277  0
C  C123  1  0.57117796  0.01347398  0.39147412  1  0  -0.069793  0  3.757668  0  0  -0.079799  0  3.999425  0  0  -0.082668  0  4.021432  0  0  -0.090875  -0.078007  0  3.984326  0
C  C124  1  0.34416193  0.85422729  0.53046121  1  0  -0.097791  0  3.774329  0  0  -0.115215  0  4.016963  0  0  -0.116338  0  4.037811  0  0  -0.090992  -0.114509  0  4.003015  0
C  C125  1  0.65583650  0.14577168  0.46953812  1  0  -0.097778  0  3.774356  0  0  -0.115195  0  4.016987  0  0  -0.116319  0  4.037836  0  0  -0.091013  -0.114488  0  4.00304  0
N  N126  1  0.36137408  0.60861926  0.19840562  1  0  0.681707  0  4.14749  0  0  0.7266  0  4.422304  0  0  0.755024  0  4.428508  0  0  0.091324  0.707435  0  4.417491  0
N  N127  1  0.63862806  0.39137970  0.80159516  1  0  0.681684  0  4.147244  0  0  0.726594  0  4.422062  0  0  0.755016  0  4.42826  0  0  0.09129  0.70743  0  4.417242  0
N  N128  1  0.80769579  0.16212942  0.97875407  1  0  -0.10349  0  3.520722  0  0  0.001602  0  3.752855  0  0  -0.019086  0  3.778259  0  0  -0.289546  0.015532  0  3.735058  0
N  N129  1  0.19230396  0.83787054  0.02124585  1  0  -0.103484  0  3.520603  0  0  0.001616  0  3.75273  0  0  -0.019073  0  3.778133  0  0  -0.289548  0.015546  0  3.734932  0
O  O130  1  0.23387175  0.54070770  0.16204319  1  0  -0.481379  0  1.804229  0  0  -0.460192  0  2.037078  0  0  -0.477496  0  2.026614  0  0  -0.217553  -0.447816  0  2.0439  0
O  O131  1  0.76613119  0.45929323  0.83795765  1  0  -0.481346  0  1.804024  0  0  -0.460161  0  2.03688  0  0  -0.477469  0  2.026419  0  0  -0.217503  -0.447787  0  2.043698  0
O  O132  1  0.43307193  0.65320606  0.30721237  1  0  -0.481292  0  1.766127  0  0  -0.469347  0  1.9856  0  0  -0.484709  0  1.978415  0  0  -0.200148  -0.458364  0  1.990078  0
O  O133  1  0.56692941  0.34679091  0.69278757  1  0  -0.481277  0  1.766097  0  0  -0.469333  0  1.985548  0  0  -0.484691  0  1.978362  0  0  -0.200126  -0.458364  0  1.990055  0
O  O134  1  0.41227684  0.62862174  0.12552800  1  0  -0.446299  0  1.747239  0  0  -0.440006  0  1.95144  0  0  -0.454622  0  1.947375  0  0  -0.179902  -0.429663  0  1.954019  0
O  O135  1  0.58772623  0.37137721  0.87447295  1  0  -0.446319  0  1.747212  0  0  -0.440023  0  1.951399  0  0  -0.454647  0  1.94735  0  0  -0.179936  -0.429681  0  1.953981  0
O  O136  1  0.98722253  0.29420293  0.15624907  1  0  -0.512529  0  2.076775  0  0  -0.459129  0  2.338494  0  0  -0.481492  0  2.330794  0  0  -0.318935  -0.443392  0  2.342886  0
O  O137  1  0.01277855  0.70579801  0.84375067  1  0  -0.512529  0  2.076819  0  0  -0.459133  0  2.338544  0  0  -0.481495  0  2.330841  0  0  -0.318928  -0.443392  0  2.342926  0
