# generated using pymatgen
data_CuH5C9N4O
_symmetry_space_group_name_H-M   'P 1'
_cell_length_a   7.15229186
_cell_length_b   12.51799189
_cell_length_c   15.57233184
_cell_angle_alpha   90.00124523
_cell_angle_beta   89.99962940
_cell_angle_gamma   90.97480385
_symmetry_Int_Tables_number   1
_chemical_formula_structural   CuH5C9N4O
_chemical_formula_sum   'Cu4 H20 C36 N16 O4'
_cell_volume   1394.02539297
_cell_formula_units_Z   4
loop_
 _symmetry_equiv_pos_site_id
 _symmetry_equiv_pos_as_xyz
  1  'x, y, z'
loop_
 _atom_site_type_symbol
 _atom_site_label
 _atom_site_symmetry_multiplicity
 _atom_site_fract_x
 _atom_site_fract_y
 _atom_site_fract_z
 _atom_site_occupancy
 _atom_site_hle17_bader_spin_density
 _atom_site_hle17_ddec_charge
 _atom_site_hle17_ddec_spin_density
 _atom_site_hle17_ddec_sum_bond_order
 _atom_site_hle17_magmom
 _atom_site_hse06_10hf_bader_spin_density
 _atom_site_hse06_10hf_ddec_charge
 _atom_site_hse06_10hf_ddec_spin_density
 _atom_site_hse06_10hf_ddec_sum_bond_order
 _atom_site_hse06_10hf_magmom
 _atom_site_hse06_bader_spin_density
 _atom_site_hse06_ddec_charge
 _atom_site_hse06_ddec_spin_density
 _atom_site_hse06_ddec_sum_bond_order
 _atom_site_hse06_magmom
 _atom_site_pbe_bader_spin_density
 _atom_site_pbe_cm5_charge
 _atom_site_pbe_ddec_charge
 _atom_site_pbe_ddec_spin_density
 _atom_site_pbe_ddec_sum_bond_order
 _atom_site_pbe_magmom
Cu  Cu0  1  0.73630826  0.35369795  0.87740878  1  0  0.676245  0  2.268184  0  0  0.585711  0  2.829667  0  0  0.564806  0  2.78762  0  0  0.680113  0.60439  0  2.853707  0
Cu  Cu1  1  0.26369894  0.14629827  0.37741128  1  0  0.6762  0  2.268613  0  0  0.585679  0  2.830116  0  0  0.564753  0  2.788086  0  0  0.680207  0.604354  0  2.854072  0
Cu  Cu2  1  0.26369946  0.64630298  0.12258231  1  0  0.676275  0  2.268802  0  0  0.585761  0  2.830318  0  0  0.564838  0  2.788281  0  0  0.680296  0.604474  0  2.854603  0
Cu  Cu3  1  0.73629940  0.85369083  0.62258687  1  0  0.676309  0  2.268605  0  0  0.585798  0  2.830111  0  0  0.564891  0  2.788083  0  0  0.680262  0.604504  0  2.854328  0
H  H4  1  0.91566389  0.40939228  0.58412087  1  0  0.130042  0  0.906511  0  0  0.147416  0  0.956742  0  0  0.150005  0  0.955536  0  0  0.115902  0.145506  0  0.95781  0
H  H5  1  0.08435883  0.09060392  0.08411973  1  0  0.130091  0  0.906659  0  0  0.147444  0  0.956902  0  0  0.150036  0  0.955697  0  0  0.115947  0.145537  0  0.957977  0
H  H6  1  0.08434788  0.59060698  0.41587857  1  0  0.130123  0  0.906599  0  0  0.147421  0  0.956898  0  0  0.150012  0  0.955699  0  0  0.115946  0.14552  0  0.95797  0
H  H7  1  0.91564782  0.90940103  0.91586622  1  0  0.130141  0  0.906418  0  0  0.147398  0  0.956768  0  0  0.149991  0  0.955567  0  0  0.115904  0.145488  0  0.957842  0
H  H8  1  0.80717688  0.43702849  0.48406497  1  0  0.131352  0  0.906248  0  0  0.147456  0  0.96138  0  0  0.149842  0  0.959781  0  0  0.117054  0.145806  0  0.962612  0
H  H9  1  0.19283483  0.06297367  0.98407124  1  0  0.131407  0  0.906396  0  0  0.147531  0  0.961474  0  0  0.149922  0  0.959875  0  0  0.117074  0.145874  0  0.962718  0
H  H10  1  0.19280936  0.56298322  0.51593703  1  0  0.131333  0  0.90642  0  0  0.147497  0  0.961437  0  0  0.149888  0  0.959844  0  0  0.117067  0.145849  0  0.962678  0
H  H11  1  0.80718028  0.93703193  0.01593269  1  0  0.13136  0  0.906373  0  0  0.147472  0  0.961458  0  0  0.149863  0  0.959862  0  0  0.117059  0.145812  0  0.962716  0
H  H12  1  0.74022327  0.60253099  0.60286121  1  0  0.141568  0  0.940264  0  0  0.15834  0  1.005819  0  0  0.159503  0  1.006511  0  0  0.102057  0.157549  0  1.005265  0
H  H13  1  0.25978621  0.89746930  0.10286751  1  0  0.141432  0  0.940259  0  0  0.158196  0  1.005872  0  0  0.159359  0  1.006563  0  0  0.101962  0.15741  0  1.005316  0
H  H14  1  0.25975651  0.39747043  0.39713502  1  0  0.141551  0  0.940195  0  0  0.158315  0  1.005766  0  0  0.159478  0  1.006453  0  0  0.102022  0.157526  0  1.005206  0
H  H15  1  0.74020986  0.10252623  0.89713450  1  0  0.141459  0  0.940249  0  0  0.158225  0  1.005848  0  0  0.159386  0  1.006543  0  0  0.10197  0.157439  0  1.005286  0
H  H16  1  0.74541400  0.52193713  0.69647332  1  0  0.14887  0  0.929691  0  0  0.17008  0  0.985153  0  0  0.17097  0  0.986434  0  0  0.107563  0.169413  0  0.984293  0
H  H17  1  0.25461332  0.97805893  0.19646693  1  0  0.148775  0  0.929971  0  0  0.170011  0  0.9854  0  0  0.170898  0  0.986685  0  0  0.107545  0.169344  0  0.984538  0
H  H18  1  0.25457343  0.47807216  0.30353447  1  0  0.148943  0  0.929722  0  0  0.170089  0  0.985218  0  0  0.170976  0  0.9865  0  0  0.10757  0.169426  0  0.984362  0
H  H19  1  0.74538109  0.02193344  0.80354022  1  0  0.148948  0  0.929776  0  0  0.170088  0  0.985293  0  0  0.170975  0  0.98658  0  0  0.107598  0.169423  0  0.984431  0
H  H20  1  0.52990447  0.58013939  0.66321004  1  0  0.146278  0  0.922057  0  0  0.166832  0  0.974077  0  0  0.169046  0  0.97359  0  0  0.105309  0.165205  0  0.974517  0
H  H21  1  0.47009574  0.91986107  0.16321094  1  0  0.14614  0  0.922097  0  0  0.166716  0  0.974112  0  0  0.16894  0  0.973613  0  0  0.10529  0.165093  0  0.974552  0
H  H22  1  0.47007025  0.41985173  0.33678619  1  0  0.146287  0  0.922046  0  0  0.166844  0  0.974052  0  0  0.169042  0  0.973586  0  0  0.105298  0.165222  0  0.974489  0
H  H23  1  0.52989423  0.08014497  0.83679492  1  0  0.146197  0  0.922169  0  0  0.166756  0  0.97418  0  0  0.168982  0  0.973681  0  0  0.105266  0.16513  0  0.97462  0
C  C24  1  0.75776612  0.21087249  0.61437687  1  0  -0.28621  0  3.924356  0  0  -0.273196  0  4.178755  0  0  -0.287596  0  4.198306  0  0  -0.070017  -0.262898  0  4.164876  0
C  C25  1  0.24224233  0.28912556  0.11439031  1  0  -0.28598  0  3.92401  0  0  -0.273135  0  4.17864  0  0  -0.287517  0  4.198164  0  0  -0.069899  -0.262825  0  4.164765  0
C  C26  1  0.24222883  0.78912627  0.38560779  1  0  -0.285807  0  3.924234  0  0  -0.272828  0  4.178668  0  0  -0.287202  0  4.198179  0  0  -0.069891  -0.262536  0  4.164802  0
C  C27  1  0.75777018  0.71088249  0.88560849  1  0  -0.286087  0  3.924215  0  0  -0.27298  0  4.17848  0  0  -0.287351  0  4.197995  0  0  -0.069915  -0.262675  0  4.164611  0
C  C28  1  0.76566251  0.27388464  0.53018322  1  0  0.123755  0  3.800206  0  0  0.134237  0  4.028321  0  0  0.139016  0  4.034766  0  0  0.057544  0.130896  0  4.024299  0
C  C29  1  0.23437016  0.22613715  0.03018401  1  0  0.123348  0  3.800708  0  0  0.133865  0  4.028878  0  0  0.138638  0  4.035332  0  0  0.057275  0.130534  0  4.024874  0
C  C30  1  0.23434209  0.72612914  0.46980723  1  0  0.123237  0  3.800829  0  0  0.13372  0  4.028969  0  0  0.138508  0  4.03539  0  0  0.057376  0.130379  0  4.025028  0
C  C31  1  0.76566650  0.77387527  0.96981158  1  0  0.123535  0  3.800605  0  0  0.133979  0  4.028728  0  0  0.138751  0  4.035185  0  0  0.057409  0.130621  0  4.024803  0
C  C32  1  0.75400459  0.26235011  0.69288388  1  0  0.313944  0  3.929448  0  0  0.300319  0  4.194109  0  0  0.311144  0  4.215729  0  0  0.166344  0.293056  0  4.179395  0
C  C33  1  0.24599421  0.23763019  0.19290410  1  0  0.314026  0  3.929768  0  0  0.300447  0  4.194459  0  0  0.311265  0  4.216064  0  0  0.166483  0.293179  0  4.179747  0
C  C34  1  0.24599899  0.73763490  0.30709758  1  0  0.314111  0  3.929678  0  0  0.300499  0  4.194324  0  0  0.311309  0  4.215938  0  0  0.166554  0.293258  0  4.179653  0
C  C35  1  0.75399687  0.76235584  0.80710433  1  0  0.313841  0  3.929547  0  0  0.3002  0  4.19415  0  0  0.311011  0  4.215775  0  0  0.166259  0.292947  0  4.179451  0
C  C36  1  0.74850411  0.10010913  0.61288930  1  0  0.32188  0  3.902757  0  0  0.308572  0  4.163492  0  0  0.318684  0  4.184655  0  0  0.171604  0.301847  0  4.149079  0
C  C37  1  0.25147090  0.39989027  0.11288796  1  0  0.321894  0  3.902799  0  0  0.308642  0  4.163582  0  0  0.318752  0  4.184744  0  0  0.17168  0.301918  0  4.149188  0
C  C38  1  0.25150201  0.89988943  0.38710564  1  0  0.321632  0  3.90307  0  0  0.308327  0  4.163832  0  0  0.31843  0  4.184989  0  0  0.171553  0.30159  0  4.149387  0
C  C39  1  0.74853096  0.60010756  0.88710441  1  0  0.322062  0  3.902975  0  0  0.308727  0  4.163672  0  0  0.318831  0  4.184822  0  0  0.171741  0.301998  0  4.149252  0
C  C40  1  0.59953909  0.24664568  0.47731832  1  0  0.294151  0  3.582486  0  0  0.275512  0  3.854235  0  0  0.284925  0  3.866647  0  0  0.207405  0.268764  0  3.846817  0
C  C41  1  0.40047676  0.25335462  0.97732730  1  0  0.294281  0  3.582959  0  0  0.275628  0  3.854672  0  0  0.28504  0  3.867085  0  0  0.207518  0.268883  0  3.847273  0
C  C42  1  0.40047155  0.75335679  0.52267662  1  0  0.294276  0  3.582505  0  0  0.275634  0  3.854239  0  0  0.285039  0  3.866654  0  0  0.207546  0.268896  0  3.846891  0
C  C43  1  0.59953062  0.74664231  0.02267406  1  0  0.29418  0  3.582621  0  0  0.27554  0  3.85437  0  0  0.284951  0  3.866784  0  0  0.207478  0.26881  0  3.847051  0
C  C44  1  0.92811547  0.23892912  0.47988255  1  0  0.288187  0  3.587481  0  0  0.273982  0  3.85217  0  0  0.280993  0  3.866905  0  0  0.210867  0.268924  0  3.843105  0
C  C45  1  0.07189802  0.26106010  0.97988370  1  0  0.28835  0  3.588065  0  0  0.274171  0  3.852714  0  0  0.281182  0  3.867455  0  0  0.211028  0.26911  0  3.843667  0
C  C46  1  0.07189259  0.76107581  0.52010854  1  0  0.288527  0  3.587789  0  0  0.274343  0  3.852435  0  0  0.281348  0  3.867173  0  0  0.211051  0.26929  0  3.843442  0
C  C47  1  0.92811276  0.73894397  0.02011574  1  0  0.288179  0  3.587851  0  0  0.273976  0  3.852548  0  0  0.280988  0  3.867286  0  0  0.210957  0.268933  0  3.843582  0
C  C48  1  0.78833869  0.39554037  0.54601104  1  0  -0.3007  0  3.606658  0  0  -0.351147  0  3.854163  0  0  -0.355257  0  3.859657  0  0  -0.144282  -0.348257  0  3.850647  0
C  C49  1  0.21164654  0.10445229  0.04600976  1  0  -0.30074  0  3.606072  0  0  -0.351169  0  3.853669  0  0  -0.35531  0  3.859129  0  0  -0.144371  -0.348288  0  3.850199  0
C  C50  1  0.21163777  0.60445472  0.45399289  1  0  -0.300905  0  3.606361  0  0  -0.351239  0  3.854003  0  0  -0.355435  0  3.859449  0  0  -0.144475  -0.348378  0  3.850564  0
C  C51  1  0.78835699  0.89554872  0.95398968  1  0  -0.300746  0  3.606247  0  0  -0.351019  0  3.853807  0  0  -0.355208  0  3.859245  0  0  -0.144332  -0.348135  0  3.850363  0
C  C52  1  0.61831306  0.44601499  0.58834646  1  0  0.558846  0  3.637949  0  0  0.549129  0  3.91447  0  0  0.56806  0  3.921068  0  0  0.172233  0.53595  0  3.909971  0
C  C53  1  0.38169272  0.05398002  0.08834439  1  0  0.55891  0  3.637812  0  0  0.549109  0  3.914454  0  0  0.56813  0  3.920929  0  0  0.17237  0.535886  0  3.910026  0
C  C54  1  0.38169392  0.55397716  0.41167353  1  0  0.559434  0  3.637928  0  0  0.549361  0  3.914835  0  0  0.568518  0  3.921091  0  0  0.172288  0.536152  0  3.910424  0
C  C55  1  0.61830110  0.94602196  0.91166597  1  0  0.558929  0  3.637968  0  0  0.548978  0  3.914761  0  0  0.56814  0  3.921023  0  0  0.172281  0.535768  0  3.91034  0
C  C56  1  0.65912643  0.54384655  0.64084935  1  0  -0.437444  0  3.66422  0  0  -0.516669  0  3.894569  0  0  -0.522989  0  3.903167  0  0  -0.240209  -0.511873  0  3.888465  0
C  C57  1  0.34088245  0.95615316  0.14085129  1  0  -0.437034  0  3.664308  0  0  -0.516263  0  3.894668  0  0  -0.522619  0  3.903236  0  0  -0.240133  -0.511459  0  3.888575  0
C  C58  1  0.34086660  0.45616264  0.35915587  1  0  -0.43784  0  3.664047  0  0  -0.516861  0  3.894452  0  0  -0.523237  0  3.902993  0  0  -0.240288  -0.512062  0  3.888362  0
C  C59  1  0.65909554  0.04384350  0.85915906  1  0  -0.43742  0  3.664388  0  0  -0.516486  0  3.894812  0  0  -0.522892  0  3.903335  0  0  -0.240236  -0.511689  0  3.888722  0
N  N60  1  0.75064600  0.30364658  0.76079893  1  0  -0.505002  0  3.068391  0  0  -0.470035  0  3.396415  0  0  -0.474406  0  3.395916  0  0  -0.409267  -0.467945  0  3.396077  0
N  N61  1  0.24932083  0.19634808  0.26080943  1  0  -0.504956  0  3.069402  0  0  -0.469981  0  3.397389  0  0  -0.474342  0  3.396883  0  0  -0.409352  -0.467888  0  3.397027  0
N  N62  1  0.24935826  0.69634641  0.23919087  1  0  -0.505139  0  3.06913  0  0  -0.470163  0  3.397122  0  0  -0.474528  0  3.396625  0  0  -0.409447  -0.468093  0  3.396906  0
N  N63  1  0.75065330  0.80365265  0.73918488  1  0  -0.505014  0  3.068581  0  0  -0.470059  0  3.396604  0  0  -0.474429  0  3.396117  0  0  -0.409296  -0.467984  0  3.396349  0
N  N64  1  0.74115931  0.00626857  0.61278124  1  0  -0.495233  0  3.075736  0  0  -0.459011  0  3.400422  0  0  -0.462559  0  3.399858  0  0  -0.40398  -0.457557  0  3.40018  0
N  N65  1  0.25882874  0.49373619  0.11278411  1  0  -0.495406  0  3.075903  0  0  -0.459193  0  3.400625  0  0  -0.46274  0  3.400055  0  0  -0.404168  -0.45774  0  3.400424  0
N  N66  1  0.25882852  0.99372871  0.38721434  1  0  -0.495152  0  3.076168  0  0  -0.45893  0  3.400892  0  0  -0.462471  0  3.400319  0  0  -0.404013  -0.457457  0  3.400536  0
N  N67  1  0.74116894  0.50627851  0.88721340  1  0  -0.495295  0  3.076295  0  0  -0.459068  0  3.400984  0  0  -0.462613  0  3.400412  0  0  -0.404033  -0.457601  0  3.400669  0
N  N68  1  0.48221299  0.20876920  0.43464441  1  0  -0.394864  0  3.019368  0  0  -0.363806  0  3.342181  0  0  -0.362419  0  3.33959  0  0  -0.347736  -0.366283  0  3.344156  0
N  N69  1  0.51780673  0.29123631  0.93466140  1  0  -0.394857  0  3.019231  0  0  -0.363789  0  3.342016  0  0  -0.362404  0  3.339424  0  0  -0.347795  -0.366268  0  3.344027  0
N  N70  1  0.51780903  0.79123547  0.56534154  1  0  -0.394849  0  3.0194  0  0  -0.363783  0  3.34222  0  0  -0.362399  0  3.339638  0  0  -0.347821  -0.366268  0  3.344324  0
N  N71  1  0.48219919  0.70875985  0.06534254  1  0  -0.394877  0  3.019532  0  0  -0.363811  0  3.342347  0  0  -0.362424  0  3.339757  0  0  -0.347832  -0.366304  0  3.344493  0
N  N72  1  0.05531721  0.20711807  0.44148668  1  0  -0.384448  0  3.01385  0  0  -0.351249  0  3.32706  0  0  -0.349568  0  3.326559  0  0  -0.340169  -0.35383  0  3.327502  0
N  N73  1  0.94470874  0.29287952  0.94148439  1  0  -0.384597  0  3.014089  0  0  -0.351398  0  3.327289  0  0  -0.349723  0  3.326791  0  0  -0.340234  -0.353979  0  3.327766  0
N  N74  1  0.94469530  0.79288998  0.55850826  1  0  -0.384717  0  3.013932  0  0  -0.351533  0  3.327131  0  0  -0.349857  0  3.326641  0  0  -0.340307  -0.354124  0  3.327701  0
N  N75  1  0.05531741  0.70712429  0.05850927  1  0  -0.384443  0  3.013825  0  0  -0.351246  0  3.327032  0  0  -0.349565  0  3.326535  0  0  -0.340225  -0.353843  0  3.327639  0
O  O76  1  0.46076425  0.40899637  0.57578885  1  0  -0.471219  0  1.875831  0  0  -0.432505  0  2.062473  0  0  -0.452226  0  2.062264  0  0  -0.25841  -0.418699  0  2.062492  0
O  O77  1  0.53924680  0.09099261  0.07578951  1  0  -0.471346  0  1.875972  0  0  -0.432572  0  2.062629  0  0  -0.452334  0  2.062389  0  0  -0.258459  -0.418751  0  2.062672  0
O  O78  1  0.53923458  0.59094873  0.42425233  1  0  -0.471301  0  1.876493  0  0  -0.432432  0  2.0633  0  0  -0.452224  0  2.062957  0  0  -0.258233  -0.418606  0  2.063345  0
O  O79  1  0.46074509  0.90901979  0.92422791  1  0  -0.471214  0  1.876098  0  0  -0.432414  0  2.062867  0  0  -0.45221  0  2.062524  0  0  -0.258302  -0.418589  0  2.062905  0
