# generated using pymatgen
data_HgH7C7(IN)2
_symmetry_space_group_name_H-M   'P 1'
_cell_length_a   8.03184918
_cell_length_b   11.72997841
_cell_length_c   13.07551067
_cell_angle_alpha   105.91149281
_cell_angle_beta   89.99711991
_cell_angle_gamma   109.99368395
_symmetry_Int_Tables_number   1
_chemical_formula_structural   HgH7C7(IN)2
_chemical_formula_sum   'Hg4 H28 C28 I8 N8'
_cell_volume   1107.29109217
_cell_formula_units_Z   4
loop_
 _symmetry_equiv_pos_site_id
 _symmetry_equiv_pos_as_xyz
  1  'x, y, z'
loop_
 _atom_site_type_symbol
 _atom_site_label
 _atom_site_symmetry_multiplicity
 _atom_site_fract_x
 _atom_site_fract_y
 _atom_site_fract_z
 _atom_site_occupancy
 _atom_site_hle17_bader_spin_density
 _atom_site_hle17_ddec_charge
 _atom_site_hle17_ddec_spin_density
 _atom_site_hle17_ddec_sum_bond_order
 _atom_site_hle17_magmom
 _atom_site_hse06_10hf_bader_spin_density
 _atom_site_hse06_10hf_ddec_charge
 _atom_site_hse06_10hf_ddec_spin_density
 _atom_site_hse06_10hf_ddec_sum_bond_order
 _atom_site_hse06_10hf_magmom
 _atom_site_hse06_bader_spin_density
 _atom_site_hse06_ddec_charge
 _atom_site_hse06_ddec_spin_density
 _atom_site_hse06_ddec_sum_bond_order
 _atom_site_hse06_magmom
 _atom_site_pbe_bader_spin_density
 _atom_site_pbe_cm5_charge
 _atom_site_pbe_ddec_charge
 _atom_site_pbe_ddec_spin_density
 _atom_site_pbe_ddec_sum_bond_order
 _atom_site_pbe_magmom
Hg  Hg0  1  0.88007785  0.84601087  0.56919635  1  0  0.526832  0  2.187238  0  0  0.399374  0  2.673755  0  0  0.445559  0  2.648688  0  0  0.383252  0.369666  0  2.688468  0
Hg  Hg1  1  0.03308270  0.15342650  0.93054937  1  0  0.526368  0  2.187073  0  0  0.39993  0  2.672602  0  0  0.446009  0  2.647775  0  0  0.3829  0.36898  0  2.689033  0
Hg  Hg2  1  0.11991405  0.15398941  0.43080176  1  0  0.526793  0  2.187224  0  0  0.399355  0  2.673731  0  0  0.445542  0  2.648664  0  0  0.383263  0.369647  0  2.688439  0
Hg  Hg3  1  0.96691464  0.84657470  0.06945432  1  0  0.526374  0  2.186952  0  0  0.399909  0  2.672481  0  0  0.445986  0  2.647665  0  0  0.382901  0.368959  0  2.688908  0
H  H4  1  0.22017491  0.66938723  0.82395526  1  0  0.103608  0  0.980702  0  0  0.11239  0  1.046108  0  0  0.115067  0  1.045923  0  0  0.09925  0.110279  0  1.046922  0
H  H5  1  0.55059874  0.33051365  0.67632568  1  0  0.103398  0  0.981908  0  0  0.112454  0  1.047115  0  0  0.115228  0  1.046709  0  0  0.099829  0.110477  0  1.047535  0
H  H6  1  0.77982492  0.33061399  0.17604538  1  0  0.103669  0  0.98073  0  0  0.11244  0  1.046124  0  0  0.115116  0  1.045944  0  0  0.099281  0.110329  0  1.046939  0
H  H7  1  0.44939729  0.66947998  0.32367459  1  0  0.103385  0  0.981916  0  0  0.112426  0  1.047171  0  0  0.115208  0  1.046758  0  0  0.099847  0.110438  0  1.047604  0
H  H8  1  0.05155145  0.43725119  0.74274359  1  0  0.094353  0  0.960859  0  0  0.100164  0  1.029028  0  0  0.103349  0  1.026973  0  0  0.096383  0.097917  0  1.030315  0
H  H9  1  0.61374760  0.56262826  0.75789036  1  0  0.093895  0  0.960498  0  0  0.099994  0  1.028281  0  0  0.103175  0  1.026211  0  0  0.095975  0.097649  0  1.029821  0
H  H10  1  0.94845060  0.56275197  0.25725065  1  0  0.094294  0  0.960786  0  0  0.100132  0  1.028954  0  0  0.103312  0  1.026885  0  0  0.096361  0.097886  0  1.030242  0
H  H11  1  0.38626202  0.43737011  0.24210880  1  0  0.093905  0  0.960495  0  0  0.100066  0  1.028207  0  0  0.103227  0  1.02615  0  0  0.095995  0.097721  0  1.029747  0
H  H12  1  0.81950668  0.36827103  0.58801739  1  0  0.097046  0  0.981599  0  0  0.100939  0  1.055345  0  0  0.104957  0  1.052956  0  0  0.088133  0.09854  0  1.056433  0
H  H13  1  0.45026809  0.63129140  0.91247368  1  0  0.097718  0  0.980705  0  0  0.101858  0  1.05379  0  0  0.10584  0  1.051444  0  0  0.088347  0.098779  0  1.056124  0
H  H14  1  0.18049536  0.63173211  0.41197990  1  0  0.097085  0  0.981611  0  0  0.100999  0  1.055325  0  0  0.105018  0  1.05294  0  0  0.088137  0.098598  0  1.056417  0
H  H15  1  0.54974074  0.36870789  0.08753030  1  0  0.097692  0  0.980723  0  0  0.101853  0  1.053779  0  0  0.105829  0  1.051451  0  0  0.088352  0.098776  0  1.056111  0
H  H16  1  0.75857533  0.53486897  0.52498469  1  0  0.069041  0  0.955798  0  0  0.073675  0  1.027828  0  0  0.076687  0  1.025077  0  0  0.099603  0.07152  0  1.029966  0
H  H17  1  0.22271587  0.46457469  0.97521994  1  0  0.069769  0  0.955345  0  0  0.073908  0  1.027504  0  0  0.07691  0  1.024773  0  0  0.099701  0.07141  0  1.029963  0
H  H18  1  0.24142471  0.46513514  0.47501056  1  0  0.068995  0  0.955868  0  0  0.073651  0  1.027869  0  0  0.076647  0  1.02513  0  0  0.0996  0.0715  0  1.030003  0
H  H19  1  0.77728954  0.53542273  0.02478051  1  0  0.069822  0  0.95537  0  0  0.073953  0  1.027523  0  0  0.076956  0  1.024792  0  0  0.099711  0.071457  0  1.029979  0
H  H20  1  0.38084982  0.01189385  0.87676480  1  0  0.127221  0  0.971351  0  0  0.142197  0  1.038083  0  0  0.144784  0  1.037517  0  0  0.08491  0.140368  0  1.03846  0
H  H21  1  0.36895583  0.98789940  0.62318046  1  0  0.127284  0  0.970767  0  0  0.142321  0  1.037234  0  0  0.144892  0  1.036685  0  0  0.085032  0.140388  0  1.037785  0
H  H22  1  0.61914754  0.98810741  0.12323049  1  0  0.127247  0  0.971296  0  0  0.142193  0  1.038068  0  0  0.144781  0  1.037503  0  0  0.084897  0.140365  0  1.038444  0
H  H23  1  0.63103225  0.01209326  0.37682186  1  0  0.127292  0  0.970786  0  0  0.142324  0  1.037256  0  0  0.144894  0  1.036709  0  0  0.085015  0.14039  0  1.03781  0
H  H24  1  0.43213529  0.87472250  0.81373630  1  0  0.127565  0  0.96928  0  0  0.147664  0  1.033737  0  0  0.150497  0  1.032  0  0  0.080859  0.145642  0  1.034968  0
H  H25  1  0.55700728  0.12519732  0.68635338  1  0  0.127286  0  0.970118  0  0  0.147409  0  1.034409  0  0  0.150254  0  1.032673  0  0  0.080612  0.145154  0  1.035957  0
H  H26  1  0.56786362  0.12527685  0.18625852  1  0  0.127653  0  0.969249  0  0  0.147738  0  1.033724  0  0  0.15057  0  1.031986  0  0  0.080875  0.145708  0  1.03496  0
H  H27  1  0.44298874  0.87479627  0.31365147  1  0  0.127253  0  0.970201  0  0  0.147413  0  1.034447  0  0  0.150258  0  1.032713  0  0  0.080639  0.145155  0  1.035999  0
H  H28  1  0.28678831  0.87091398  0.91539800  1  0  0.113176  0  0.994935  0  0  0.130578  0  1.066574  0  0  0.132374  0  1.066298  0  0  0.07728  0.129246  0  1.066688  0
H  H29  1  0.41551227  0.12901043  0.58466324  1  0  0.113724  0  0.994206  0  0  0.130755  0  1.065934  0  0  0.132533  0  1.065674  0  0  0.077296  0.129305  0  1.066291  0
H  H30  1  0.71320858  0.12908632  0.08459706  1  0  0.113124  0  0.99497  0  0  0.130559  0  1.066573  0  0  0.132357  0  1.066295  0  0  0.077265  0.129224  0  1.066687  0
H  H31  1  0.58448145  0.87098602  0.41533927  1  0  0.11365  0  0.994222  0  0  0.130675  0  1.065965  0  0  0.13245  0  1.065709  0  0  0.077271  0.129225  0  1.066321  0
C  C32  1  0.07976811  0.72381849  0.71551457  1  0  0.155033  0  3.758131  0  0  0.151733  0  4.003606  0  0  0.156129  0  4.023542  0  0  0.112709  0.148687  0  3.990026  0
C  C33  1  0.35502619  0.27581188  0.78441879  1  0  0.151829  0  3.759853  0  0  0.150716  0  4.002854  0  0  0.155112  0  4.022891  0  0  0.112029  0.14779  0  3.989898  0
C  C34  1  0.92023748  0.27618178  0.28448507  1  0  0.155253  0  3.757841  0  0  0.15183  0  4.003451  0  0  0.156226  0  4.023387  0  0  0.112764  0.148786  0  3.989868  0
C  C35  1  0.64497222  0.72418648  0.21558266  1  0  0.151596  0  3.760173  0  0  0.150581  0  4.003052  0  0  0.154946  0  4.02313  0  0  0.111929  0.147669  0  3.990069  0
C  C36  1  0.11885030  0.63646440  0.75682681  1  0  -0.126833  0  3.691638  0  0  -0.144342  0  3.932047  0  0  -0.150439  0  3.954242  0  0  -0.080012  -0.140493  0  3.917297  0
C  C37  1  0.48174489  0.36322026  0.74330561  1  0  -0.125795  0  3.691354  0  0  -0.144074  0  3.930842  0  0  -0.150168  0  3.953011  0  0  -0.080192  -0.140407  0  3.916301  0
C  C38  1  0.88114913  0.36354350  0.24316938  1  0  -0.127  0  3.691617  0  0  -0.14448  0  3.932113  0  0  -0.15058  0  3.954308  0  0  -0.080116  -0.140631  0  3.917363  0
C  C39  1  0.51826040  0.63678191  0.25669527  1  0  -0.125632  0  3.691501  0  0  -0.143964  0  3.930964  0  0  -0.150057  0  3.953131  0  0  -0.080124  -0.140292  0  3.916428  0
C  C40  1  0.02444465  0.50723287  0.71185263  1  0  -0.005301  0  3.713381  0  0  -0.018386  0  3.954418  0  0  -0.016081  0  3.972912  0  0  -0.06979  -0.019631  0  3.941424  0
C  C41  1  0.51633915  0.49245028  0.78842389  1  0  -0.004074  0  3.710983  0  0  -0.017378  0  3.952209  0  0  -0.015091  0  3.970824  0  0  -0.069307  -0.018747  0  3.939778  0
C  C42  1  0.97555767  0.49276834  0.28814801  1  0  -0.005219  0  3.71371  0  0  -0.018346  0  3.954726  0  0  -0.016027  0  3.973242  0  0  -0.069768  -0.01959  0  3.941733  0
C  C43  1  0.48366376  0.50754713  0.21157809  1  0  -0.004044  0  3.71091  0  0  -0.017371  0  3.952117  0  0  -0.015058  0  3.970737  0  0  -0.069325  -0.018743  0  3.939694  0
C  C44  1  0.89421508  0.46843750  0.62663802  1  0  -0.108611  0  3.721551  0  0  -0.120014  0  3.966555  0  0  -0.125905  0  3.987206  0  0  -0.085409  -0.115844  0  3.951383  0
C  C45  1  0.42478051  0.53116332  0.87361965  1  0  -0.110054  0  3.721718  0  0  -0.121337  0  3.966054  0  0  -0.127293  0  3.986823  0  0  -0.086534  -0.117567  0  3.952193  0
C  C46  1  0.10578062  0.53157040  0.37335893  1  0  -0.108736  0  3.721838  0  0  -0.12011  0  3.966753  0  0  -0.126004  0  3.987403  0  0  -0.08543  -0.115939  0  3.951585  0
C  C47  1  0.57522898  0.46883978  0.12638299  1  0  -0.11007  0  3.721925  0  0  -0.12141  0  3.966328  0  0  -0.127365  0  3.987083  0  0  -0.086549  -0.117642  0  3.952469  0
C  C48  1  0.86186514  0.56096294  0.59026798  1  0  0.126002  0  3.719505  0  0  0.098264  0  3.970242  0  0  0.104399  0  3.988582  0  0  0.042911  0.094299  0  3.957168  0
C  C49  1  0.29974894  0.43856198  0.90979201  1  0  0.126541  0  3.718938  0  0  0.100041  0  3.969215  0  0  0.106158  0  3.987604  0  0  0.044092  0.096305  0  3.9565  0
C  C50  1  0.13813720  0.43903831  0.40972807  1  0  0.126087  0  3.719458  0  0  0.098337  0  3.97017  0  0  0.104488  0  3.988513  0  0  0.042914  0.094368  0  3.957096  0
C  C51  1  0.70025912  0.56143827  0.09021221  1  0  0.126437  0  3.719162  0  0  0.099957  0  3.969415  0  0  0.106082  0  3.987787  0  0  0.044106  0.096219  0  3.956705  0
C  C52  1  0.17402755  0.86210148  0.76280522  1  0  0.253751  0  3.667347  0  0  0.244465  0  3.929058  0  0  0.258609  0  3.940626  0  0  0.147906  0.23476  0  3.921165  0
C  C53  1  0.31139522  0.13755388  0.73715293  1  0  0.254117  0  3.667065  0  0  0.244711  0  3.928074  0  0  0.258807  0  3.939728  0  0  0.147802  0.234759  0  3.920636  0
C  C54  1  0.82596233  0.13789975  0.23719465  1  0  0.253646  0  3.667277  0  0  0.244445  0  3.929006  0  0  0.25859  0  3.94057  0  0  0.147875  0.234737  0  3.921114  0
C  C55  1  0.68859055  0.86244162  0.26285086  1  0  0.254178  0  3.667115  0  0  0.244724  0  3.928109  0  0  0.25884  0  3.939759  0  0  0.147778  0.234769  0  3.920662  0
C  C56  1  0.32588481  0.90842149  0.84714251  1  0  -0.384705  0  3.704724  0  0  -0.459514  0  3.929394  0  0  -0.464909  0  3.935009  0  0  -0.254372  -0.45526  0  3.925111  0
C  C57  1  0.41714071  0.09139741  0.65286049  1  0  -0.384882  0  3.703783  0  0  -0.459131  0  3.928156  0  0  -0.464556  0  3.933821  0  0  -0.254333  -0.454957  0  3.924457  0
C  C58  1  0.67411302  0.09158071  0.15285455  1  0  -0.384764  0  3.704847  0  0  -0.459541  0  3.929438  0  0  -0.464937  0  3.935048  0  0  -0.254336  -0.455278  0  3.925163  0
C  C59  1  0.58285236  0.90859525  0.34714106  1  0  -0.384772  0  3.704046  0  0  -0.459049  0  3.928493  0  0  -0.464471  0  3.934153  0  0  -0.25431  -0.454876  0  3.924798  0
I  I60  1  0.08645444  0.86135475  0.40060533  1  0  -0.312196  0  1.280235  0  0  -0.268426  0  1.648642  0  0  -0.290431  0  1.631545  0  0  -0.141244  -0.253462  0  1.65908  0
I  I61  1  0.22502020  0.13926502  0.09945333  1  0  -0.312211  0  1.278147  0  0  -0.268547  0  1.645077  0  0  -0.290548  0  1.627985  0  0  -0.141327  -0.253252  0  1.656961  0
I  I62  1  0.91355077  0.13863979  0.59939899  1  0  -0.312176  0  1.280253  0  0  -0.268412  0  1.648669  0  0  -0.290419  0  1.631583  0  0  -0.141244  -0.25345  0  1.659109  0
I  I63  1  0.77497963  0.86073619  0.90054807  1  0  -0.312213  0  1.278112  0  0  -0.268542  0  1.64503  0  0  -0.290545  0  1.627941  0  0  -0.14132  -0.25325  0  1.656917  0
I  I64  1  0.52439228  0.74629213  0.58900084  1  0  -0.351718  0  1.103785  0  0  -0.305619  0  1.426098  0  0  -0.324124  0  1.409456  0  0  -0.17424  -0.294865  0  1.438161  0
I  I65  1  0.77697079  0.25311634  0.91070336  1  0  -0.352521  0  1.105462  0  0  -0.306733  0  1.427784  0  0  -0.324901  0  1.411195  0  0  -0.173493  -0.294167  0  1.439929  0
I  I66  1  0.47560495  0.25369392  0.41099447  1  0  -0.351701  0  1.103773  0  0  -0.305611  0  1.42609  0  0  -0.324111  0  1.409437  0  0  -0.174235  -0.294865  0  1.438165  0
I  I67  1  0.22304385  0.74688961  0.08930076  1  0  -0.352548  0  1.105394  0  0  -0.306738  0  1.427689  0  0  -0.324909  0  1.411098  0  0  -0.173505  -0.294171  0  1.439833  0
N  N68  1  0.95260010  0.68468205  0.63333878  1  0  -0.308405  0  3.252972  0  0  -0.244124  0  3.512777  0  0  -0.26194  0  3.534156  0  0  -0.309534  -0.230868  0  3.49664  0
N  N69  1  0.26678548  0.31485081  0.86652521  1  0  -0.306742  0  3.252453  0  0  -0.244432  0  3.512422  0  0  -0.262399  0  3.533952  0  0  -0.309797  -0.231901  0  3.497628  0
N  N70  1  0.04739867  0.31532202  0.36666104  1  0  -0.308409  0  3.253031  0  0  -0.244104  0  3.512882  0  0  -0.261918  0  3.534253  0  0  -0.309498  -0.230847  0  3.496743  0
N  N71  1  0.73321980  0.68515134  0.13347719  1  0  -0.306627  0  3.252373  0  0  -0.244327  0  3.512274  0  0  -0.262284  0  3.533816  0  0  -0.309781  -0.231801  0  3.497479  0
N  N72  1  0.11799098  0.93650554  0.72684482  1  0  -0.197036  0  3.260458  0  0  -0.142576  0  3.532396  0  0  -0.160094  0  3.554918  0  0  -0.199055  -0.131152  0  3.517342  0
N  N73  1  0.18109010  0.06304809  0.77308619  1  0  -0.19446  0  3.259429  0  0  -0.140911  0  3.531924  0  0  -0.158455  0  3.554508  0  0  -0.198173  -0.129344  0  3.516766  0
N  N74  1  0.88199965  0.06349471  0.27315787  1  0  -0.1969  0  3.260499  0  0  -0.142554  0  3.532525  0  0  -0.160079  0  3.55507  0  0  -0.199014  -0.131128  0  3.51747  0
N  N75  1  0.81890885  0.93695883  0.22691358  1  0  -0.19463  0  3.259476  0  0  -0.140999  0  3.53195  0  0  -0.158555  0  3.554537  0  0  -0.198216  -0.129426  0  3.516776  0
