# generated using pymatgen
data_Pr2H20C28N2O17
_symmetry_space_group_name_H-M   'P 1'
_cell_length_a   10.22208547
_cell_length_b   12.45407065
_cell_length_c   13.29050000
_cell_angle_alpha   72.31282689
_cell_angle_beta   73.54797153
_cell_angle_gamma   69.66163142
_symmetry_Int_Tables_number   1
_chemical_formula_structural   Pr2H20C28N2O17
_chemical_formula_sum   'Pr4 H40 C56 N4 O34'
_cell_volume   1481.31425799
_cell_formula_units_Z   2
loop_
 _symmetry_equiv_pos_site_id
 _symmetry_equiv_pos_as_xyz
  1  'x, y, z'
loop_
 _atom_site_type_symbol
 _atom_site_label
 _atom_site_symmetry_multiplicity
 _atom_site_fract_x
 _atom_site_fract_y
 _atom_site_fract_z
 _atom_site_occupancy
 _atom_site_hle17_bader_spin_density
 _atom_site_hle17_ddec_charge
 _atom_site_hle17_ddec_spin_density
 _atom_site_hle17_ddec_sum_bond_order
 _atom_site_hle17_magmom
 _atom_site_hse06_10hf_bader_spin_density
 _atom_site_hse06_10hf_ddec_charge
 _atom_site_hse06_10hf_ddec_spin_density
 _atom_site_hse06_10hf_ddec_sum_bond_order
 _atom_site_hse06_10hf_magmom
 _atom_site_hse06_bader_spin_density
 _atom_site_hse06_ddec_charge
 _atom_site_hse06_ddec_spin_density
 _atom_site_hse06_ddec_sum_bond_order
 _atom_site_hse06_magmom
 _atom_site_pbe_bader_charge
 _atom_site_pbe_bader_spin_density
 _atom_site_pbe_cm5_charge
 _atom_site_pbe_ddec_charge
 _atom_site_pbe_ddec_spin_density
 _atom_site_pbe_ddec_sum_bond_order
 _atom_site_pbe_magmom
Pr  Pr0  1  0.68457205  0.71853615  0.54117729  1  0  2.284447  0  1.59387  0  0  2.121445  0  2.054572  0  0  2.212687  0  1.916422  0  2.255637  0  1.478189  2.089461  0  2.08965  0
Pr  Pr1  1  0.31542911  0.28146301  0.45882232  1  0  2.284418  0  1.593941  0  0  2.121432  0  2.054641  0  0  2.212665  0  1.916506  0  2.255627  0  1.478191  2.08945  0  2.089719  0
Pr  Pr2  1  0.30878506  0.78694944  0.40521024  1  0  2.272802  0  1.625983  0  0  2.105878  0  2.093848  0  0  2.197673  0  1.956116  0  2.256682  0  1.47608  2.07245  0  2.130161  0
Pr  Pr3  1  0.69122018  0.21304972  0.59478999  1  0  2.272808  0  1.62595  0  0  2.105929  0  2.093739  0  0  2.197678  0  1.956082  0  2.256847  0  1.476066  2.072495  0  2.130061  0
H  H4  1  0.78034224  0.50180537  0.43256043  1  0  0.459366  0  0.805105  0  0  0.437654  0  0.857237  0  0  0.446632  0  0.844291  0  0.640198  0  0.326769  0.431342  0  0.866451  0
H  H5  1  0.21965760  0.49819467  0.56744072  1  0  0.459362  0  0.80511  0  0  0.43765  0  0.857243  0  0  0.446628  0  0.844297  0  0.640188  0  0.326767  0.431338  0  0.866457  0
H  H6  1  0.62513376  0.57203676  0.41889660  1  0  0.438728  0  0.866042  0  0  0.406188  0  0.932693  0  0  0.416167  0  0.918538  0  0.6549  0  0.30563  0.399085  0  0.942965  0
H  H7  1  0.37486710  0.42796327  0.58110358  1  0  0.438693  0  0.866087  0  0  0.406159  0  0.932733  0  0  0.416139  0  0.918578  0  0.654896  0  0.305606  0.399055  0  0.943009  0
H  H8  1  0.80751855  0.52771972  0.72612798  1  0  0.430112  0  0.872951  0  0  0.39772  0  0.93892  0  0  0.409669  0  0.921748  0  0.640274  0  0.291187  0.389153  0  0.951369  0
H  H9  1  0.19248028  0.47228032  0.27387265  1  0  0.430115  0  0.872945  0  0  0.397722  0  0.938914  0  0  0.40967  0  0.921744  0  0.640276  0  0.291187  0.389156  0  0.951364  0
H  H10  1  0.79792539  0.45677674  0.64589517  1  0  0.435696  0  0.863295  0  0  0.405103  0  0.926327  0  0  0.416633  0  0.909633  0  0.649709  0  0.298155  0.39701  0  0.938131  0
H  H11  1  0.20207650  0.54322330  0.35410403  1  0  0.43569  0  0.863307  0  0  0.405099  0  0.926336  0  0  0.416628  0  0.909643  0  0.649718  0  0.298147  0.397004  0  0.938141  0
H  H12  1  0.23303349  0.02408745  0.47369933  1  0  0.446063  0  0.847556  0  0  0.417008  0  0.907054  0  0  0.427785  0  0.891631  0  0.656858  0  0.308526  0.409391  0  0.918118  0
H  H13  1  0.76696676  0.97591434  0.52629972  1  0  0.445982  0  0.847615  0  0  0.416913  0  0.907135  0  0  0.42769  0  0.891712  0  0.656712  0  0.308481  0.409298  0  0.918194  0
H  H14  1  0.36324051  0.94218839  0.52820172  1  0  0.445461  0  0.841463  0  0  0.415743  0  0.904376  0  0  0.425144  0  0.890853  0  0.648513  0  0.314183  0.408984  0  0.914291  0
H  H15  1  0.63675842  0.05781428  0.47179813  1  0  0.445468  0  0.841483  0  0  0.415748  0  0.904376  0  0  0.425151  0  0.890852  0  0.648507  0  0.314181  0.408989  0  0.914291  0
H  H16  1  0.46172876  0.24552138  0.08894195  1  0  0.10385  0  0.957914  0  0  0.114753  0  1.01802  0  0  0.118183  0  1.015645  0  0.105612  0  0.108143  0.112291  0  1.019776  0
H  H17  1  0.53827108  0.75447866  0.91105845  1  0  0.103857  0  0.957906  0  0  0.114761  0  1.018009  0  0  0.118192  0  1.015633  0  0.105614  0  0.108146  0.112299  0  1.019764  0
H  H18  1  0.59412693  0.16370056  0.92414133  1  0  0.116979  0  0.971984  0  0  0.124229  0  1.035138  0  0  0.128774  0  1.031658  0  0.138506  0  0.108123  0.121018  0  1.037644  0
H  H19  1  0.40587189  0.83629947  0.07586004  1  0  0.116969  0  0.971978  0  0  0.124235  0  1.035117  0  0  0.128781  0  1.031637  0  0.138515  0  0.108125  0.121025  0  1.037624  0
H  H20  1  0.75517196  0.95847656  0.94904433  1  0  0.110229  0  0.959489  0  0  0.118656  0  1.023138  0  0  0.121499  0  1.022122  0  0.119668  0  0.10828  0.11667  0  1.0238  0
H  H21  1  0.24482656  0.04152436  0.05095611  1  0  0.110249  0  0.959494  0  0  0.118676  0  1.023137  0  0  0.121517  0  1.022123  0  0.119642  0  0.108294  0.11669  0  1.023798  0
H  H22  1  0.12816997  0.68369928  0.20178237  1  0  0.141171  0  0.937839  0  0  0.152031  0  0.992013  0  0  0.156161  0  0.990736  0  0.103114  0  0.120375  0.149343  0  0.992649  0
H  H23  1  0.87183089  0.31630076  0.79821555  1  0  0.141192  0  0.937869  0  0  0.152059  0  0.992037  0  0  0.15619  0  0.990759  0  0.103277  0  0.120379  0.149369  0  0.992674  0
H  H24  1  0.94599508  0.87725562  0.17036603  1  0  0.091719  0  0.947248  0  0  0.101952  0  1.009887  0  0  0.104513  0  1.007568  0  0.119642  0  0.125745  0.100056  0  1.011689  0
H  H25  1  0.05400578  0.12274442  0.82963264  1  0  0.091695  0  0.94728  0  0  0.101939  0  1.009907  0  0  0.10449  0  1.007598  0  0.119476  0  0.125736  0.100043  0  1.011708  0
H  H26  1  0.67998662  0.73707957  0.09557558  1  0  0.09667  0  0.938293  0  0  0.107307  0  1.001324  0  0  0.109458  0  0.999521  0  0.139502  0  0.126937  0.10575  0  1.002559  0
H  H27  1  0.32001251  0.26291958  0.90442372  1  0  0.096695  0  0.938236  0  0  0.107334  0  1.001264  0  0  0.109486  0  0.999457  0  0.139547  0  0.12695  0.105778  0  1.002499  0
H  H28  1  0.85302310  0.53710226  0.11894252  1  0  0.111698  0  0.991463  0  0  0.119875  0  1.056542  0  0  0.121998  0  1.058872  0  0.105067  0  0.10277  0.11836  0  1.055125  0
H  H29  1  0.14697603  0.46289690  0.88105678  1  0  0.111707  0  0.991469  0  0  0.119868  0  1.05657  0  0  0.121999  0  1.058888  0  0.105095  0  0.102788  0.118353  0  1.055153  0
H  H30  1  0.50644819  0.36361895  0.92970712  1  0  0.100241  0  0.964675  0  0  0.110938  0  1.02681  0  0  0.113791  0  1.025162  0  0.099031  0  0.10852  0.108863  0  1.028061  0
H  H31  1  0.49355134  0.63638197  0.07029686  1  0  0.100266  0  0.964693  0  0  0.110962  0  1.026822  0  0  0.113813  0  1.025178  0  0.099029  0  0.108536  0.108887  0  1.028073  0
H  H32  1  0.33815464  0.48787273  0.05703212  1  0  0.114067  0  0.937009  0  0  0.124186  0  0.992523  0  0  0.127523  0  0.991142  0  0.113024  0  0.112741  0.121803  0  0.993668  0
H  H33  1  0.66184357  0.51212907  0.94296963  1  0  0.114078  0  0.937  0  0  0.124171  0  0.992555  0  0  0.127508  0  0.991173  0  0.113057  0  0.11272  0.121788  0  0.993698  0
H  H34  1  0.16315713  0.67382329  0.98399674  1  0  0.101163  0  0.972247  0  0  0.109392  0  1.037068  0  0  0.111743  0  1.036989  0  0.092915  0  0.104812  0.107682  0  1.0372  0
H  H35  1  0.83684036  0.32617762  0.01600242  1  0  0.101163  0  0.97228  0  0  0.109393  0  1.037094  0  0  0.111744  0  1.037013  0  0.092944  0  0.104802  0.107671  0  1.037238  0
H  H36  1  0.05609935  0.05041697  0.69632096  1  0  0.135134  0  0.960303  0  0  0.142732  0  1.022176  0  0  0.146752  0  1.020382  0  0.110264  0  0.116513  0.139671  0  1.023789  0
H  H37  1  0.94390212  0.94958131  0.30367808  1  0  0.13511  0  0.960306  0  0  0.142709  0  1.022169  0  0  0.146733  0  1.020375  0  0.110256  0  0.116488  0.139648  0  1.023783  0
H  H38  1  0.25356651  0.87295005  0.73807660  1  0  0.097715  0  0.952201  0  0  0.105172  0  1.018984  0  0  0.107381  0  1.016885  0  0.109924  0  0.126977  0.10384  0  1.019919  0
H  H39  1  0.74643526  0.12704735  0.26192413  1  0  0.097743  0  0.952173  0  0  0.105203  0  1.018958  0  0  0.107412  0  1.01686  0  0.109945  0  0.126985  0.10387  0  1.019894  0
H  H40  1  0.98919509  0.65432200  0.82103227  1  0  0.106949  0  0.965322  0  0  0.110978  0  1.034641  0  0  0.115384  0  1.029709  0  0.167208  0  0.123002  0.107614  0  1.038246  0
H  H41  1  0.01080373  0.34567804  0.17896760  1  0  0.106948  0  0.965321  0  0  0.110977  0  1.034639  0  0  0.115381  0  1.02971  0  0.167218  0  0.122999  0.107613  0  1.038245  0
H  H42  1  0.78012768  0.82369325  0.78648722  1  0  0.138498  0  0.945446  0  0  0.147564  0  1.003977  0  0  0.1512  0  1.003213  0  0.120636  0  0.117211  0.145229  0  1.004206  0
H  H43  1  0.21987318  0.17630679  0.21351145  1  0  0.138471  0  0.945473  0  0  0.147534  0  1.00401  0  0  0.15117  0  1.003247  0  0.12063  0  0.117204  0.145198  0  1.004239  0
C  C44  1  0.63701503  0.88658890  0.32336169  1  0  0.715363  0  3.902686  0  0  0.660323  0  4.209443  0  0  0.695906  0  4.2012  0  1.61518  0  0.223108  0.635721  0  4.218079  0
C  C45  1  0.36298511  0.11341025  0.67663889  1  0  0.71537  0  3.902689  0  0  0.660329  0  4.209445  0  0  0.695912  0  4.201201  0  1.615174  0  0.223129  0.635725  0  4.218083  0
C  C46  1  0.46726708  0.14710718  0.29252913  1  0  0.629094  0  3.942992  0  0  0.581114  0  4.241342  0  0  0.613914  0  4.238324  0  1.5582  0  0.196575  0.558735  0  4.245069  0
C  C47  1  0.53273276  0.85289286  0.70747052  1  0  0.629098  0  3.94299  0  0  0.581112  0  4.241349  0  0  0.613911  0  4.238333  0  1.558342  0  0.196578  0.558733  0  4.245076  0
C  C48  1  0.62611538  0.96960859  0.21456484  1  0  -0.097984  0  3.65724  0  0  -0.091988  0  3.89708  0  0  -0.093984  0  3.913244  0  -0.071765  0  0.010763  -0.090582  0  3.885558  0
C  C49  1  0.37388405  0.03038968  0.78543465  1  0  -0.097917  0  3.657129  0  0  -0.091938  0  3.896959  0  0  -0.093935  0  3.913122  0  -0.07178  0  0.010796  -0.090532  0  3.885442  0
C  C50  1  0.54050619  0.08709129  0.20047306  1  0  -0.064259  0  3.717021  0  0  -0.050233  0  3.953952  0  0  -0.056487  0  3.974066  0  0.014196  0  -0.007183  -0.045567  0  3.93882  0
C  C51  1  0.45949161  0.91290874  0.79952703  1  0  -0.064261  0  3.716997  0  0  -0.050238  0  3.953935  0  0  -0.056491  0  3.974046  0  0.01419  0  -0.007218  -0.045575  0  3.938804  0
C  C52  1  0.52931194  0.15506039  0.09589736  1  0  -0.067691  0  3.725253  0  0  -0.095899  0  3.978401  0  0  -0.095379  0  3.997852  0  -0.041426  0  -0.0802  -0.096043  0  3.96483  0
C  C53  1  0.47068790  0.84493964  0.90410304  1  0  -0.067703  0  3.725204  0  0  -0.095912  0  3.978357  0  0  -0.095391  0  3.997806  0  -0.041428  0  -0.080198  -0.096053  0  3.964784  0
C  C54  1  0.60253672  0.10977669  0.00519399  1  0  -0.064571  0  3.746009  0  0  -0.077236  0  3.998198  0  0  -0.080278  0  4.017549  0  -0.035722  0  -0.087608  -0.075299  0  3.985268  0
C  C55  1  0.39746312  0.89022335  0.99480566  1  0  -0.064564  0  3.745994  0  0  -0.077241  0  3.998184  0  0  -0.080286  0  4.017536  0  -0.035708  0  -0.087596  -0.075306  0  3.985255  0
C  C56  1  0.69276913  0.99502246  0.01856658  1  0  -0.111151  0  3.722418  0  0  -0.134647  0  3.974753  0  0  -0.134678  0  3.992911  0  -0.054414  0  -0.078283  -0.134567  0  3.962659  0
C  C57  1  0.30722939  0.00497845  0.98143311  1  0  -0.111153  0  3.722437  0  0  -0.134662  0  3.974756  0  0  -0.134691  0  3.992914  0  -0.05439  0  -0.078316  -0.134582  0  3.962665  0
C  C58  1  0.70462129  0.92724775  0.12218595  1  0  0.129312  0  3.758319  0  0  0.115824  0  4.011962  0  0  0.11858  0  4.034893  0  0.314513  0  0.091564  0.113952  0  3.996368  0
C  C59  1  0.29537580  0.07275141  0.87781455  1  0  0.129221  0  3.75828  0  0  0.115789  0  4.01186  0  0  0.118545  0  4.034789  0  0.314517  0  0.091555  0.113914  0  3.996268  0
C  C60  1  0.03056609  0.69064449  0.17923439  1  0  -0.248811  0  3.68338  0  0  -0.265559  0  3.9392  0  0  -0.27832  0  3.955315  0  0.043118  0  -0.097999  -0.257183  0  3.927722  0
C  C61  1  0.96943273  0.30935555  0.82076472  1  0  -0.248823  0  3.68334  0  0  -0.265588  0  3.939163  0  0  -0.278346  0  3.955273  0  0.043141  0  -0.098003  -0.257209  0  3.927684  0
C  C62  1  0.93190192  0.79772788  0.16258954  1  0  0.10798  0  3.679606  0  0  0.06464  0  3.933156  0  0  0.076677  0  3.947302  0  0.299048  0  0.047521  0.056508  0  3.924167  0
C  C63  1  0.06809792  0.20227215  0.83740860  1  0  0.108043  0  3.679609  0  0  0.064699  0  3.933148  0  0  0.076735  0  3.947311  0  0.299257  0  0.047567  0.056566  0  3.92416  0
C  C64  1  0.78111311  0.71843412  0.11856773  1  0  0.103639  0  3.676355  0  0  0.059583  0  3.932059  0  0  0.071529  0  3.946879  0  0.292355  0  0.047546  0.051823  0  3.922042  0
C  C65  1  0.21888469  0.28156592  0.88143161  1  0  0.103605  0  3.676407  0  0  0.05954  0  3.932126  0  0  0.071491  0  3.946937  0  0.292238  0  0.047532  0.051779  0  3.922109  0
C  C66  1  0.87668112  0.60932152  0.13299668  1  0  -0.248251  0  3.697248  0  0  -0.268186  0  3.957061  0  0  -0.281554  0  3.976395  0  -0.010092  0  -0.103976  -0.259407  0  3.943768  0
C  C67  1  0.12331801  0.39067764  0.86700187  1  0  -0.248273  0  3.69738  0  0  -0.268199  0  3.957208  0  0  -0.281571  0  3.976527  0  -0.009932  0  -0.104029  -0.25942  0  3.943916  0
C  C68  1  0.00552144  0.58725447  0.16985410  1  0  0.434839  0  3.874727  0  0  0.418244  0  4.139316  0  0  0.443287  0  4.143698  0  0.887501  0  0.117408  0.401789  0  4.135253  0
C  C69  1  0.99447799  0.41274380  0.83014614  1  0  0.434737  0  3.874791  0  0  0.418163  0  4.139362  0  0  0.443203  0  4.143747  0  0.887213  0  0.117383  0.401709  0  4.135296  0
C  C70  1  0.97147633  0.80217419  0.50402645  1  0  0.56483  0  3.912801  0  0  0.520439  0  4.20841  0  0  0.549949  0  4.203843  0  1.616003  0  0.221702  0.499892  0  4.214786  0
C  C71  1  0.02852698  0.19782761  0.49597269  1  0  0.564948  0  3.912763  0  0  0.520509  0  4.208451  0  0  0.550023  0  4.203878  0  1.615974  0  0.221819  0.499955  0  4.214837  0
C  C72  1  0.02307884  0.69658433  0.44956964  1  0  0.556533  0  3.920594  0  0  0.512124  0  4.218343  0  0  0.541752  0  4.213557  0  1.593545  0  0.220305  0.491464  0  4.225125  0
C  C73  1  0.97692917  0.30341571  0.55043048  1  0  0.556731  0  3.920411  0  0  0.51237  0  4.218087  0  0  0.541999  0  4.213293  0  1.593442  0  0.22042  0.491713  0  4.224873  0
C  C74  1  0.34427616  0.64265078  0.62946431  1  0  0.714872  0  3.888861  0  0  0.658801  0  4.195629  0  0  0.694305  0  4.187418  0  1.623321  0  0.224323  0.634503  0  4.203634  0
C  C75  1  0.65572338  0.35735014  0.37053816  1  0  0.714814  0  3.888955  0  0  0.65879  0  4.195629  0  0  0.694295  0  4.187413  0  1.623345  0  0.224258  0.634493  0  4.203631  0
C  C76  1  0.52079685  0.39411418  0.72196044  1  0  0.647779  0  3.914297  0  0  0.597236  0  4.211212  0  0  0.630264  0  4.208069  0  1.574689  0  0.207698  0.574394  0  4.215698  0
C  C77  1  0.47920034  0.60588762  0.27804079  1  0  0.647771  0  3.914421  0  0  0.597203  0  4.21136  0  0  0.630233  0  4.208219  0  1.574712  0  0.207715  0.574362  0  4.215845  0
C  C78  1  0.34098989  0.59056524  0.74771154  1  0  -0.089005  0  3.639821  0  0  -0.083828  0  3.879934  0  0  -0.085522  0  3.895348  0  -0.039649  0  0.015926  -0.082731  0  3.869287  0
C  C79  1  0.65900923  0.40943392  0.25229078  1  0  -0.089059  0  3.640025  0  0  -0.083869  0  3.880116  0  0  -0.085564  0  3.895533  0  -0.039432  0  0.015975  -0.082767  0  3.869467  0
C  C80  1  0.43331170  0.48177193  0.78960821  1  0  -0.051247  0  3.693874  0  0  -0.035573  0  3.926846  0  0  -0.041555  0  3.946893  0  0.081835  0  0.001056  -0.03169  0  3.913209  0
C  C81  1  0.56668712  0.51822811  0.21039317  1  0  -0.051074  0  3.693882  0  0  -0.035403  0  3.92685  0  0  -0.041386  0  3.946898  0  0.081557  0  0.001104  -0.031523  0  3.913212  0
C  C82  1  0.43240006  0.44730712  0.90033067  1  0  -0.066185  0  3.722249  0  0  -0.092557  0  3.971567  0  0  -0.092002  0  3.990533  0  -0.130292  0  -0.0744  -0.092728  0  3.958596  0
C  C83  1  0.56759672  0.55269292  0.09967266  1  0  -0.066276  0  3.722398  0  0  -0.092639  0  3.971713  0  0  -0.092082  0  3.990675  0  -0.130399  0  -0.07446  -0.092814  0  3.958753  0
C  C84  1  0.33925765  0.51622266  0.97083947  1  0  -0.050433  0  3.744264  0  0  -0.062985  0  3.996821  0  0  -0.065337  0  4.016605  0  0.047136  0  -0.080529  -0.061528  0  3.983496  0
C  C85  1  0.66074188  0.48377826  0.02916301  1  0  -0.050518  0  3.744397  0  0  -0.063065  0  3.996967  0  0  -0.065416  0  4.016749  0  0.047478  0  -0.080509  -0.061608  0  3.983639  0
C  C86  1  0.24144176  0.62014306  0.93057130  1  0  -0.116494  0  3.729311  0  0  -0.141278  0  3.98499  0  0  -0.141728  0  4.003472  0  -0.063388  0  -0.07918  -0.140805  0  3.972383  0
C  C87  1  0.75855604  0.37985698  0.06942955  1  0  -0.116495  0  3.729369  0  0  -0.141265  0  3.985031  0  0  -0.141713  0  4.00351  0  -0.06357  0  -0.079196  -0.14078  0  3.972432  0
C  C88  1  0.24153648  0.65564402  0.82044358  1  0  0.130133  0  3.735842  0  0  0.116283  0  3.991077  0  0  0.119402  0  4.01312  0  0.29469  0  0.093612  0.114277  0  3.975805  0
C  C89  1  0.75846000  0.34435690  0.17955956  1  0  0.130195  0  3.735921  0  0  0.11631  0  3.99119  0  0  0.119431  0  4.013233  0  0.294698  0  0.093598  0.114301  0  3.975916  0
C  C90  1  0.03435260  0.96568476  0.72801905  1  0  -0.244054  0  3.674563  0  0  -0.263443  0  3.93368  0  0  -0.276072  0  3.94976  0  0.025205  0  -0.092429  -0.255369  0  3.922875  0
C  C91  1  0.96564989  0.03431352  0.27197977  1  0  -0.244099  0  3.67452  0  0  -0.263464  0  3.933625  0  0  -0.276099  0  3.94971  0  0.025175  0  -0.092451  -0.255392  0  3.922824  0
C  C92  1  0.14614817  0.86800678  0.74936758  1  0  0.114968  0  3.651173  0  0  0.072202  0  3.90603  0  0  0.084217  0  3.920437  0  0.389017  0  0.054206  0.064089  0  3.896709  0
C  C93  1  0.85385432  0.13199150  0.25062898  1  0  0.115012  0  3.651191  0  0  0.072234  0  3.906027  0  0  0.084248  0  3.920435  0  0.389096  0  0.054268  0.064126  0  3.896695  0
C  C94  1  0.99681003  0.74421477  0.79790816  1  0  0.105427  0  3.633338  0  0  0.061603  0  3.890303  0  0  0.073251  0  3.902917  0  0.3106  0  0.050066  0.054402  0  3.881898  0
C  C95  1  0.00319011  0.25578438  0.20209092  1  0  0.105412  0  3.633386  0  0  0.061585  0  3.890351  0  0  0.073236  0  3.902964  0  0.310667  0  0.050077  0.054383  0  3.881946  0
C  C96  1  0.88153116  0.83905082  0.77825012  1  0  -0.229456  0  3.661489  0  0  -0.247631  0  3.919343  0  0  -0.259861  0  3.935623  0  0.074817  0  -0.090127  -0.239885  0  3.907721  0
C  C97  1  0.11846898  0.16094834  0.22174820  1  0  -0.22938  0  3.661451  0  0  -0.24755  0  3.919313  0  0  -0.259782  0  3.935596  0  0.074767  0  -0.090117  -0.239803  0  3.907691  0
C  C98  1  0.89423976  0.95624153  0.74274152  1  0  0.471077  0  3.855578  0  0  0.455329  0  4.116751  0  0  0.48038  0  4.122804  0  0.747163  0  0.126918  0.439007  0  4.112987  0
C  C99  1  0.10576243  0.04375763  0.25725711  1  0  0.47111  0  3.855558  0  0  0.455337  0  4.116774  0  0  0.480388  0  4.122826  0  0.747158  0  0.12691  0.439013  0  4.113011  0
N  N100  1  0.80632947  0.81218827  0.13498033  1  0  -0.100947  0  3.599332  0  0  -0.010679  0  3.810892  0  0  -0.028427  0  3.836727  0  -1.267729  0  -0.226873  0.001154  0  3.792835  0
N  N101  1  0.19366935  0.18781177  0.86501878  1  0  -0.1009  0  3.599409  0  0  -0.010654  0  3.810999  0  0  -0.028401  0  3.836832  0  -1.267835  0  -0.226864  0.00118  0  3.792943  0
N  N102  1  0.12837346  0.75803218  0.78519161  1  0  -0.087652  0  3.582384  0  0  0.002863  0  3.792864  0  0  -0.01416  0  3.818699  0  -1.258775  0  -0.218219  0.013823  0  3.775115  0
N  N103  1  0.87162740  0.24196785  0.21480631  1  0  -0.087719  0  3.582481  0  0  0.002805  0  3.792975  0  0  -0.014219  0  3.818811  0  -1.258789  0  -0.218249  0.013765  0  3.775226  0
O  O104  1  0.73984386  0.87175117  0.36564010  1  0  -0.673044  0  1.985778  0  0  -0.625175  0  2.230331  0  0  -0.654498  0  2.221731  0  -1.178769  0  -0.348631  -0.607687  0  2.235655  0
O  O105  1  0.26015598  0.12824886  0.63435955  1  0  -0.673066  0  1.985794  0  0  -0.625202  0  2.230349  0  0  -0.654521  0  2.221746  0  -1.178769  0  -0.348648  -0.607713  0  2.235673  0
O  O106  1  0.54626075  0.82794517  0.36570633  1  0  -0.791126  0  2.042734  0  0  -0.733412  0  2.306191  0  0  -0.768671  0  2.292216  0  -1.214429  0  -0.395163  -0.715621  0  2.314988  0
O  O107  1  0.45373940  0.17205399  0.63429425  1  0  -0.791111  0  2.042715  0  0  -0.733403  0  2.30617  0  0  -0.768655  0  2.292198  0  -1.214469  0  -0.395147  -0.715609  0  2.314967  0
O  O108  1  0.49093994  0.09567077  0.38771978  1  0  -0.690394  0  1.97165  0  0  -0.633932  0  2.20829  0  0  -0.661193  0  2.197526  0  -1.18596  0  -0.346399  -0.618026  0  2.215054  0
O  O109  1  0.50905960  0.90433015  0.61228044  1  0  -0.69041  0  1.971669  0  0  -0.633932  0  2.208289  0  0  -0.661194  0  2.197525  0  -1.186108  0  -0.346394  -0.618025  0  2.215052  0
O  O110  1  0.38592133  0.25150872  0.27088314  1  0  -0.667623  0  1.959362  0  0  -0.61831  0  2.195796  0  0  -0.646821  0  2.186897  0  -1.177176  0  -0.377319  -0.601802  0  2.200986  0
O  O111  1  0.61407851  0.74849132  0.72911651  1  0  -0.667614  0  1.95936  0  0  -0.618306  0  2.1958  0  0  -0.646819  0  2.186901  0  -1.177167  0  -0.377313  -0.601799  0  2.200991  0
O  O112  1  0.09119619  0.48473173  0.19074380  1  0  -0.55717  0  1.923856  0  0  -0.501976  0  2.122978  0  0  -0.524611  0  2.115339  0  -1.155825  0  -0.300807  -0.485966  0  2.127634  0
O  O113  1  0.90880059  0.51526831  0.80925802  1  0  -0.557112  0  1.923837  0  0  -0.501933  0  2.122956  0  0  -0.524572  0  2.115322  0  -1.155782  0  -0.300795  -0.485922  0  2.127608  0
O  O114  1  0.05706674  0.85918629  0.49150201  1  0  -0.612438  0  2.048406  0  0  -0.566478  0  2.293149  0  0  -0.593776  0  2.285142  0  -1.165467  0  -0.359344  -0.550737  0  2.297548  0
O  O115  1  0.94293759  0.14081550  0.50849766  1  0  -0.612534  0  2.04845  0  0  -0.566589  0  2.293278  0  0  -0.593884  0  2.285272  0  -1.165324  0  -0.359429  -0.550845  0  2.297683  0
O  O116  1  0.84291469  0.82488685  0.55575052  1  0  -0.681948  0  2.098944  0  0  -0.62197  0  2.332615  0  0  -0.652262  0  2.324282  0  -1.191555  0  -0.363896  -0.604511  0  2.337442  0
O  O117  1  0.15708719  0.17511319  0.44424717  1  0  -0.681953  0  2.098885  0  0  -0.621974  0  2.332575  0  0  -0.652269  0  2.324246  0  -1.1916  0  -0.363927  -0.604513  0  2.337406  0
O  O118  1  0.15028308  0.67575838  0.39486380  1  0  -0.686093  0  2.101562  0  0  -0.628665  0  2.341047  0  0  -0.658607  0  2.331331  0  -1.196706  0  -0.358273  -0.611235  0  2.346677  0
O  O119  1  0.84972257  0.32424254  0.60513508  1  0  -0.686312  0  2.101491  0  0  -0.628895  0  2.340965  0  0  -0.658832  0  2.33124  0  -1.196603  0  -0.358371  -0.611461  0  2.346585  0
O  O120  1  0.93705834  0.64022488  0.46112389  1  0  -0.62695  0  2.050844  0  0  -0.579485  0  2.292125  0  0  -0.606666  0  2.282472  0  -1.17573  0  -0.365064  -0.564168  0  2.297745  0
O  O121  1  0.06294834  0.35977604  0.53887251  1  0  -0.626956  0  2.050838  0  0  -0.579505  0  2.292105  0  0  -0.606686  0  2.282449  0  -1.175871  0  -0.365076  -0.56419  0  2.297726  0
O  O122  1  0.44174066  0.69231218  0.57594184  1  0  -0.789877  0  2.06304  0  0  -0.7315  0  2.330055  0  0  -0.767877  0  2.31772  0  -1.218841  0  -0.406062  -0.713095  0  2.33745  0
O  O123  1  0.55825745  0.30768697  0.42406069  1  0  -0.789794  0  2.062943  0  0  -0.731454  0  2.329964  0  0  -0.767824  0  2.317625  0  -1.218879  0  -0.406003  -0.713049  0  2.337357  0
O  O124  1  0.24467804  0.64717273  0.58857711  1  0  -0.670384  0  2.001475  0  0  -0.621015  0  2.23988  0  0  -0.64903  0  2.229817  0  -1.173852  0  -0.344483  -0.604181  0  2.24615  0
O  O125  1  0.75532180  0.35282731  0.41142405  1  0  -0.670399  0  2.001518  0  0  -0.621053  0  2.239908  0  0  -0.649064  0  2.229845  0  -1.173886  0  -0.344509  -0.604222  0  2.246178  0
O  O126  1  0.58918696  0.29240153  0.76768172  1  0  -0.682671  0  1.959976  0  0  -0.636224  0  2.202057  0  0  -0.664634  0  2.191787  0  -1.192799  0  -0.362326  -0.619871  0  2.208102  0
O  O127  1  0.41081288  0.70759850  0.23231943  1  0  -0.682606  0  1.960092  0  0  -0.636164  0  2.202209  0  0  -0.664576  0  2.191938  0  -1.192817  0  -0.362294  -0.619808  0  2.208245  0
O  O128  1  0.51977929  0.42061170  0.62099469  1  0  -0.683221  0  2.015644  0  0  -0.620218  0  2.245362  0  0  -0.648206  0  2.235731  0  -1.193693  0  -0.338424  -0.603606  0  2.251715  0
O  O129  1  0.48021882  0.57938746  0.37900709  1  0  -0.683294  0  2.015632  0  0  -0.620254  0  2.24532  0  0  -0.64825  0  2.235691  0  -1.193749  0  -0.338476  -0.603643  0  2.251673  0
O  O130  1  0.78615068  0.04635768  0.72592142  1  0  -0.711268  0  1.987382  0  0  -0.656731  0  2.236122  0  0  -0.687351  0  2.222962  0  -1.201675  0  -0.428693  -0.640331  0  2.241904  0
O  O131  1  0.21385120  0.95364236  0.27407779  1  0  -0.711312  0  1.987472  0  0  -0.656765  0  2.236226  0  0  -0.687391  0  2.223061  0  -1.201698  0  -0.42869  -0.640366  0  2.242009  0
O  O132  1  0.71194038  0.57927048  0.43306703  1  0  -0.906645  0  1.838618  0  0  -0.858302  0  2.035022  0  0  -0.882422  0  2.002532  0  -1.272004  0  -0.645939  -0.845388  0  2.055242  0
O  O133  1  0.28805875  0.42072868  0.56693378  1  0  -0.906616  0  1.838644  0  0  -0.858277  0  2.035021  0  0  -0.882396  0  2.002533  0  -1.271983  0  -0.645926  -0.845365  0  2.055245  0
O  O134  1  0.75471200  0.53164267  0.67064718  1  0  -0.927467  0  1.843247  0  0  -0.876622  0  2.041893  0  0  -0.902463  0  2.003904  0  -1.292513  0  -0.660258  -0.862949  0  2.066275  0
O  O135  1  0.24529019  0.46835649  0.32935221  1  0  -0.927457  0  1.843244  0  0  -0.876638  0  2.041929  0  0  -0.902478  0  2.003943  0  -1.29252  0  -0.660245  -0.862963  0  2.066311  0
O  O136  1  0.28680449  0.94045561  0.49816977  1  0  -0.908077  0  1.8562  0  0  -0.861337  0  2.055487  0  0  -0.885673  0  2.022514  0  -1.288773  0  -0.641063  -0.847998  0  2.076432  0
O  O137  1  0.71319474  0.05954619  0.50183026  1  0  -0.908002  0  1.856232  0  0  -0.861255  0  2.055513  0  0  -0.885582  0  2.022537  0  -1.288667  0  -0.641023  -0.847918  0  2.076456  0
