# generated using pymatgen
data_K4Ti2H24C12N2O23
_symmetry_space_group_name_H-M   'P 1'
_cell_length_a   7.71240450
_cell_length_b   9.81394425
_cell_length_c   10.70913016
_cell_angle_alpha   65.94797532
_cell_angle_beta   77.57423482
_cell_angle_gamma   66.64827356
_symmetry_Int_Tables_number   1
_chemical_formula_structural   K4Ti2H24C12N2O23
_chemical_formula_sum   'K4 Ti2 H24 C12 N2 O23'
_cell_volume   678.16668184
_cell_formula_units_Z   1
loop_
 _symmetry_equiv_pos_site_id
 _symmetry_equiv_pos_as_xyz
  1  'x, y, z'
loop_
 _atom_site_type_symbol
 _atom_site_label
 _atom_site_symmetry_multiplicity
 _atom_site_fract_x
 _atom_site_fract_y
 _atom_site_fract_z
 _atom_site_occupancy
 _atom_site_hle17_bader_spin_density
 _atom_site_hle17_ddec_charge
 _atom_site_hle17_ddec_spin_density
 _atom_site_hle17_ddec_sum_bond_order
 _atom_site_hle17_magmom
 _atom_site_hse06_10hf_bader_spin_density
 _atom_site_hse06_10hf_ddec_charge
 _atom_site_hse06_10hf_ddec_spin_density
 _atom_site_hse06_10hf_ddec_sum_bond_order
 _atom_site_hse06_10hf_magmom
 _atom_site_hse06_bader_spin_density
 _atom_site_hse06_ddec_charge
 _atom_site_hse06_ddec_spin_density
 _atom_site_hse06_ddec_sum_bond_order
 _atom_site_hse06_magmom
 _atom_site_pbe_bader_spin_density
 _atom_site_pbe_cm5_charge
 _atom_site_pbe_ddec_charge
 _atom_site_pbe_ddec_spin_density
 _atom_site_pbe_ddec_sum_bond_order
 _atom_site_pbe_magmom
K  K0  1  0.27261264  0.02589056  0.70150554  1  0  0.927409  0  0.460219  0  0  0.886048  0  0.639581  0  0  0.900235  0  0.616178  0  0  0.781156  0.875092  0  0.656533  0
K  K1  1  0.72738644  0.97411247  0.29849574  1  0  0.9274  0  0.460215  0  0  0.886049  0  0.63956  0  0  0.900234  0  0.616154  0  0  0.781148  0.875088  0  0.656512  0
K  K2  1  0.78318206  0.05528922  0.63496066  1  0  0.922433  0  0.512126  0  0  0.884657  0  0.700238  0  0  0.896218  0  0.678935  0  0  0.839087  0.875268  0  0.71625  0
K  K3  1  0.21681764  0.94470905  0.36504231  1  0  0.922426  0  0.512119  0  0  0.884646  0  0.700229  0  0  0.896204  0  0.678926  0  0  0.839067  0.875258  0  0.716237  0
Ti  Ti4  1  0.04830526  0.41555181  0.86591975  1  0  1.88568  0  2.397769  0  0  1.887168  0  2.738238  0  0  1.98701  0  2.709676  0  0  1.442795  1.81515  0  2.763842  0
Ti  Ti5  1  0.95169395  0.58444765  0.13408005  1  0  1.885654  0  2.397846  0  0  1.887193  0  2.738247  0  0  1.987002  0  2.709734  0  0  1.442813  1.815176  0  2.763827  0
H  H6  1  0.43934781  0.63060657  0.76881015  1  0  0.113261  0  0.928093  0  0  0.12409  0  0.991699  0  0  0.127826  0  0.98861  0  0  0.117801  0.121355  0  0.994111  0
H  H7  1  0.56065092  0.36939409  0.23118928  1  0  0.113232  0  0.92811  0  0  0.124062  0  0.991715  0  0  0.127798  0  0.988624  0  0  0.117789  0.121325  0  0.994128  0
H  H8  1  0.26047837  0.62628483  0.90653794  1  0  0.122131  0  0.960202  0  0  0.128462  0  1.029694  0  0  0.132839  0  1.026195  0  0  0.126794  0.125464  0  1.032014  0
H  H9  1  0.73952266  0.37371344  0.09346389  1  0  0.122093  0  0.960249  0  0  0.128406  0  1.029766  0  0  0.132785  0  1.026261  0  0  0.126778  0.12541  0  1.032084  0
H  H10  1  0.36673526  0.38842750  0.04954588  1  0  0.122808  0  0.941207  0  0  0.131395  0  1.009217  0  0  0.135299  0  1.00597  0  0  0.126318  0.128664  0  1.011507  0
H  H11  1  0.63326480  0.61157315  0.95045335  1  0  0.122771  0  0.941205  0  0  0.131371  0  1.009215  0  0  0.135275  0  1.005968  0  0  0.126294  0.128642  0  1.011499  0
H  H12  1  0.58050401  0.28799393  0.97160731  1  0  0.117053  0  0.945233  0  0  0.127952  0  1.005469  0  0  0.132324  0  1.001748  0  0  0.116078  0.124681  0  1.008412  0
H  H13  1  0.41949569  0.71200434  0.02839193  1  0  0.117035  0  0.945254  0  0  0.127955  0  1.005471  0  0  0.132326  0  1.001751  0  0  0.11608  0.124679  0  1.008426  0
H  H14  1  0.59009602  0.27672314  0.76953077  1  0  0.114134  0  0.930798  0  0  0.126343  0  0.995578  0  0  0.12983  0  0.992625  0  0  0.125156  0.123801  0  0.997862  0
H  H15  1  0.40990886  0.72327869  0.23046820  1  0  0.114175  0  0.930794  0  0  0.126327  0  0.995599  0  0  0.129819  0  0.992655  0  0  0.125175  0.123777  0  0.997879  0
H  H16  1  0.51326807  0.47270105  0.65292538  1  0  0.130606  0  0.913793  0  0  0.14386  0  0.972539  0  0  0.146875  0  0.970697  0  0  0.127432  0.141592  0  0.974125  0
H  H17  1  0.48673283  0.52730078  0.34707420  1  0  0.130637  0  0.913836  0  0  0.143896  0  0.972555  0  0  0.146921  0  0.970714  0  0  0.127456  0.14162  0  0.974139  0
H  H18  1  0.90518063  0.13452842  0.87888025  1  0  0.414178  0  0.891652  0  0  0.385007  0  0.953952  0  0  0.396204  0  0.937368  0  0  0.287925  0.377253  0  0.965406  0
H  H19  1  0.09481810  0.86547223  0.12111918  1  0  0.414168  0  0.891662  0  0  0.385002  0  0.953959  0  0  0.396197  0  0.937377  0  0  0.287912  0.377247  0  0.965413  0
H  H20  1  0.87961699  0.96643262  0.92325519  1  0  0.425789  0  0.874328  0  0  0.398318  0  0.932891  0  0  0.409882  0  0.915588  0  0  0.291664  0.390015  0  0.945312  0
H  H21  1  0.12038222  0.03356684  0.07674461  1  0  0.425775  0  0.874351  0  0  0.398304  0  0.932914  0  0  0.409867  0  0.915612  0  0  0.291666  0.390003  0  0.945332  0
H  H22  1  0.93334191  0.36002638  0.61498829  1  0  0.430795  0  0.846136  0  0  0.403246  0  0.910709  0  0  0.413389  0  0.895458  0  0  0.304695  0.395959  0  0.921663  0
H  H23  1  0.06665137  0.63997785  0.38501345  1  0  0.430808  0  0.846084  0  0  0.403271  0  0.910655  0  0  0.413412  0  0.895407  0  0  0.30471  0.395984  0  0.921609  0
H  H24  1  0.94631584  0.34782590  0.47129612  1  0  0.415445  0  0.884067  0  0  0.389273  0  0.940678  0  0  0.399103  0  0.925924  0  0  0.297179  0.382293  0  0.951169  0
H  H25  1  0.05368205  0.65217357  0.52870669  1  0  0.415394  0  0.884125  0  0  0.389221  0  0.940744  0  0  0.399053  0  0.925986  0  0  0.297146  0.382241  0  0.951235  0
H  H26  1  0.62295661  0.77265915  0.55307027  1  0  0.412188  0  0.894884  0  0  0.383329  0  0.957075  0  0  0.3942  0  0.940849  0  0  0.28669  0.375569  0  0.968651  0
H  H27  1  0.37704261  0.22734031  0.44692859  1  0  0.412191  0  0.894891  0  0  0.383334  0  0.957075  0  0  0.394205  0  0.940848  0  0  0.286697  0.375571  0  0.968647  0
H  H28  1  0.75859348  0.75050031  0.65460494  1  0  0.421269  0  0.872611  0  0  0.395225  0  0.929264  0  0  0.405216  0  0.914267  0  0  0.299536  0.388054  0  0.940051  0
H  H29  1  0.24140525  0.24950034  0.34539449  1  0  0.421258  0  0.872624  0  0  0.395209  0  0.929285  0  0  0.4052  0  0.91429  0  0  0.299527  0.388036  0  0.940075  0
C  C30  1  0.15268430  0.70440157  0.71493842  1  0  0.730259  0  3.799917  0  0  0.687978  0  4.09627  0  0  0.72318  0  4.08484  0  0  0.220385  0.664129  0  4.10324  0
C  C31  1  0.84731455  0.29559552  0.28506419  1  0  0.730193  0  3.800125  0  0  0.687923  0  4.096451  0  0  0.723119  0  4.085028  0  0  0.220373  0.664065  0  4.103435  0
C  C32  1  0.31095681  0.59967085  0.81172792  1  0  -0.201812  0  3.630161  0  0  -0.254191  0  3.878502  0  0  -0.256675  0  3.884292  0  0  -0.069843  -0.252441  0  3.874371  0
C  C33  1  0.68904241  0.40032862  0.18827281  1  0  -0.201737  0  3.630114  0  0  -0.254086  0  3.878464  0  0  -0.256564  0  3.884255  0  0  -0.069812  -0.252331  0  3.874334  0
C  C34  1  0.36371269  0.17947743  0.03931148  1  0  0.722047  0  3.812331  0  0  0.680141  0  4.113738  0  0  0.71555  0  4.102248  0  0  0.222166  0.65607  0  4.120635  0
C  C35  1  0.63628603  0.82052323  0.96068795  1  0  0.721958  0  3.81253  0  0  0.680103  0  4.113877  0  0  0.715513  0  4.102385  0  0  0.222113  0.656033  0  4.12077  0
C  C36  1  0.42540657  0.32426171  0.97759668  1  0  -0.198505  0  3.609607  0  0  -0.250562  0  3.858493  0  0  -0.252451  0  3.863176  0  0  -0.071187  -0.249083  0  3.85519  0
C  C37  1  0.57459216  0.67573895  0.02240275  1  0  -0.198473  0  3.609547  0  0  -0.250559  0  3.858486  0  0  -0.252444  0  3.86316  0  0  -0.071158  -0.24908  0  3.855184  0
C  C38  1  0.35793052  0.33232690  0.65744576  1  0  0.703055  0  3.864481  0  0  0.655306  0  4.178263  0  0  0.691125  0  4.166351  0  0  0.19902  0.630925  0  4.185511  0
C  C39  1  0.64207352  0.66767374  0.34255191  1  0  0.70306  0  3.864432  0  0  0.655274  0  4.178256  0  0  0.691106  0  4.166343  0  0  0.198987  0.630882  0  4.185501  0
C  C40  1  0.46233719  0.37891322  0.72979156  1  0  -0.186396  0  3.599703  0  0  -0.237239  0  3.845721  0  0  -0.239816  0  3.852414  0  0  -0.067269  -0.235395  0  3.841013  0
C  C41  1  0.53766685  0.62108742  0.27020705  1  0  -0.186567  0  3.599854  0  0  -0.237275  0  3.845788  0  0  -0.239893  0  3.852529  0  0  -0.067318  -0.235392  0  3.841027  0
N  N42  1  0.34644855  0.43040866  0.84294373  1  0  -0.173871  0  3.297008  0  0  -0.111177  0  3.549934  0  0  -0.129247  0  3.578346  0  0  -0.369239  -0.098397  0  3.529839  0
N  N43  1  0.65355332  0.56959080  0.15705566  1  0  -0.173701  0  3.296734  0  0  -0.111121  0  3.54975  0  0  -0.129176  0  3.578159  0  0  -0.369249  -0.098352  0  3.529646  0
O  O44  1  0.03095940  0.64243529  0.71620488  1  0  -0.715564  0  2.079819  0  0  -0.667833  0  2.317529  0  0  -0.699645  0  2.310741  0  0  -0.355075  -0.64529  0  2.321673  0
O  O45  1  0.96903897  0.35756298  0.28379643  1  0  -0.715545  0  2.079892  0  0  -0.66781  0  2.317584  0  0  -0.699615  0  2.3108  0  0  -0.355062  -0.645266  0  2.321733  0
O  O46  1  0.14147614  0.84412571  0.64177683  1  0  -0.710082  0  1.968896  0  0  -0.66753  0  2.208259  0  0  -0.689865  0  2.196614  0  0  -0.510977  -0.651912  0  2.216221  0
O  O47  1  0.85852175  0.15587375  0.35822691  1  0  -0.710071  0  1.968993  0  0  -0.667538  0  2.208372  0  0  -0.689872  0  2.19673  0  0  -0.51099  -0.651915  0  2.216339  0
O  O48  1  0.21473181  0.19294294  0.99045648  1  0  -0.699436  0  2.068839  0  0  -0.659364  0  2.314636  0  0  -0.691947  0  2.30868  0  0  -0.358389  -0.636071  0  2.317944  0
O  O49  1  0.78526692  0.80705771  0.00954202  1  0  -0.699405  0  2.068839  0  0  -0.659356  0  2.314619  0  0  -0.691933  0  2.308662  0  0  -0.358371  -0.636061  0  2.317916  0
O  O50  1  0.44846672  0.06074065  0.13539228  1  0  -0.664609  0  1.917979  0  0  -0.625608  0  2.149949  0  0  -0.648286  0  2.139799  0  0  -0.42869  -0.609675  0  2.156767  0
O  O51  1  0.55153019  0.93926120  0.86460792  1  0  -0.664564  0  1.918092  0  0  -0.625591  0  2.150067  0  0  -0.648271  0  2.139918  0  0  -0.428666  -0.609661  0  2.156887  0
O  O52  1  0.18708218  0.33933168  0.70204564  1  0  -0.736814  0  2.123818  0  0  -0.705878  0  2.386398  0  0  -0.737774  0  2.379853  0  0  -0.405681  -0.683263  0  2.390291  0
O  O53  1  0.81292465  0.66066539  0.29795387  1  0  -0.736819  0  2.123751  0  0  -0.705879  0  2.386333  0  0  -0.737765  0  2.379771  0  0  -0.405646  -0.683265  0  2.390228  0
O  O54  1  0.44458486  0.28580317  0.56034122  1  0  -0.66354  0  1.95971  0  0  -0.612398  0  2.188567  0  0  -0.63555  0  2.176529  0  0  -0.399908  -0.595987  0  2.196463  0
O  O55  1  0.55541967  0.71419628  0.43965682  1  0  -0.663476  0  1.959733  0  0  -0.612332  0  2.188609  0  0  -0.63548  0  2.176561  0  0  -0.399861  -0.595922  0  2.196517  0
O  O56  1  0.87070879  0.30881154  0.91000236  1  0  -0.497515  0  1.718804  0  0  -0.464902  0  1.969584  0  0  -0.49062  0  1.968512  0  0  -0.362656  -0.446622  0  1.969432  0
O  O57  1  0.12929210  0.69119030  0.08999536  1  0  -0.497559  0  1.718813  0  0  -0.464971  0  1.969617  0  0  -0.490681  0  1.968539  0  0  -0.362677  -0.44669  0  1.969459  0
O  O58  1  0.80861722  0.46761836  0.80263148  1  0  -0.483695  0  1.592553  0  0  -0.467611  0  1.842882  0  0  -0.492084  0  1.842374  0  0  -0.378505  -0.450034  0  1.842682  0
O  O59  1  0.19138682  0.53238228  0.19736339  1  0  -0.483664  0  1.592545  0  0  -0.46759  0  1.842888  0  0  -0.492059  0  1.842376  0  0  -0.378501  -0.450009  0  1.842676  0
O  O60  1  1.00000000  0.49999990  0.00000020  1  0  -1.034289  0  1.66903  0  0  -1.065007  0  1.996305  0  0  -1.12083  0  1.999782  0  0  -0.732501  -1.025752  0  1.993149  0
O  O61  1  0.93550667  0.04230130  0.85147972  1  0  -0.912818  0  1.786871  0  0  -0.870421  0  1.956883  0  0  -0.888903  0  1.923585  0  0  -0.727398  -0.85702  0  1.979977  0
O  O62  1  0.06449338  0.95769935  0.14851951  1  0  -0.912792  0  1.786883  0  0  -0.870401  0  1.956879  0  0  -0.88888  0  1.923588  0  0  -0.727387  -0.857002  0  1.97997  0
O  O63  1  0.91371415  0.29983998  0.56901446  1  0  -0.865927  0  1.780708  0  0  -0.825447  0  1.946997  0  0  -0.841131  0  1.916216  0  0  -0.671159  -0.814258  0  1.968799  0
O  O64  1  0.08627829  0.70016307  0.43098785  1  0  -0.865886  0  1.780711  0  0  -0.825415  0  1.947015  0  0  -0.841095  0  1.916226  0  0  -0.671148  -0.814231  0  1.96882  0
O  O65  1  0.64639955  0.82761776  0.60429271  1  0  -0.902828  0  1.76216  0  0  -0.865127  0  1.920985  0  0  -0.881901  0  1.890103  0  0  -0.669646  -0.853003  0  1.942866  0
O  O66  1  0.35359834  0.17238171  0.39570916  1  0  -0.902813  0  1.76218  0  0  -0.865124  0  1.92103  0  0  -0.881888  0  1.890133  0  0  -0.669641  -0.85299  0  1.94293  0
