# generated using pymatgen
data_ZnH15C20N2O5
_symmetry_space_group_name_H-M   'P 1'
_cell_length_a   8.54831045
_cell_length_b   9.84552912
_cell_length_c   11.50047883
_cell_angle_alpha   72.01247901
_cell_angle_beta   78.21455457
_cell_angle_gamma   70.02050009
_symmetry_Int_Tables_number   1
_chemical_formula_structural   ZnH15C20N2O5
_chemical_formula_sum   'Zn2 H30 C40 N4 O10'
_cell_volume   859.90244862
_cell_formula_units_Z   2
loop_
 _symmetry_equiv_pos_site_id
 _symmetry_equiv_pos_as_xyz
  1  'x, y, z'
loop_
 _atom_site_type_symbol
 _atom_site_label
 _atom_site_symmetry_multiplicity
 _atom_site_fract_x
 _atom_site_fract_y
 _atom_site_fract_z
 _atom_site_occupancy
 _atom_site_pbe_bader_spin_density
 _atom_site_pbe_cm5_charge
 _atom_site_pbe_ddec_charge
 _atom_site_pbe_ddec_spin_density
 _atom_site_pbe_ddec_sum_bond_order
 _atom_site_pbe_magmom
Zn  Zn0  1  0.56574087  0.54952405  0.32817427  1  0  0.707652  0.892197  0  2.336526  0
Zn  Zn1  1  0.43425511  0.45047827  0.67182501  1  0  0.707657  0.892208  0  2.336525  0
H  H2  1  0.10421931  0.82813890  0.62040632  1  0  0.107515  0.124624  0  1.000223  0
H  H3  1  0.89577945  0.17186229  0.37959456  1  0  0.107524  0.12463  0  1.000243  0
H  H4  1  0.60777787  0.95671791  0.51851859  1  0  0.104376  0.117569  0  1.063773  0
H  H5  1  0.39222087  0.04328329  0.48148056  1  0  0.104382  0.117594  0  1.063784  0
H  H6  1  0.01201741  0.64809864  0.35199877  1  0  0.104622  0.114621  0  1.027329  0
H  H7  1  0.98798172  0.35190143  0.64800148  1  0  0.104614  0.114607  0  1.027369  0
H  H8  1  0.66983460  0.03712799  0.66217057  1  0  0.30365  0.366292  0  0.96672  0
H  H9  1  0.33016416  0.96287320  0.33783031  1  0  0.30365  0.366299  0  0.966727  0
H  H10  1  0.60386154  0.15644800  0.32505087  1  0  0.103043  0.156676  0  1.00451  0
H  H11  1  0.39613595  0.84354983  0.67495108  1  0  0.103051  0.156675  0  1.004506  0
H  H12  1  0.42833099  0.21511746  0.24222726  1  0  0.102288  0.151948  0  1.020977  0
H  H13  1  0.57166894  0.78488375  0.75777083  1  0  0.102295  0.151957  0  1.020998  0
H  H14  1  0.43662174  0.31861548  0.34145251  1  0  0.106999  0.165556  0  0.992679  0
H  H15  1  0.56337781  0.68138686  0.65854448  1  0  0.107002  0.16555  0  0.992675  0
H  H16  1  0.76339445  0.71897783  0.08279015  1  0  0.10539  0.121087  0  1.002194  0
H  H17  1  0.23659402  0.28102899  0.91720477  1  0  0.105379  0.121064  0  1.002243  0
H  H18  1  0.90746118  0.76417423  0.86856391  1  0  0.094738  0.096137  0  1.03229  0
H  H19  1  0.09253443  0.23582919  0.13143601  1  0  0.094758  0.096173  0  1.032224  0
H  H20  1  0.94037645  0.59565164  0.73815356  1  0  0.097824  0.100318  0  1.023648  0
H  H21  1  0.05962468  0.40434958  0.26184434  1  0  0.097833  0.100328  0  1.02368  0
H  H22  1  0.82182322  0.38107129  0.81352107  1  0  0.103504  0.115691  0  1.046596  0
H  H23  1  0.17817672  0.61892991  0.18647789  1  0  0.103517  0.115689  0  1.046604  0
H  H24  1  0.60589835  0.23333082  0.93391176  1  0  0.115672  0.101335  0  0.982939  0
H  H25  1  0.39411498  0.76666256  0.06608804  1  0  0.115658  0.10128  0  0.982877  0
H  H26  1  0.57404414  0.13581994  0.09054735  1  0  0.122054  0.115194  0  0.971009  0
H  H27  1  0.42596366  0.86417567  0.90945272  1  0  0.122043  0.115179  0  0.971001  0
H  H28  1  0.86915085  0.05139636  0.20182849  1  0  0.10125  0.10334  0  1.011165  0
H  H29  1  0.13085736  0.94859808  0.79817704  1  0  0.101232  0.103329  0  1.011168  0
H  H30  1  0.83866815  0.10736875  0.81864326  1  0  0.10292  0.110898  0  1.028412  0
H  H31  1  0.16134365  0.89262570  0.18136171  1  0  0.102979  0.111062  0  1.028302  0
C  C32  1  0.26097278  0.66250952  0.45894957  1  0  0.225061  0.606417  0  4.140465  0
C  C33  1  0.73902597  0.33749167  0.54105045  1  0  0.224997  0.606207  0  4.140599  0
C  C34  1  0.07732127  0.73478998  0.48098686  1  0  -0.018075  -0.022723  0  4.00582  0
C  C35  1  0.92267705  0.26520896  0.51901555  1  0  -0.018032  -0.022598  0  4.005854  0
C  C36  1  0.01750141  0.82036510  0.56703782  1  0  -0.091075  -0.203142  0  3.913737  0
C  C37  1  0.98249652  0.17963497  0.43296262  1  0  -0.091139  -0.203255  0  3.913841  0
C  C38  1  0.84732100  0.90045611  0.58089962  1  0  0.082545  0.320079  0  4.092783  0
C  C39  1  0.15267812  0.09954397  0.41910063  1  0  0.082553  0.320143  0  4.092817  0
C  C40  1  0.73925667  0.89298229  0.50808670  1  0  -0.10183  -0.240681  0  3.954463  0
C  C41  1  0.26074050  0.10702003  0.49191240  1  0  -0.101857  -0.240768  0  3.954588  0
C  C42  1  0.79690229  0.79974031  0.42826660  1  0  -0.020268  -0.015207  0  4.006198  0
C  C43  1  0.20309444  0.20025976  0.57173402  1  0  -0.02022  -0.01509  0  4.006153  0
C  C44  1  0.96677592  0.72037875  0.41408267  1  0  -0.089348  -0.135412  0  3.944495  0
C  C45  1  0.03322119  0.27962021  0.58591818  1  0  -0.08935  -0.135462  0  3.944608  0
C  C46  1  0.51124488  0.25492013  0.27565054  1  0  -0.233887  -0.486008  0  3.947211  0
C  C47  1  0.48875700  0.74507884  0.72434870  1  0  -0.233887  -0.485995  0  3.947174  0
C  C48  1  0.59447407  0.34953019  0.17382773  1  0  0.240722  0.381076  0  3.953861  0
C  C49  1  0.40552901  0.65046878  0.82617133  1  0  0.240696  0.381127  0  3.953804  0
C  C50  1  0.71194635  0.52451525  0.06709540  1  0  0.083116  0.142101  0  4.086628  0
C  C51  1  0.28804924  0.47548819  0.93290278  1  0  0.083207  0.142198  0  4.086537  0
C  C52  1  0.73025290  0.43014319  0.99133983  1  0  0.088855  0.087978  0  4.019074  0
C  C53  1  0.26974426  0.56985913  0.00865840  1  0  0.088781  0.08792  0  4.019015  0
C  C54  1  0.77552808  0.64664932  0.02431200  1  0  -0.092936  -0.16279  0  3.988814  0
C  C55  1  0.22446473  0.35335526  0.97568370  1  0  -0.092934  -0.162749  0  3.98884  0
C  C56  1  0.85745953  0.66948726  0.90520389  1  0  -0.096095  -0.087586  0  4.012886  0
C  C57  1  0.14253883  0.33051507  0.09479415  1  0  -0.09612  -0.087657  0  4.012861  0
C  C58  1  0.87517353  0.57415241  0.83061655  1  0  -0.092961  -0.071995  0  3.995805  0
C  C59  1  0.12482482  0.42584992  0.16938062  1  0  -0.09296  -0.071969  0  3.995836  0
C  C60  1  0.81114086  0.45291248  0.87194408  1  0  -0.096725  -0.162156  0  3.98218  0
C  C61  1  0.18885713  0.54709096  0.12805460  1  0  -0.09673  -0.162146  0  3.982141  0
C  C62  1  0.65714737  0.19279976  0.02275169  1  0  -0.041394  -0.095139  0  3.895668  0
C  C63  1  0.34286088  0.80719807  0.97724948  1  0  -0.041326  -0.094954  0  3.895417  0
C  C64  1  0.83366507  0.09005741  0.01158482  1  0  -0.014787  0.079529  0  3.986976  0
C  C65  1  0.16634162  0.90994153  0.98841804  1  0  -0.01478  0.079502  0  3.987208  0
C  C66  1  0.92588701  0.02948287  0.11284754  1  0  -0.089469  -0.120342  0  3.973394  0
C  C67  1  0.07411881  0.97051157  0.88715835  1  0  -0.089496  -0.120421  0  3.973566  0
C  C68  1  0.90866807  0.06007790  0.89856859  1  0  -0.088058  -0.127609  0  3.982035  0
C  C69  1  0.09133931  0.93991545  0.10143475  1  0  -0.088068  -0.127743  0  3.982054  0
C  C70  1  0.67211898  0.78281938  0.36267809  1  0  0.213812  0.597138  0  4.196589  0
C  C71  1  0.32787894  0.21718070  0.63732147  1  0  0.213785  0.597078  0  4.196722  0
N  N72  1  0.62572722  0.47160715  0.17959681  1  0  -0.36458  -0.426584  0  3.502522  0
N  N73  1  0.37426717  0.52839630  0.82040068  1  0  -0.364617  -0.42668  0  3.502574  0
N  N74  1  0.65368276  0.32205423  0.06127145  1  0  -0.237218  -0.073851  0  3.684249  0
N  N75  1  0.34631950  0.67794362  0.93872802  1  0  -0.237236  -0.073963  0  3.684194  0
O  O76  1  0.31797966  0.62789978  0.35603769  1  0  -0.311048  -0.545564  0  2.322634  0
O  O77  1  0.68201513  0.37210253  0.64396265  1  0  -0.311023  -0.54544  0  2.322589  0
O  O78  1  0.35563539  0.64200036  0.53926807  1  0  -0.328514  -0.582056  0  2.374467  0
O  O79  1  0.64436574  0.35800083  0.46073158  1  0  -0.32848  -0.581979  0  2.374527  0
O  O80  1  0.79209208  0.98313947  0.66435404  1  0  -0.35499  -0.467547  0  2.326072  0
O  O81  1  0.20790667  0.01686172  0.33564685  1  0  -0.354973  -0.467553  0  2.326092  0
O  O82  1  0.53892394  0.88707196  0.34030873  1  0  -0.320013  -0.56984  0  2.21391  0
O  O83  1  0.46107435  0.11292702  0.65968932  1  0  -0.320006  -0.56983  0  2.213973  0
O  O84  1  0.71524489  0.65581770  0.33555325  1  0  -0.334343  -0.571555  0  2.360834  0
O  O85  1  0.28475500  0.34418013  0.66444833  1  0  -0.334353  -0.57156  0  2.360866  0
