# generated using pymatgen
data_MoH4C19N(O2F5)2
_symmetry_space_group_name_H-M   'P 1'
_cell_length_a   8.90853180
_cell_length_b   9.84268624
_cell_length_c   11.15653679
_cell_angle_alpha   100.22725377
_cell_angle_beta   94.58914439
_cell_angle_gamma   99.78242129
_symmetry_Int_Tables_number   1
_chemical_formula_structural   MoH4C19N(O2F5)2
_chemical_formula_sum   'Mo2 H8 C38 N2 O8 F20'
_cell_volume   942.56538034
_cell_formula_units_Z   2
loop_
 _symmetry_equiv_pos_site_id
 _symmetry_equiv_pos_as_xyz
  1  'x, y, z'
loop_
 _atom_site_type_symbol
 _atom_site_label
 _atom_site_symmetry_multiplicity
 _atom_site_fract_x
 _atom_site_fract_y
 _atom_site_fract_z
 _atom_site_occupancy
 _atom_site_hle17_bader_spin_density
 _atom_site_hle17_ddec_charge
 _atom_site_hle17_ddec_spin_density
 _atom_site_hle17_ddec_sum_bond_order
 _atom_site_hle17_magmom
 _atom_site_hse06_10hf_bader_spin_density
 _atom_site_hse06_10hf_ddec_charge
 _atom_site_hse06_10hf_ddec_spin_density
 _atom_site_hse06_10hf_ddec_sum_bond_order
 _atom_site_hse06_10hf_magmom
 _atom_site_hse06_bader_spin_density
 _atom_site_hse06_ddec_charge
 _atom_site_hse06_ddec_spin_density
 _atom_site_hse06_ddec_sum_bond_order
 _atom_site_hse06_magmom
 _atom_site_pbe_bader_spin_density
 _atom_site_pbe_cm5_charge
 _atom_site_pbe_ddec_charge
 _atom_site_pbe_ddec_spin_density
 _atom_site_pbe_ddec_sum_bond_order
 _atom_site_pbe_magmom
Mo  Mo0  1  0.94466901  0.58375448  0.47975881  1  0  0.961262  0  3.587016  0  0  0.883494  0  4.186099  0  0  0.916964  0  4.174902  0  0  0.817866  0.859809  0  4.192936  0
Mo  Mo1  1  0.05533660  0.41624296  0.52024165  1  0  0.960987  0  3.587113  0  0  0.883461  0  4.186135  0  0  0.916938  0  4.174934  0  0  0.817861  0.859707  0  4.193053  0
H  H2  1  0.57379338  0.60647621  0.39094212  1  0  0.090083  0  0.937696  0  0  0.094185  0  1.006301  0  0  0.098088  0  1.00195  0  0  0.113192  0.091333  0  1.009386  0
H  H3  1  0.42620328  0.39353280  0.60905518  1  0  0.090049  0  0.937821  0  0  0.094139  0  1.006419  0  0  0.098032  0  1.002072  0  0  0.113184  0.09129  0  1.009493  0
H  H4  1  0.92353191  0.92264376  0.57877794  1  0  0.086464  0  0.928645  0  0  0.093129  0  0.992637  0  0  0.096496  0  0.989426  0  0  0.116754  0.090632  0  0.994978  0
H  H5  1  0.07646771  0.07736314  0.42122010  1  0  0.086378  0  0.928752  0  0  0.093073  0  0.992728  0  0  0.09644  0  0.989516  0  0  0.116733  0.090576  0  0.995066  0
H  H6  1  0.75553642  0.09833967  0.59451782  1  0  0.113922  0  0.946707  0  0  0.125403  0  1.003046  0  0  0.129346  0  1.001008  0  0  0.10819  0.122825  0  1.004226  0
H  H7  1  0.24446000  0.90166815  0.40549182  1  0  0.1139  0  0.946851  0  0  0.125413  0  1.00314  0  0  0.129355  0  1.001106  0  0  0.108211  0.122834  0  1.004325  0
H  H8  1  0.38787421  0.76672155  0.39982069  1  0  0.108775  0  0.961639  0  0  0.118596  0  1.021524  0  0  0.122228  0  1.019934  0  0  0.10342  0.115818  0  1.023175  0
H  H9  1  0.61212152  0.23328845  0.60018119  1  0  0.10876  0  0.961664  0  0  0.118608  0  1.021521  0  0  0.12223  0  1.019942  0  0  0.10342  0.115836  0  1.023168  0
C  C10  1  0.76445841  0.30482592  0.37009523  1  0  0.628164  0  3.823936  0  0  0.574545  0  4.135825  0  0  0.609392  0  4.127541  0  0  0.196152  0.551072  0  4.140961  0
C  C11  1  0.23554084  0.69517353  0.62991142  1  0  0.628039  0  3.824132  0  0  0.574433  0  4.136045  0  0  0.609279  0  4.127769  0  0  0.196088  0.550957  0  4.141192  0
C  C12  1  0.89492462  0.51684040  0.72339482  1  0  0.653915  0  3.811738  0  0  0.599383  0  4.125049  0  0  0.634978  0  4.11503  0  0  0.206044  0.575964  0  4.130089  0
C  C13  1  0.10507424  0.48315707  0.27659983  1  0  0.653829  0  3.811916  0  0  0.599292  0  4.125341  0  0  0.634845  0  4.115312  0  0  0.206007  0.575887  0  4.130373  0
C  C14  1  0.64717438  0.19840131  0.28719852  1  0  -0.226231  0  3.762287  0  0  -0.237142  0  4.042466  0  0  -0.245873  0  4.058074  0  0  -0.031885  -0.231539  0  4.032149  0
C  C15  1  0.35282804  0.80159708  0.71280995  1  0  -0.226148  0  3.762229  0  0  -0.237091  0  4.042532  0  0  -0.245826  0  4.058148  0  0  -0.031921  -0.231491  0  4.032224  0
C  C16  1  0.50003182  0.22399000  0.25401604  1  0  0.241718  0  3.758924  0  0  0.198632  0  4.070303  0  0  0.211035  0  4.078578  0  0  0.100665  0.190126  0  4.065038  0
C  C17  1  0.49996947  0.77600840  0.74599236  1  0  0.241655  0  3.758999  0  0  0.198585  0  4.070455  0  0  0.210988  0  4.078734  0  0  0.100627  0.190077  0  4.065194  0
C  C18  1  0.38781512  0.12166184  0.17910707  1  0  0.104413  0  3.823831  0  0  0.063425  0  4.140072  0  0  0.06889  0  4.147898  0  0  0.079416  0.059279  0  4.135183  0
C  C19  1  0.61219274  0.87833560  0.82089442  1  0  0.104366  0  3.823654  0  0  0.063363  0  4.139987  0  0  0.068827  0  4.147812  0  0  0.079378  0.059218  0  4.135104  0
C  C20  1  0.42145319  0.99080887  0.13142540  1  0  0.140168  0  3.836518  0  0  0.104961  0  4.150279  0  0  0.114682  0  4.158206  0  0  0.08558  0.098267  0  4.145317  0
C  C21  1  0.57855440  0.00919282  0.86857229  1  0  0.140275  0  3.836274  0  0  0.104969  0  4.150203  0  0  0.11469  0  4.158129  0  0  0.085544  0.09827  0  4.145243  0
C  C22  1  0.56729929  0.96352082  0.15933425  1  0  0.097909  0  3.832396  0  0  0.058967  0  4.145953  0  0  0.063931  0  4.154375  0  0  0.075221  0.055196  0  4.140645  0
C  C23  1  0.43270427  0.03647766  0.84066714  1  0  0.097878  0  3.832255  0  0  0.059032  0  4.145779  0  0  0.063995  0  4.154199  0  0  0.075256  0.055271  0  4.140462  0
C  C24  1  0.67738024  0.06526945  0.23696276  1  0  0.239446  0  3.760976  0  0  0.200268  0  4.068327  0  0  0.213292  0  4.074966  0  0  0.099829  0.191363  0  4.063875  0
C  C25  1  0.32262330  0.93472894  0.76304668  1  0  0.239502  0  3.760705  0  0  0.200258  0  4.068201  0  0  0.21328  0  4.07484  0  0  0.099872  0.191349  0  4.063754  0
C  C26  1  0.85976330  0.54485147  0.85344629  1  0  -0.221087  0  3.793084  0  0  -0.233116  0  4.077888  0  0  -0.240011  0  4.093098  0  0  -0.034567  -0.228345  0  4.066462  0
C  C27  1  0.14023562  0.45514071  0.14655198  1  0  -0.220927  0  3.793056  0  0  -0.232989  0  4.077899  0  0  -0.23972  0  4.092908  0  0  -0.03446  -0.228242  0  4.066491  0
C  C28  1  0.94130439  0.66339860  0.93529583  1  0  0.222108  0  3.795953  0  0  0.177887  0  4.11242  0  0  0.189807  0  4.120739  0  0  0.093256  0.171043  0  4.105306  0
C  C29  1  0.05869927  0.33659472  0.06469575  1  0  0.222121  0  3.795715  0  0  0.177921  0  4.112468  0  0  0.189801  0  4.120747  0  0  0.093282  0.17108  0  4.10535  0
C  C30  1  0.90854340  0.69656915  0.05589819  1  0  0.112653  0  3.817756  0  0  0.0707  0  4.138308  0  0  0.077453  0  4.14435  0  0  0.080719  0.066137  0  4.133271  0
C  C31  1  0.09145186  0.30342723  0.94409963  1  0  0.113342  0  3.816474  0  0  0.070535  0  4.138318  0  0  0.077286  0  4.144365  0  0  0.080714  0.065982  0  4.133268  0
C  C32  1  0.79004321  0.60941715  0.09565576  1  0  0.153327  0  3.819216  0  0  0.117777  0  4.13124  0  0  0.127535  0  4.138546  0  0  0.09122  0.111131  0  4.126258  0
C  C33  1  0.20995883  0.39057929  0.90433803  1  0  0.15355  0  3.818517  0  0  0.117955  0  4.130836  0  0  0.127711  0  4.138142  0  0  0.091239  0.111302  0  4.125856  0
C  C34  1  0.70891167  0.48881084  0.01634959  1  0  0.108763  0  3.811199  0  0  0.067333  0  4.128516  0  0  0.07367  0  4.135562  0  0  0.077055  0.062612  0  4.124098  0
C  C35  1  0.29109013  0.51118449  0.98365027  1  0  0.108647  0  3.811414  0  0  0.067293  0  4.12867  0  0  0.073624  0  4.135727  0  0  0.077069  0.062568  0  4.124255  0
C  C36  1  0.74452690  0.45804539  0.89638050  1  0  0.229585  0  3.782093  0  0  0.185152  0  4.096368  0  0  0.196387  0  4.103557  0  0  0.09192  0.177277  0  4.091995  0
C  C37  1  0.25547409  0.54194581  0.10361147  1  0  0.229473  0  3.782236  0  0  0.185139  0  4.096498  0  0  0.196322  0  4.103658  0  0  0.091888  0.177272  0  4.092128  0
C  C38  1  0.60916533  0.71678872  0.43518643  1  0  0.138961  0  3.701309  0  0  0.106937  0  3.967652  0  0  0.114691  0  3.98164  0  0  0.044704  0.101622  0  3.95865  0
C  C39  1  0.39083166  0.28322759  0.56481656  1  0  0.138889  0  3.70108  0  0  0.106886  0  3.967434  0  0  0.114653  0  3.981406  0  0  0.044715  0.101574  0  3.958431  0
C  C40  1  0.80370158  0.89260379  0.53910907  1  0  0.131211  0  3.701696  0  0  0.103193  0  3.962262  0  0  0.110145  0  3.977172  0  0  0.048052  0.098559  0  3.952308  0
C  C41  1  0.19629028  0.10740938  0.46089039  1  0  0.131445  0  3.70142  0  0  0.103334  0  3.962061  0  0  0.110287  0  3.976969  0  0  0.048195  0.098702  0  3.95211  0
C  C42  1  0.70773897  0.99093308  0.54802318  1  0  -0.156559  0  3.701204  0  0  -0.175765  0  3.949857  0  0  -0.183531  0  3.971762  0  0  -0.084769  -0.170689  0  3.935112  0
C  C43  1  0.29225755  0.00906958  0.45197755  1  0  -0.156621  0  3.701021  0  0  -0.175847  0  3.949631  0  0  -0.183615  0  3.971536  0  0  -0.084849  -0.170776  0  3.934899  0
C  C44  1  0.55361429  0.94987465  0.49700622  1  0  0.073677  0  3.781901  0  0  0.088452  0  4.010815  0  0  0.090346  0  4.03735  0  0  0.002628  0.087284  0  3.992958  0
C  C45  1  0.44638003  0.05013955  0.50299715  1  0  0.073585  0  3.782195  0  0  0.088525  0  4.010963  0  0  0.090422  0  4.037499  0  0  0.002608  0.087361  0  3.993104  0
C  C46  1  0.50557387  0.80794588  0.44029328  1  0  -0.165194  0  3.711781  0  0  -0.184134  0  3.962918  0  0  -0.192657  0  3.98568  0  0  -0.089382  -0.178953  0  3.948285  0
C  C47  1  0.49442778  0.19205996  0.55970830  1  0  -0.165064  0  3.711749  0  0  -0.184078  0  3.96284  0  0  -0.192596  0  3.985606  0  0  -0.089375  -0.178903  0  3.948205  0
N  N48  1  0.75667325  0.75756226  0.48315601  1  0  -0.299593  0  3.165703  0  0  -0.252535  0  3.443446  0  0  -0.264139  0  3.455685  0  0  -0.322708  -0.244894  0  3.435244  0
N  N49  1  0.24332504  0.24244361  0.51684088  1  0  -0.299526  0  3.165683  0  0  -0.252405  0  3.443392  0  0  -0.26401  0  3.455629  0  0  -0.322693  -0.244767  0  3.435201  0
O  O50  1  0.75710288  0.43593485  0.38274688  1  0  -0.548844  0  2.175069  0  0  -0.510196  0  2.449993  0  0  -0.535232  0  2.44622  0  0  -0.326173  -0.493137  0  2.452166  0
O  O51  1  0.24290130  0.56406673  0.61725954  1  0  -0.548849  0  2.175234  0  0  -0.510159  0  2.450086  0  0  -0.535195  0  2.446311  0  0  -0.326153  -0.493103  0  2.452297  0
O  O52  1  0.87463557  0.26321102  0.42727996  1  0  -0.552769  0  2.181829  0  0  -0.513012  0  2.462199  0  0  -0.538388  0  2.458503  0  0  -0.333038  -0.495206  0  2.463525  0
O  O53  1  0.12536777  0.73678638  0.57272393  1  0  -0.552678  0  2.18188  0  0  -0.512918  0  2.462281  0  0  -0.538294  0  2.458588  0  0  -0.332968  -0.495116  0  2.463593  0
O  O54  1  0.85669083  0.59699351  0.65319424  1  0  -0.534275  0  2.157023  0  0  -0.498568  0  2.426452  0  0  -0.524093  0  2.423137  0  0  -0.31232  -0.481324  0  2.427863  0
O  O55  1  0.14330944  0.40299976  0.34680070  1  0  -0.534217  0  2.156841  0  0  -0.498512  0  2.426261  0  0  -0.52404  0  2.422964  0  0  -0.312297  -0.481271  0  2.427692  0
O  O56  1  0.96771267  0.41699328  0.68978801  1  0  -0.551101  0  2.136319  0  0  -0.511513  0  2.410704  0  0  -0.537417  0  2.405552  0  0  -0.327166  -0.493428  0  2.412194  0
O  O57  1  0.03228668  0.58300100  0.31021062  1  0  -0.551244  0  2.136663  0  0  -0.511525  0  2.410864  0  0  -0.53743  0  2.40573  0  0  -0.327195  -0.493447  0  2.412334  0
F  F58  1  0.46027393  0.34788064  0.29735919  1  0  -0.144653  0  1.26669  0  0  -0.08707  0  1.427703  0  0  -0.095754  0  1.41849  0  0  -0.070715  -0.080708  0  1.43384  0
F  F59  1  0.53972447  0.65211457  0.70265030  1  0  -0.14468  0  1.266712  0  0  -0.087093  0  1.427736  0  0  -0.095775  0  1.418522  0  0  -0.070711  -0.080727  0  1.433874  0
F  F60  1  0.24647627  0.14700534  0.15233204  1  0  -0.128356  0  1.265624  0  0  -0.080246  0  1.43043  0  0  -0.087542  0  1.4207  0  0  -0.076485  -0.074915  0  1.436952  0
F  F61  1  0.75352820  0.85299207  0.84767192  1  0  -0.128284  0  1.265543  0  0  -0.08018  0  1.430391  0  0  -0.087476  0  1.420662  0  0  -0.076436  -0.074843  0  1.436914  0
F  F62  1  0.31440467  0.89305214  0.05683412  1  0  -0.130627  0  1.282483  0  0  -0.094158  0  1.461157  0  0  -0.101671  0  1.450757  0  0  -0.075948  -0.088428  0  1.468158  0
F  F63  1  0.68560631  0.10694962  0.94315842  1  0  -0.130564  0  1.282264  0  0  -0.094185  0  1.461183  0  0  -0.101696  0  1.450779  0  0  -0.075944  -0.088457  0  1.468185  0
F  F64  1  0.60262610  0.84002000  0.10822577  1  0  -0.142804  0  1.295982  0  0  -0.097412  0  1.470674  0  0  -0.105539  0  1.461863  0  0  -0.081912  -0.091646  0  1.476773  0
F  F65  1  0.39738282  0.15998271  0.89177576  1  0  -0.14291  0  1.295912  0  0  -0.097455  0  1.470566  0  0  -0.105581  0  1.461754  0  0  -0.081942  -0.091691  0  1.476659  0
F  F66  1  0.81590467  0.03143110  0.25836620  1  0  -0.133981  0  1.245749  0  0  -0.094081  0  1.418108  0  0  -0.101819  0  1.407097  0  0  -0.074691  -0.088428  0  1.425433  0
F  F67  1  0.18409486  0.96856413  0.74164246  1  0  -0.133858  0  1.245399  0  0  -0.094074  0  1.417993  0  0  -0.101809  0  1.406983  0  0  -0.074682  -0.088413  0  1.425318  0
F  F68  1  0.05492175  0.74910444  0.89694814  1  0  -0.152681  0  1.240005  0  0  -0.098391  0  1.40005  0  0  -0.11118  0  1.394637  0  0  -0.081495  -0.092429  0  1.40642  0
F  F69  1  0.94507747  0.25088359  0.10304498  1  0  -0.152732  0  1.239812  0  0  -0.098408  0  1.399914  0  0  -0.111227  0  1.394526  0  0  -0.081556  -0.092453  0  1.406281  0
F  F70  1  0.98785642  0.81182138  0.13293836  1  0  -0.127264  0  1.238594  0  0  -0.084471  0  1.399002  0  0  -0.090296  0  1.387343  0  0  -0.081827  -0.08003  0  1.406604  0
F  F71  1  0.01213428  0.18818031  0.86705197  1  0  -0.127592  0  1.238242  0  0  -0.084422  0  1.398889  0  0  -0.090244  0  1.38723  0  0  -0.081845  -0.079983  0  1.406486  0
F  F72  1  0.75121812  0.64262663  0.20920905  1  0  -0.116569  0  1.303028  0  0  -0.080063  0  1.489448  0  0  -0.087822  0  1.478755  0  0  -0.064493  -0.074312  0  1.496407  0
F  F73  1  0.24877919  0.35736875  0.79078426  1  0  -0.116621  0  1.302725  0  0  -0.08012  0  1.4893  0  0  -0.087876  0  1.478605  0  0  -0.064509  -0.074371  0  1.496261  0
F  F74  1  0.59439498  0.40577845  0.05584949  1  0  -0.141208  0  1.270909  0  0  -0.093857  0  1.440222  0  0  -0.101669  0  1.430998  0  0  -0.082515  -0.088127  0  1.446548  0
F  F75  1  0.40560817  0.59421793  0.94415063  1  0  -0.14127  0  1.270905  0  0  -0.093878  0  1.440193  0  0  -0.101688  0  1.43097  0  0  -0.082533  -0.088149  0  1.446522  0
F  F76  1  0.66119341  0.34363499  0.81894879  1  0  -0.162817  0  1.247807  0  0  -0.106777  0  1.410235  0  0  -0.114812  0  1.399812  0  0  -0.079812  -0.100862  0  1.417381  0
F  F77  1  0.33880615  0.65636035  0.18104914  1  0  -0.162798  0  1.247653  0  0  -0.106785  0  1.410069  0  0  -0.114819  0  1.39966  0  0  -0.079804  -0.100862  0  1.41721  0
