# generated using pymatgen
data_NiH14C21N2O7
_symmetry_space_group_name_H-M   'P 1'
_cell_length_a   8.97728418
_cell_length_b   10.66765408
_cell_length_c   11.10386968
_cell_angle_alpha   94.24141722
_cell_angle_beta   112.90124710
_cell_angle_gamma   102.82610103
_symmetry_Int_Tables_number   1
_chemical_formula_structural   NiH14C21N2O7
_chemical_formula_sum   'Ni2 H28 C42 N4 O14'
_cell_volume   939.77597495
_cell_formula_units_Z   2
loop_
 _symmetry_equiv_pos_site_id
 _symmetry_equiv_pos_as_xyz
  1  'x, y, z'
loop_
 _atom_site_type_symbol
 _atom_site_label
 _atom_site_symmetry_multiplicity
 _atom_site_fract_x
 _atom_site_fract_y
 _atom_site_fract_z
 _atom_site_occupancy
 _atom_site_hle17_ddec_charge
 _atom_site_hle17_ddec_spin_density
 _atom_site_hle17_ddec_sum_bond_order
 _atom_site_hle17_magmom
 _atom_site_hse06_10hf_ddec_charge
 _atom_site_hse06_10hf_ddec_spin_density
 _atom_site_hse06_10hf_ddec_sum_bond_order
 _atom_site_hse06_10hf_magmom
 _atom_site_hse06_ddec_charge
 _atom_site_hse06_ddec_spin_density
 _atom_site_hse06_ddec_sum_bond_order
 _atom_site_hse06_magmom
 _atom_site_pbe_cm5_charge
 _atom_site_pbe_ddec_charge
 _atom_site_pbe_ddec_spin_density
 _atom_site_pbe_ddec_sum_bond_order
 _atom_site_pbe_magmom
Ni  Ni0  1  0.63956712  0.98347664  0.66114567  1  0.827192  0.022075  2.081641  0.02  0.827762  2.4e-05  2.50479  0.0  0.931976  -0.005041  2.411397  -0.006  0.630616  0.755158  0.015514  2.570251  0.012
Ni  Ni1  1  0.36042804  0.01651818  0.33885763  1  0.827273  0.022079  2.081884  0.02  0.827895  4.4e-05  2.505053  0.0  0.932045  -0.005028  2.411705  -0.006  0.630657  0.755268  -0.015523  2.570517  -0.012
H  H2  1  0.99819732  0.27864000  0.63412343  1  0.414602  -4.6e-05  0.889676  0.0  0.383416  -6.6e-05  0.960238  0.0  0.39571  -4.4e-05  0.942382  0.0  0.306878  0.374745  -9.4e-05  0.972809  0.0
H  H3  1  0.00180366  0.72134271  0.36590754  1  0.414804  -4.6e-05  0.889569  0.0  0.383636  -6.5e-05  0.960001  0.0  0.395924  -4.4e-05  0.942149  0.0  0.30694  0.374956  9.4e-05  0.972595  0.0
H  H4  1  0.40597567  0.63406852  0.69340264  1  0.109461  -4.5e-05  0.958117  0.0  0.116332  -0.000116  1.024867  0.0  0.120601  -6.8e-05  1.020708  0.0  0.109784  0.113169  -0.000203  1.0281  0.0
H  H5  1  0.59402097  0.36592437  0.30659463  1  0.10942  -4.6e-05  0.958294  0.0  0.116319  -0.000115  1.02501  0.0  0.120588  -6.8e-05  1.020849  0.0  0.109762  0.113152  0.000203  1.028248  0.0
H  H6  1  0.36899785  0.22366254  0.62436755  1  0.121205  4.7e-05  0.93919  0.0  0.128075  -1.9e-05  1.004413  0.0  0.13215  -1e-05  1.000887  0.0  0.11129  0.12508  -3.8e-05  1.006958  0.0
H  H7  1  0.63100328  0.77631572  0.37564143  1  0.121243  4.7e-05  0.939071  0.0  0.127979  -1.8e-05  1.004441  0.0  0.132052  -1e-05  1.000911  0.0  0.111275  0.124984  3.8e-05  1.006988  0.0
H  H8  1  0.80546670  0.50772984  0.64429514  1  0.121369  3e-05  0.936549  0.0  0.125218  -2.2e-05  1.006493  0.0  0.129964  -1e-05  1.001475  0.0  0.112408  0.12187  -6e-06  1.009968  0.0
H  H9  1  0.19453492  0.49226866  0.35570690  1  0.121411  2.9e-05  0.936515  0.0  0.125212  -2.2e-05  1.006512  0.0  0.12996  -1e-05  1.001494  0.0  0.112394  0.121866  6e-06  1.009985  0.0
H  H10  1  0.28652989  0.83067409  0.59173005  1  0.096818  0.001332  0.951071  0.002  0.103318  0.001213  1.013596  0.002  0.104709  0.000991  1.011616  0.001  0.126349  0.101976  0.001531  1.015846  0.002
H  H11  1  0.71348184  0.16930361  0.40827674  1  0.096805  0.001328  0.951174  0.002  0.10339  0.001211  1.013558  0.002  0.104779  0.00099  1.011584  0.001  0.12638  0.102044  -0.00153  1.015813  -0.002
H  H12  1  0.08156004  0.83581519  0.69154327  1  0.131816  0.000248  0.974912  0.0  0.141878  0.000255  1.028812  0.0  0.145378  0.000201  1.027191  0.0  0.115296  0.13918  0.000288  1.030379  0.0
H  H13  1  0.91844738  0.16417196  0.30845768  1  0.13188  0.00025  0.974883  0.0  0.141954  0.000255  1.028746  0.0  0.145447  0.000201  1.027136  0.0  0.115319  0.139256  -0.000288  1.030314  0.0
H  H14  1  0.15822456  0.01158768  0.88486377  1  0.098457  0.000152  0.93413  0.0  0.110765  3.3e-05  0.992071  0.0  0.11286  1.3e-05  0.99078  0.0  0.109532  0.109145  7.2e-05  0.993457  0.0
H  H15  1  0.84177409  0.98841551  0.11511888  1  0.098391  0.000149  0.934186  0.0  0.110702  3.3e-05  0.992113  0.0  0.112799  1.3e-05  0.99082  0.0  0.10951  0.109077  -7.2e-05  0.993493  0.0
H  H16  1  0.37927490  0.20987777  0.05230213  1  0.107733  0.000284  0.942018  0.0  0.118345  0.000213  1.002278  0.0  0.12114  0.000154  1.001577  0.0  0.105017  0.116265  0.000231  1.002814  0.0
H  H17  1  0.62070666  0.79012997  0.94769819  1  0.107862  0.000282  0.942094  0.0  0.118449  0.000213  1.002355  0.0  0.121241  0.000154  1.001656  0.0  0.105069  0.116369  -0.000231  1.002893  0.0
H  H18  1  0.66853118  0.35872274  0.14186917  1  0.109713  0.000128  0.995383  0.0  0.118814  6.1e-05  1.057867  0.0  0.121853  3.5e-05  1.056618  0.0  0.105115  0.116487  0.000105  1.058829  0.0
H  H19  1  0.33144082  0.64131028  0.85810717  1  0.10966  0.00013  0.995447  0.0  0.118683  6.1e-05  1.058028  0.0  0.121753  3.5e-05  1.056737  0.0  0.105092  0.116357  -0.000105  1.058987  0.0
H  H20  1  0.95374658  0.41923794  0.14061951  1  0.118369  5e-05  0.933907  0.0  0.128153  -3e-05  0.994789  0.0  0.131348  -2.4e-05  0.99188  0.0  0.115778  0.125612  1e-05  0.997336  0.0
H  H21  1  0.04623743  0.58078078  0.85937810  1  0.118192  5.1e-05  0.933908  0.0  0.127921  -3e-05  0.994872  0.0  0.131111  -2.4e-05  0.991962  0.0  0.115719  0.125381  -1e-05  0.997417  0.0
H  H22  1  0.14758106  0.36729066  0.04195305  1  0.104348  0.000271  0.943435  0.0  0.116732  0.000214  0.997354  0.0  0.119732  0.000152  0.997551  0.0  0.108687  0.114374  0.000256  0.997635  0.0
H  H23  1  0.85242234  0.63273882  0.95805158  1  0.10422  0.000269  0.943705  0.0  0.116698  0.000215  0.997524  0.0  0.119694  0.000152  0.997723  0.0  0.108662  0.11434  -0.000256  0.997804  0.0
H  H24  1  0.03778006  0.17779901  0.85613096  1  0.066362  0.000674  0.94745  0.001  0.074188  0.000489  1.015008  0.001  0.076795  0.000331  1.011782  0.0  0.112581  0.071937  0.000642  1.01791  0.001
H  H25  1  0.96223242  0.82221247  0.14388918  1  0.066393  0.000674  0.947544  0.001  0.074221  0.000488  1.015056  0.001  0.076834  0.000331  1.011819  0.0  0.112563  0.071963  -0.000642  1.017966  -0.001
H  H26  1  0.83945274  0.89162808  0.61675633  1  0.408839  -0.000199  0.903944  -0.001  0.376077  2.8e-05  0.976945  0.0  0.389257  -1.7e-05  0.958536  0.0  0.288604  0.366911  3.4e-05  0.989647  0.0
H  H27  1  0.16055822  0.10835878  0.38324749  1  0.4087  -0.000198  0.904233  -0.001  0.376077  2.8e-05  0.976947  0.0  0.389243  -1.7e-05  0.958557  0.0  0.288562  0.366908  -3.4e-05  0.98965  0.0
H  H28  1  0.90322298  0.04997057  0.62058775  1  0.417547  -0.000689  0.828946  -0.001  0.3989  -0.000282  0.892416  0.0  0.408139  -0.000252  0.883402  0.0  0.318969  0.392577  -0.000372  0.898279  0.0
H  H29  1  0.09679472  0.95002570  0.37942625  1  0.417608  -0.000691  0.82888  -0.001  0.398987  -0.000282  0.892328  0.0  0.408228  -0.000253  0.883304  0.0  0.318986  0.392661  0.000372  0.898193  0.0
C  C30  1  0.61804897  0.58690668  0.67480570  1  -0.087505  -0.004867  3.774899  -0.004  -0.061256  -0.002887  4.011752  -0.002  -0.073604  -0.002081  4.036077  -0.002  -0.021758  -0.053222  -0.004044  3.995943  -0.003
C  C31  1  0.38194299  0.41307881  0.32517680  1  -0.087406  -0.004883  3.774639  -0.004  -0.061185  -0.002887  4.011464  -0.002  -0.073531  -0.00208  4.035793  -0.002  -0.02183  -0.053187  0.004043  3.9957  0.003
C  C32  1  0.46156184  0.55612025  0.68069482  1  -0.047997  -0.003811  3.68495  -0.003  -0.085819  -0.002462  3.929127  -0.002  -0.07962  -0.001689  3.94558  -0.001  -0.068531  -0.089635  -0.00259  3.918196  -0.002
C  C33  1  0.53842863  0.44386758  0.31927843  1  -0.047963  -0.003789  3.685037  -0.003  -0.085829  -0.002463  3.929208  -0.002  -0.07963  -0.001691  3.945661  -0.001  -0.068501  -0.089634  0.002591  3.91829  0.002
C  C34  1  0.37127988  0.42641589  0.66392231  1  -0.086963  0.001516  3.769758  0.001  -0.060626  0.000568  4.006273  0.001  -0.072897  0.000535  4.03035  0.001  -0.018793  -0.052638  0.000477  3.989798  0.0
C  C35  1  0.62872478  0.57356244  0.33607605  1  -0.087073  0.001493  3.769959  0.001  -0.060714  0.000568  4.006416  0.001  -0.072984  0.000536  4.030491  0.001  -0.018764  -0.052723  -0.000477  3.989938  0.0
C  C36  1  0.43874806  0.32546425  0.64090479  1  -0.032096  -0.00321  3.643643  -0.002  -0.075699  -0.002012  3.899127  -0.002  -0.068629  -0.001468  3.915065  -0.001  -0.067868  -0.080136  -0.001441  3.888683  -0.001
C  C37  1  0.56125129  0.67451830  0.35909774  1  -0.032069  -0.003182  3.643457  -0.002  -0.075571  -0.002012  3.898935  -0.002  -0.068494  -0.001468  3.914863  -0.001  -0.067963  -0.080008  0.001442  3.888495  0.001
C  C38  1  0.59589836  0.35556255  0.63540214  1  -0.082362  -0.002425  3.737896  -0.002  -0.057057  -0.000972  3.976792  -0.001  -0.06994  -0.000488  4.000894  0.0  -0.020646  -0.048724  -0.002049  3.961305  -0.001
C  C39  1  0.40410292  0.64444611  0.36459626  1  -0.082235  -0.002445  3.737568  -0.002  -0.056898  -0.00097  3.97641  -0.001  -0.069773  -0.000485  4.000503  0.0  -0.020515  -0.048567  0.002047  3.960928  0.001
C  C40  1  0.68538309  0.48606638  0.65217082  1  -0.040941  -0.00155  3.657158  -0.001  -0.079875  -0.001604  3.90765  -0.001  -0.074417  -0.001154  3.92522  -0.001  -0.063777  -0.083326  -0.003477  3.895943  -0.003
C  C41  1  0.31462399  0.51393081  0.34783098  1  -0.041102  -0.00153  3.656768  -0.001  -0.080009  -0.001606  3.907296  -0.001  -0.074544  -0.001156  3.924849  -0.001  -0.063728  -0.083449  0.003478  3.895601  0.003
C  C42  1  0.70261083  0.72679095  0.68083677  1  0.636473  0.000574  3.888783  0.002  0.59173  -0.001098  4.185741  0.0  0.628944  -0.000818  4.181666  0.0  0.212075  0.565266  -0.001079  4.187907  0.0
C  C43  1  0.29738891  0.27320073  0.31916134  1  0.636336  0.000573  3.889008  0.002  0.591705  -0.001099  4.185794  0.0  0.628916  -0.000819  4.181722  0.0  0.21212  0.565249  0.001079  4.187959  0.0
C  C44  1  0.20228103  0.40461998  0.66582409  1  0.651355  -8.3e-05  3.811209  0.0  0.607812  -2.1e-05  4.098879  0.0  0.64055  -1.3e-05  4.091014  0.0  0.23037  0.585594  6e-06  4.103587  0.0
C  C45  1  0.79772532  0.59537803  0.33418657  1  0.651402  -8e-05  3.81128  0.0  0.60788  -2.1e-05  4.098915  0.0  0.640619  -1.3e-05  4.091043  0.0  0.230297  0.585667  -6e-06  4.103614  0.0
C  C46  1  0.66993174  0.24871733  0.61053088  1  0.653577  -0.005172  3.882658  -0.002  0.607828  -0.00661  4.182458  -0.004  0.645937  -0.004675  4.175843  -0.003  0.21356  0.580383  -0.008873  4.186684  -0.006
C  C47  1  0.33006972  0.75128619  0.38947158  1  0.653774  -0.005176  3.882751  -0.002  0.607958  -0.006615  4.182641  -0.004  0.64606  -0.004678  4.176029  -0.003  0.213544  0.580516  0.008877  4.186874  0.006
C  C48  1  0.31887041  0.90293466  0.67879001  1  0.167054  -0.003639  3.614708  -0.004  0.135079  0.000271  3.875057  -0.001  0.148014  -0.000562  3.889552  -0.002  0.068256  0.124875  0.000773  3.86725  -0.001
C  C49  1  0.68114034  0.09706544  0.32120780  1  0.166899  -0.003592  3.614654  -0.004  0.134931  0.000272  3.874928  -0.001  0.147865  -0.000561  3.889421  -0.002  0.068167  0.124728  -0.000774  3.86712  0.001
C  C50  1  0.20295343  0.90880943  0.73344208  1  -0.116397  0.005506  3.703921  0.005  -0.129162  0.00323  3.953926  0.003  -0.135291  0.002998  3.971632  0.003  -0.080196  -0.125569  0.003338  3.943923  0.003
C  C51  1  0.79705260  0.09119097  0.26655429  1  -0.116493  0.005453  3.703839  0.005  -0.129289  0.003229  3.953841  0.003  -0.135415  0.002997  3.971557  0.003  -0.080209  -0.125696  -0.003336  3.943838  -0.003
C  C52  1  0.24613417  0.00577937  0.84036843  1  -0.055225  -0.003998  3.696949  -0.003  -0.083329  -0.00131  3.954793  -0.001  -0.079955  -0.001591  3.97146  -0.001  -0.067944  -0.086639  -0.001175  3.944955  -0.001
C  C53  1  0.75386911  0.99421211  0.15962985  1  -0.054997  -0.003944  3.696728  -0.003  -0.083125  -0.001311  3.954496  -0.001  -0.07975  -0.001591  3.971158  -0.001  -0.067927  -0.086421  0.001174  3.944652  0.001
C  C54  1  0.40749865  0.09543632  0.89553439  1  0.028582  0.002452  3.800499  0.002  0.042419  0.00117  4.036667  0.001  0.039889  0.001166  4.060874  0.001  -0.000206  0.044207  0.001278  4.020548  0.001
C  C55  1  0.59249129  0.90457407  0.10446156  1  0.028398  0.002415  3.800571  0.002  0.042387  0.00117  4.036584  0.001  0.039863  0.001167  4.060775  0.001  -0.000134  0.044165  -0.001277  4.020488  -0.001
C  C56  1  0.46439775  0.19906123  0.00627609  1  -0.098469  0.000204  3.72597  0.0  -0.121307  0.000268  3.981652  0.0  -0.124557  9.1e-05  4.004814  0.0  -0.084583  -0.119141  0.000377  3.965874  0.0
C  C57  1  0.53559760  0.80095610  0.99371138  1  -0.098628  0.000242  3.725793  0.0  -0.121441  0.000268  3.981393  0.0  -0.124691  8.6e-05  4.004556  0.0  -0.084662  -0.119275  -0.000376  3.965627  0.0
C  C58  1  0.62380806  0.28058797  0.05670657  1  -0.099407  0.000668  3.728116  0.001  -0.12068  0.000201  3.975425  0.0  -0.124389  0.000338  3.99905  0.0  -0.083438  -0.117998  0.00023  3.959435  0.0
C  C59  1  0.37616931  0.71943255  0.94327475  1  -0.099364  0.000629  3.727918  0.001  -0.120615  0.000201  3.975319  0.0  -0.124346  0.000342  3.998924  0.0  -0.083425  -0.11793  -0.00023  3.959327  0.0
C  C60  1  0.74178454  0.26165879  0.00444218  1  0.030319  0.000865  3.781478  0.001  0.048568  0.000186  4.007505  0.0  0.045599  4.3e-05  4.031822  0.0  0.001661  0.050411  0.00034  3.991728  0.0
C  C61  1  0.25820020  0.73835918  0.99554388  1  0.030486  0.000895  3.781506  0.001  0.048725  0.000187  4.007566  0.0  0.045755  4.2e-05  4.031888  0.0  0.001706  0.050565  -0.00034  3.99179  0.0
C  C62  1  0.91041389  0.33902804  0.05750756  1  -0.032576  -0.002462  3.645003  -0.002  -0.057634  -0.000869  3.890418  -0.001  -0.053033  -0.000721  3.906423  -0.001  -0.055393  -0.061518  -0.000749  3.880706  -0.001
C  C63  1  0.08957169  0.66100002  0.94247521  1  -0.032307  -0.002502  3.644582  -0.002  -0.057305  -0.00087  3.890017  -0.001  -0.052697  -0.000718  3.906015  -0.001  -0.055255  -0.06119  0.000749  3.880312  0.001
C  C64  1  0.01685762  0.30963924  0.00376601  1  -0.112881  0.00311  3.726417  0.003  -0.126425  0.001452  3.978594  0.001  -0.133984  0.001099  3.998635  0.001  -0.081801  -0.121633  0.001797  3.966089  0.002
C  C65  1  0.98314276  0.69037529  0.99624077  1  -0.112743  0.003146  3.726574  0.003  -0.126404  0.001452  3.978776  0.001  -0.133959  0.001095  3.998808  0.001  -0.081718  -0.121614  -0.001796  3.966272  -0.002
C  C66  1  0.95547455  0.20247839  0.89947974  1  0.146149  -0.002116  3.712867  -0.002  0.117458  -0.000256  3.977837  -0.001  0.127849  -0.000379  3.993369  -0.001  0.052905  0.110067  0.000152  3.968465  -0.001
C  C67  1  0.04452439  0.79752998  0.10053502  1  0.145904  -0.002148  3.712775  -0.002  0.117243  -0.000255  3.977761  -0.001  0.127636  -0.000375  3.993283  -0.001  0.052698  0.109856  -0.000151  3.968392  0.001
C  C68  1  0.69094852  0.15751091  0.89739059  1  0.124845  0.000389  3.7653  0.0  0.12128  0.00102  4.007104  0.001  0.125855  0.000821  4.029639  0.001  0.114641  0.117821  0.001068  3.993024  0.001
C  C69  1  0.30905245  0.84250008  0.10259622  1  0.124893  0.000357  3.765293  0.0  0.121385  0.001022  4.007093  0.001  0.125957  0.000823  4.029624  0.001  0.11461  0.117927  -0.001069  3.993013  -0.001
C  C70  1  0.52003126  0.07780777  0.83882807  1  0.123733  -0.000887  3.729242  -0.001  0.11877  0.000377  3.967896  0.0  0.124064  -0.000221  3.9918  -0.001  0.120416  0.114839  0.000594  3.952005  0.0
C  C71  1  0.47996426  0.92220423  0.16117067  1  0.123736  -0.00085  3.729423  -0.001  0.118617  0.000377  3.968205  0.0  0.123911  -0.000222  3.99211  -0.001  0.120326  0.114688  -0.000594  3.952314  0.0
N  N72  1  0.47248750  0.98493734  0.73055688  1  -0.262877  0.046737  3.347221  0.047  -0.226835  0.034936  3.638076  0.034  -0.262184  0.030532  3.660732  0.029  -0.324208  -0.202698  0.037434  3.623104  0.036
N  N73  1  0.52751195  0.01505603  0.26945391  1  -0.262732  0.046696  3.34703  0.047  -0.226713  0.034931  3.637955  0.034  -0.262049  0.030529  3.660602  0.029  -0.324172  -0.20257  -0.037428  3.622973  -0.036
N  N74  1  0.79767170  0.12742525  0.84774390  1  -0.337837  0.035188  3.255662  0.037  -0.308309  0.020823  3.545819  0.022  -0.332175  0.016419  3.561059  0.017  -0.315513  -0.293586  0.024009  3.537392  0.024
N  N75  1  0.20233709  0.87258392  0.15225687  1  -0.337836  0.035215  3.255341  0.037  -0.308309  0.020819  3.545452  0.022  -0.332165  0.016412  3.560687  0.017  -0.315399  -0.293583  -0.024009  3.537015  -0.024
O  O76  1  0.63261908  0.81030715  0.70993522  1  -0.606971  -0.058061  2.135258  -0.061  -0.58319  -0.036303  2.426318  -0.038  -0.628325  -0.029047  2.416924  -0.031  -0.315287  -0.548  -0.042549  2.430684  -0.045
O  O77  1  0.36737717  0.18967669  0.29006287  1  -0.607026  -0.058064  2.13525  -0.061  -0.583307  -0.036305  2.426321  -0.038  -0.628445  -0.029048  2.41694  -0.031  -0.315374  -0.548109  0.042553  2.430671  0.045
O  O78  1  0.80539190  0.97428382  0.58648809  1  -0.758749  0.026056  1.998361  0.026  -0.732407  0.022854  2.228574  0.022  -0.767899  0.020149  2.197  0.019  -0.552827  -0.705593  0.024266  2.24912  0.023
O  O79  1  0.19462639  0.02570865  0.41351582  1  -0.758632  0.026064  1.998762  0.026  -0.732425  0.022861  2.228733  0.022  -0.767904  0.020154  2.197185  0.019  -0.552727  -0.705601  -0.024271  2.249288  -0.023
O  O80  1  0.57139026  0.13141454  0.57571530  1  -0.614699  -0.052035  2.161983  -0.054  -0.593743  -0.02964  2.466584  -0.03  -0.640375  -0.023686  2.455887  -0.024  -0.308707  -0.557799  -0.040631  2.473454  -0.04
O  O81  1  0.42860456  0.86859033  0.42428884  1  -0.614836  -0.052016  2.162169  -0.054  -0.593833  -0.02963  2.466773  -0.03  -0.640463  -0.02368  2.456083  -0.024  -0.308771  -0.55787  0.040619  2.473606  0.04
O  O82  1  0.82925190  0.75419046  0.65367318  1  -0.599522  0.001509  2.000632  0.001  -0.54684  0.000838  2.219014  0.001  -0.572847  0.000904  2.210956  0.001  -0.307268  -0.528016  0.001058  2.223998  0.001
O  O83  1  0.17075754  0.24580648  0.34633293  1  -0.599382  0.001509  2.000797  0.001  -0.546838  0.000838  2.21915  0.001  -0.572819  0.000904  2.211058  0.001  -0.307263  -0.528015  -0.001059  2.224129  -0.001
O  O84  1  0.82058316  0.27866505  0.62594124  1  -0.629569  -0.005014  2.033907  -0.005  -0.581236  -0.004298  2.267179  -0.005  -0.606523  -0.003052  2.256669  -0.003  -0.312043  -0.562572  -0.009588  2.273792  -0.01
O  O85  1  0.17943420  0.72134094  0.37408619  1  -0.629694  -0.005018  2.033864  -0.005  -0.581339  -0.004301  2.267127  -0.005  -0.606625  -0.003055  2.256633  -0.003  -0.311952  -0.562675  0.009593  2.273748  0.01
O  O86  1  0.11313133  0.27879819  0.63798783  1  -0.569057  5e-06  2.040683  0.0  -0.521683  2.6e-05  2.241939  0.0  -0.542109  3.3e-05  2.222808  0.0  -0.348242  -0.507424  -0.000123  2.254897  0.0
O  O87  1  0.88688945  0.72116946  0.36203792  1  -0.569086  5e-06  2.041352  0.0  -0.521723  2.6e-05  2.242364  0.0  -0.54216  3.3e-05  2.223276  0.0  -0.34813  -0.507466  0.000123  2.255322  0.0
O  O88  1  0.14899098  0.49567101  0.69071174  1  -0.543847  0.000231  1.915772  0.0  -0.505833  0.000117  2.121794  0.0  -0.525588  0.000101  2.113299  0.0  -0.291792  -0.492114  0.000116  2.127362  0.0
O  O89  1  0.85101054  0.50431682  0.30927574  1  -0.544053  0.000227  1.915179  0.0  -0.506054  0.000117  2.121203  0.0  -0.525806  0.000101  2.112707  0.0  -0.291906  -0.492332  -0.000116  2.126767  0.0
