# generated using pymatgen
data_ZnH8C19(NO3)2
_symmetry_space_group_name_H-M   'P 1'
_cell_length_a   5.62109754
_cell_length_b   18.95414526
_cell_length_c   25.46336629
_cell_angle_alpha   90.00000094
_cell_angle_beta   90.00001627
_cell_angle_gamma   95.41458177
_symmetry_Int_Tables_number   1
_chemical_formula_structural   ZnH8C19(NO3)2
_chemical_formula_sum   'Zn4 H32 C76 N8 O24'
_cell_volume   2700.84074836
_cell_formula_units_Z   4
loop_
 _symmetry_equiv_pos_site_id
 _symmetry_equiv_pos_as_xyz
  1  'x, y, z'
loop_
 _atom_site_type_symbol
 _atom_site_label
 _atom_site_symmetry_multiplicity
 _atom_site_fract_x
 _atom_site_fract_y
 _atom_site_fract_z
 _atom_site_occupancy
 _atom_site_pbe_bader_charge
 _atom_site_pbe_bader_spin_density
 _atom_site_pbe_cm5_charge
 _atom_site_pbe_ddec_charge
 _atom_site_pbe_ddec_spin_density
 _atom_site_pbe_ddec_sum_bond_order
 _atom_site_pbe_magmom
Zn  Zn0  1  0.10269746  0.55989391  0.53301948  1  1.305184  0  0.690656  0.852318  0  2.342756  0
Zn  Zn1  1  0.89730163  0.94010531  0.03301963  1  1.305221  0  0.69065  0.852342  0  2.342732  0
Zn  Zn2  1  0.89730201  0.44010595  0.46698071  1  1.30534  0  0.690652  0.852334  0  2.342731  0
Zn  Zn3  1  0.10269768  0.05989402  0.96698056  1  1.305201  0  0.690654  0.852293  0  2.342752  0
H  H4  1  0.46287784  0.91689173  0.10443044  1  0.175927  0  0.121057  0.106895  0  1.029238  0
H  H5  1  0.53712169  0.58310855  0.60443071  1  0.175933  0  0.121045  0.10686  0  1.029308  0
H  H6  1  0.53712181  0.08310866  0.89556896  1  0.17594  0  0.121046  0.106884  0  1.029284  0
H  H7  1  0.46287779  0.41689131  0.39556947  1  0.17594  0  0.121046  0.106868  0  1.029293  0
H  H8  1  0.37262501  0.84824208  0.18768494  1  0.13932  0  0.121757  0.144932  0  0.980845  0
H  H9  1  0.62737607  0.65175715  0.68768522  1  0.139312  0  0.121749  0.144927  0  0.980831  0
H  H10  1  0.62737447  0.15175778  0.81231485  1  0.139317  0  0.121741  0.144916  0  0.980863  0
H  H11  1  0.37262713  0.34824324  0.31231457  1  0.139317  0  0.121747  0.144911  0  0.980874  0
H  H12  1  0.01022818  0.74256816  0.16010727  1  0.151682  0  0.117433  0.146891  0  1.018781  0
H  H13  1  0.98977498  0.75743213  0.66010718  1  0.151688  0  0.117437  0.146894  0  1.01878  0
H  H14  1  0.98977308  0.25743170  0.83989291  1  0.15168  0  0.117445  0.146912  0  1.018773  0
H  H15  1  0.01022644  0.24256826  0.33989300  1  0.151682  0  0.117458  0.146905  0  1.018773  0
H  H16  1  0.07498413  0.81565394  0.07799755  1  0.123158  0  0.126668  0.104724  0  0.987518  0
H  H17  1  0.92501520  0.68434582  0.57799745  1  0.123159  0  0.12667  0.104738  0  0.98751  0
H  H18  1  0.92501535  0.18434592  0.92200263  1  0.123163  0  0.126677  0.104755  0  0.987503  0
H  H19  1  0.07498606  0.31565404  0.42200273  1  0.123152  0  0.126651  0.104705  0  0.98751  0
H  H20  1  0.11285462  0.59912120  0.25188069  1  0.087841  0  0.114407  0.117574  0  0.98004  0
H  H21  1  0.88714672  0.90087856  0.75188098  1  0.087793  0  0.114413  0.117582  0  0.980018  0
H  H22  1  0.88714681  0.40087919  0.74811910  1  0.088073  0  0.114401  0.117556  0  0.980045  0
H  H23  1  0.11285437  0.09912077  0.24811920  1  0.087782  0  0.114401  0.11756  0  0.980042  0
H  H24  1  0.05267134  0.52893355  0.33548785  1  0.10601  0  0.1127  0.123677  0  0.982633  0
H  H25  1  0.94732815  0.97106569  0.83548815  1  0.106015  0  0.112721  0.123719  0  0.982618  0
H  H26  1  0.94732797  0.47106578  0.66451194  1  0.106013  0  0.112719  0.123717  0  0.982623  0
H  H27  1  0.05267133  0.02893417  0.16451203  1  0.106014  0  0.112704  0.123679  0  0.982634  0
H  H28  1  0.04686091  0.70806770  0.43624947  1  0.113141  0  0.114094  0.126445  0  0.98301  0
H  H29  1  0.95313889  0.79193207  0.93624938  1  0.11312  0  0.114099  0.126458  0  0.982996  0
H  H30  1  0.95313857  0.29193216  0.56375071  1  0.113121  0  0.114099  0.126454  0  0.982999  0
H  H31  1  0.04686076  0.20806832  0.06375080  1  0.113129  0  0.114097  0.126449  0  0.983013  0
H  H32  1  0.08678842  0.78232923  0.35432315  1  0.120152  0  0.114729  0.118312  0  0.980152  0
H  H33  1  0.91321110  0.71767001  0.85432305  1  0.120135  0  0.114756  0.118364  0  0.980074  0
H  H34  1  0.91321301  0.21767116  0.64567703  1  0.12016  0  0.114733  0.11832  0  0.98015  0
H  H35  1  0.08678821  0.28232932  0.14567674  1  0.120146  0  0.114723  0.118293  0  0.980168  0
C  C36  1  0.57920749  0.87777359  0.11819296  1  0.442063  0  0.055985  0.11026  0  3.890011  0
C  C37  1  0.42079384  0.62222670  0.61819322  1  0.442043  0  0.056027  0.110306  0  3.890099  0
C  C38  1  0.42079216  0.12222680  0.88180683  1  0.441907  0  0.055997  0.110229  0  3.890141  0
C  C39  1  0.57920920  0.37777316  0.38180696  1  0.442061  0  0.056021  0.110322  0  3.890125  0
C  C40  1  0.52952135  0.83962586  0.16425482  1  0.01958  0  -0.070347  -0.193451  0  3.907575  0
C  C41  1  0.47047809  0.66037390  0.66425469  1  0.019591  0  -0.07034  -0.193477  0  3.90767  0
C  C42  1  0.47047813  0.16037400  0.83574497  1  0.019716  0  -0.070356  -0.193477  0  3.907625  0
C  C43  1  0.52952156  0.33962649  0.33574510  1  0.019581  0  -0.070349  -0.193475  0  3.907629  0
C  C44  1  0.68716705  0.79113360  0.17987216  1  0.267385  0  0.115101  0.244824  0  3.999418  0
C  C45  1  0.31283596  0.70886616  0.67987242  1  0.267368  0  0.115061  0.244825  0  3.999419  0
C  C46  1  0.31283226  0.20886573  0.82012763  1  0.267396  0  0.115141  0.244904  0  3.999331  0
C  C47  1  0.68716707  0.29113370  0.32012777  1  0.267403  0  0.115163  0.244906  0  3.999346  0
C  C48  1  0.88455223  0.78027502  0.14877848  1  0.059055  0  -0.073457  -0.195712  0  3.910549  0
C  C49  1  0.11544719  0.71972474  0.64877833  1  0.059081  0  -0.073451  -0.195691  0  3.910474  0
C  C50  1  0.11544547  0.21972484  0.85122131  1  0.059052  0  -0.073498  -0.195763  0  3.910613  0
C  C51  1  0.88455407  0.28027512  0.35122146  1  0.059056  0  -0.073509  -0.195706  0  3.910597  0
C  C52  1  0.92165745  0.82063338  0.10351384  1  0.460802  0  0.056941  0.110409  0  3.907104  0
C  C53  1  0.07834369  0.67936638  0.60351369  1  0.460805  0  0.056926  0.110335  0  3.907153  0
C  C54  1  0.07834381  0.17936648  0.89648595  1  0.460812  0  0.056922  0.11031  0  3.907206  0
C  C55  1  0.92165579  0.32063348  0.39648649  1  0.460822  0  0.056957  0.110383  0  3.907174  0
C  C56  1  0.45001811  0.70214509  0.23148198  1  1.32941  0  0.247063  0.454716  0  4.087949  0
C  C57  1  0.54998159  0.79785520  0.73148147  1  1.329411  0  0.247043  0.454735  0  4.088045  0
C  C58  1  0.54998332  0.29785530  0.76851860  1  1.32967  0  0.247025  0.454703  0  4.088065  0
C  C59  1  0.45001806  0.20214519  0.26851871  1  1.329421  0  0.24705  0.454749  0  4.088018  0
C  C60  1  0.42303902  0.66113379  0.28062984  1  -0.017925  0  -0.015866  -0.088819  0  4.023488  0
C  C61  1  0.57696058  0.83886597  0.78062972  1  -0.017927  0  -0.015891  -0.088891  0  4.023551  0
C  C62  1  0.57696063  0.33886660  0.71937034  1  -0.017923  0  -0.01587  -0.088863  0  4.023543  0
C  C63  1  0.42303874  0.16113336  0.21937046  1  -0.017921  0  -0.015875  -0.088879  0  4.023542  0
C  C64  1  0.58742115  0.67406228  0.32264314  1  0.019269  0  0.005019  0.035581  0  3.982475  0
C  C65  1  0.41257688  0.82593802  0.82264302  1  0.01928  0  0.005012  0.035549  0  3.982405  0
C  C66  1  0.41257866  0.32593864  0.67735704  1  0.019272  0  0.004982  0.035535  0  3.982316  0
C  C67  1  0.58742260  0.17406184  0.17735717  1  0.019281  0  0.005005  0.035562  0  3.982376  0
C  C68  1  0.78183921  0.72722233  0.31757391  1  -0.040897  0  -0.016799  -0.090711  0  4.025548  0
C  C69  1  0.21815704  0.77277797  0.81757377  1  -0.040898  0  -0.016831  -0.090708  0  4.025503  0
C  C70  1  0.21816061  0.27277860  0.68242628  1  -0.040868  0  -0.016786  -0.090681  0  4.025436  0
C  C71  1  0.78184066  0.22722189  0.18242642  1  -0.040903  0  -0.016805  -0.090714  0  4.025526  0
C  C72  1  0.82221201  0.76765735  0.26838717  1  1.336538  0  0.246179  0.453001  0  4.083886  0
C  C73  1  0.17778773  0.73234294  0.76838702  1  1.336534  0  0.246191  0.453026  0  4.083855  0
C  C74  1  0.17778586  0.23234304  0.73161301  1  1.3365  0  0.246132  0.452975  0  4.083921  0
C  C75  1  0.82220997  0.26765692  0.23161316  1  1.336524  0  0.246204  0.45306  0  4.083823  0
C  C76  1  0.23564448  0.60832526  0.28480603  1  -0.029135  0  -0.066333  -0.059763  0  3.959461  0
C  C77  1  0.76435495  0.89167398  0.78480632  1  -0.029111  0  -0.066319  -0.059731  0  3.959418  0
C  C78  1  0.76435678  0.39167460  0.71519415  1  -0.02938  0  -0.066318  -0.059711  0  3.959464  0
C  C79  1  0.23564453  0.10832588  0.21519426  1  -0.029087  0  -0.066326  -0.059719  0  3.959481  0
C  C80  1  0.20382962  0.56889193  0.33119071  1  -0.008864  0  -0.076529  -0.094848  0  3.957578  0
C  C81  1  0.79617181  0.93110784  0.83119060  1  -0.008841  0  -0.076548  -0.094889  0  3.957516  0
C  C82  1  0.79617163  0.43110794  0.66880908  1  -0.008864  0  -0.076554  -0.094891  0  3.957562  0
C  C83  1  0.20382945  0.06889202  0.16880919  1  -0.008861  0  -0.076525  -0.094842  0  3.957542  0
C  C84  1  0.35722269  0.58150197  0.37367252  1  0.002098  0  0.006619  -0.034465  0  3.889274  0
C  C85  1  0.64277702  0.91849780  0.87367241  1  0.002117  0  0.006584  -0.034483  0  3.889239  0
C  C86  1  0.64277679  0.41849789  0.62632727  1  0.002096  0  0.0066  -0.034479  0  3.889261  0
C  C87  1  0.35722051  0.08150153  0.12632738  1  0.002097  0  0.006634  -0.034463  0  3.889157  0
C  C88  1  0.55887162  0.63289049  0.36991341  1  -0.014092  0  0.007942  0.038429  0  3.917717  0
C  C89  1  0.44112809  0.86710928  0.86991367  1  -0.014097  0  0.007926  0.038394  0  3.917762  0
C  C90  1  0.44112981  0.36710990  0.63008638  1  -0.013609  0  0.007917  0.038423  0  3.917651  0
C  C91  1  0.55887300  0.13289005  0.13008651  1  -0.014089  0  0.007887  0.038352  0  3.917646  0
C  C92  1  0.73517565  0.64515163  0.41006325  1  -0.001297  0  0.007826  -0.031499  0  3.87192  0
C  C93  1  0.26482394  0.85484761  0.91006311  1  -0.001284  0  0.007857  -0.031424  0  3.871889  0
C  C94  1  0.26482561  0.35484823  0.58993694  1  -0.001817  0  0.007859  -0.031484  0  3.871892  0
C  C95  1  0.73517537  0.14515172  0.08993746  1  -0.001303  0  0.007858  -0.031465  0  3.871943  0
C  C96  1  0.91567350  0.70011590  0.40482789  1  -0.004459  0  -0.07678  -0.096369  0  3.953114  0
C  C97  1  0.08432609  0.79988334  0.90482813  1  -0.004442  0  -0.076796  -0.096407  0  3.953028  0
C  C98  1  0.08432598  0.29988396  0.59517190  1  -0.004444  0  -0.076797  -0.096387  0  3.953105  0
C  C99  1  0.91567322  0.20011599  0.09517205  1  -0.004438  0  -0.076782  -0.096378  0  3.953108  0
C  C100  1  0.93974928  0.74105475  0.35895886  1  -0.02764  0  -0.06533  -0.05809  0  3.954963  0
C  C101  1  0.06025025  0.75894449  0.85895871  1  -0.027668  0  -0.065328  -0.058114  0  3.954859  0
C  C102  1  0.06025198  0.25894511  0.64104133  1  -0.027639  0  -0.065322  -0.058082  0  3.954949  0
C  C103  1  0.93974923  0.24105537  0.14104148  1  -0.027641  0  -0.06531  -0.058041  0  3.954973  0
C  C104  1  0.27615023  0.54506986  0.42388544  1  1.600549  0  0.217162  0.591431  0  4.192841  0
C  C105  1  0.72384972  0.95493045  0.92388573  1  1.60056  0  0.21709  0.59138  0  4.192796  0
C  C106  1  0.72385120  0.45493053  0.57611435  1  1.60056  0  0.217052  0.591266  0  4.192892  0
C  C107  1  0.27614993  0.04506994  0.07611445  1  1.600544  0  0.217094  0.591412  0  4.192748  0
C  C108  1  0.76907535  0.59404864  0.45418192  1  1.609857  0  0.21526  0.597742  0  4.186889  0
C  C109  1  0.23092447  0.90595114  0.95418218  1  1.609878  0  0.21531  0.597747  0  4.18692  0
C  C110  1  0.23092396  0.40595069  0.54581747  1  1.609906  0  0.215235  0.597694  0  4.186923  0
C  C111  1  0.76907518  0.09404925  0.04581800  1  1.609873  0  0.215255  0.597693  0  4.186956  0
N  N112  1  0.77375217  0.86903184  0.08883510  1  -1.244512  0  -0.326446  -0.219677  0  3.534994  0
N  N113  1  0.22624911  0.63096845  0.58883496  1  -1.244554  0  -0.326456  -0.21963  0  3.534974  0
N  N114  1  0.22624925  0.13096856  0.91116469  1  -1.244556  0  -0.326414  -0.219553  0  3.53499  0
N  N115  1  0.77375053  0.36903194  0.41116483  1  -1.24458  0  -0.3265  -0.219725  0  3.535074  0
N  N116  1  0.65015592  0.75277796  0.22826992  1  -1.182418  0  -0.229367  -0.227343  0  3.558773  0
N  N117  1  0.34984538  0.74722180  0.72826979  1  -1.18242  0  -0.229356  -0.227355  0  3.558814  0
N  N118  1  0.34984550  0.24722243  0.77172987  1  -1.182645  0  -0.229349  -0.227332  0  3.558777  0
N  N119  1  0.65015410  0.25277806  0.27173000  1  -1.182433  0  -0.229371  -0.227395  0  3.558809  0
O  O120  1  0.28748010  0.58318153  0.46523269  1  -1.162351  0  -0.303663  -0.532024  0  2.348348  0
O  O121  1  0.71251973  0.91681825  0.96523258  1  -1.162357  0  -0.303599  -0.531949  0  2.34831  0
O  O122  1  0.71251938  0.41681834  0.53476750  1  -1.162354  0  -0.303647  -0.531975  0  2.348374  0
O  O123  1  0.28747958  0.08318108  0.03476721  1  -1.162358  0  -0.303604  -0.531933  0  2.348287  0
O  O124  1  0.18183825  0.48191879  0.41988793  1  -1.17889  0  -0.30797  -0.549094  0  2.3738  0
O  O125  1  0.81816138  0.01808118  0.91988783  1  -1.178893  0  -0.307967  -0.549112  0  2.373796  0
O  O126  1  0.81816317  0.51808160  0.58011186  1  -1.178906  0  -0.307853  -0.548954  0  2.373799  0
O  O127  1  0.18183632  0.98191868  0.08011196  1  -1.178893  0  -0.307952  -0.549114  0  2.373776  0
O  O128  1  0.74040839  0.52851869  0.44147268  1  -1.163076  0  -0.31013  -0.555344  0  2.350156  0
O  O129  1  0.25959124  0.97148056  0.94147255  1  -1.163004  0  -0.310125  -0.555294  0  2.350132  0
O  O130  1  0.25959270  0.47148064  0.55852711  1  -1.162993  0  -0.310103  -0.555301  0  2.350154  0
O  O131  1  0.74040824  0.02851931  0.05852724  1  -1.162992  0  -0.310107  -0.555291  0  2.350147  0
O  O132  1  0.84997922  0.61938811  0.49725596  1  -1.170776  0  -0.31436  -0.542775  0  2.311601  0
O  O133  1  0.15002244  0.88061167  0.99725621  1  -1.170797  0  -0.314413  -0.542857  0  2.311685  0
O  O134  1  0.15002187  0.38061122  0.50274383  1  -1.170817  0  -0.314381  -0.54277  0  2.311587  0
O  O135  1  0.84997721  0.11938872  0.00274397  1  -1.17079  0  -0.314379  -0.542779  0  2.311601  0
O  O136  1  0.31239937  0.69270972  0.19388443  1  -1.116158  0  -0.277712  -0.455031  0  2.124623  0
O  O137  1  0.68760011  0.80729004  0.69388472  1  -1.116168  0  -0.277699  -0.455032  0  2.124707  0
O  O138  1  0.68760011  0.30729014  0.80611575  1  -1.116189  0  -0.277691  -0.455031  0  2.124679  0
O  O139  1  0.31239937  0.19270982  0.30611547  1  -1.11619  0  -0.277716  -0.455046  0  2.124692  0
O  O140  1  0.99275756  0.81239123  0.26127303  1  -1.106594  0  -0.283481  -0.453137  0  2.085399  0
O  O141  1  0.00724040  0.68760907  0.76127248  1  -1.1066  0  -0.283474  -0.453151  0  2.085385  0
O  O142  1  0.00724099  0.18761128  0.73872637  1  -1.106581  0  -0.283443  -0.453121  0  2.085501  0
O  O143  1  0.99275747  0.31239133  0.23872691  1  -1.106574  0  -0.283494  -0.453159  0  2.08536  0
