# generated using pymatgen
data_ZnH8C18S2N3O10
_symmetry_space_group_name_H-M   'P 1'
_cell_length_a   9.89279829
_cell_length_b   10.86280639
_cell_length_c   19.54303133
_cell_angle_alpha   96.80335043
_cell_angle_beta   90.13654182
_cell_angle_gamma   89.88236353
_symmetry_Int_Tables_number   1
_chemical_formula_structural   ZnH8C18S2N3O10
_chemical_formula_sum   'Zn2 H16 C36 S4 N6 O20'
_cell_volume   2085.36620800
_cell_formula_units_Z   2
loop_
 _symmetry_equiv_pos_site_id
 _symmetry_equiv_pos_as_xyz
  1  'x, y, z'
loop_
 _atom_site_type_symbol
 _atom_site_label
 _atom_site_symmetry_multiplicity
 _atom_site_fract_x
 _atom_site_fract_y
 _atom_site_fract_z
 _atom_site_occupancy
 _atom_site_pbe_bader_charge
 _atom_site_pbe_bader_spin_density
 _atom_site_pbe_cm5_charge
 _atom_site_pbe_ddec_charge
 _atom_site_pbe_ddec_spin_density
 _atom_site_pbe_ddec_sum_bond_order
 _atom_site_pbe_magmom
Zn  Zn0  1  0.35249458  0.50042469  0.50002427  1  1.278974  0  0.682719  0.839088  0  2.347433  0
Zn  Zn1  1  0.63429648  0.49949712  0.50015389  1  1.325147  0  0.695949  0.853606  0  2.40133  0
H  H2  1  0.69733640  0.49540644  0.28873017  1  0.100828  0  0.105259  0.107755  0  1.003837  0
H  H3  1  0.26459592  0.48988947  0.72025555  1  0.097111  0  0.102416  0.103243  0  1.008016  0
H  H4  1  0.69897900  0.48115343  0.71051659  1  0.099119  0  0.10619  0.10914  0  0.996797  0
H  H5  1  0.26412418  0.52583822  0.28015166  1  0.089323  0  0.10317  0.10412  0  1.003062  0
H  H6  1  0.70954679  0.49639285  0.16187220  1  0.056239  0  0.106035  0.105343  0  0.995667  0
H  H7  1  0.27533060  0.49276849  0.84724818  1  0.103  0  0.105572  0.105429  0  0.997516  0
H  H8  1  0.71060260  0.48273871  0.83775385  1  0.064072  0  0.106126  0.106203  0  0.994781  0
H  H9  1  0.27503286  0.52335109  0.15336293  1  0.064507  0  0.105541  0.104994  0  0.998442  0
H  H10  1  0.33875509  0.64308576  0.06893604  1  0.060657  0  0.104996  0.104278  0  0.997842  0
H  H11  1  0.65985371  0.36261499  0.93125570  1  0.06629  0  0.105307  0.105042  0  0.99549  0
H  H12  1  0.33900163  0.63311087  0.94215713  1  0.062097  0  0.104883  0.104107  0  0.997107  0
H  H13  1  0.65907631  0.37193194  0.05809184  1  0.065551  0  0.104775  0.103433  0  0.998472  0
H  H14  1  0.95137714  0.83632085  0.49326365  1  0.695047  0  0.330997  0.405674  0  0.877869  0
H  H15  1  0.31026223  0.31727774  0.59805889  1  0.672382  0  0.309866  0.380948  0  0.949115  0
H  H16  1  0.95114221  0.16231630  0.50631851  1  0.677906  0  0.331366  0.40545  0  0.876627  0
H  H17  1  0.31027949  0.68332913  0.40187555  1  0.676842  0  0.310111  0.38139  0  0.949145  0
C  C18  1  0.50347408  0.12997636  0.51084785  1  0.047387  0  0.009199  -0.015002  0  3.886309  0
C  C19  1  0.50344961  0.86980779  0.48924481  1  0.046104  0  0.009815  -0.014265  0  3.885336  0
C  C20  1  0.40757970  0.57957330  0.03883797  1  -0.069016  0  -0.088169  -0.12406  0  3.996729  0
C  C21  1  0.59047230  0.42564024  0.96136579  1  -0.05312  0  -0.087588  -0.124207  0  3.98844  0
C  C22  1  0.40764953  0.57400538  0.96747342  1  -0.012085  0  -0.087829  -0.124156  0  3.995524  0
C  C23  1  0.59013708  0.43099178  0.03289040  1  -0.001733  0  -0.08736  -0.122885  0  3.987632  0
C  C24  1  0.49814773  0.49603745  0.92730703  1  -0.05032  0  -0.006712  0.061814  0  4.008969  0
C  C25  1  0.49779136  0.50717611  0.07293561  1  -0.056651  0  -0.006501  0.061029  0  4.007968  0
C  C26  1  0.50728418  0.73482333  0.49911948  1  1.621191  0  0.222888  0.59273  0  4.163384  0
C  C27  1  0.50728167  0.26494478  0.50100618  1  1.622676  0  0.222984  0.593839  0  4.163559  0
C  C28  1  0.47614871  0.49069113  0.63243541  1  1.509493  0  0.229919  0.617614  0  4.089018  0
C  C29  1  0.47520913  0.50777045  0.36763394  1  1.506494  0  0.228974  0.61553  0  4.090164  0
C  C30  1  0.62633770  0.93567456  0.49027246  1  -0.030866  0  0.013176  -0.072733  0  3.821682  0
C  C31  1  0.38032523  0.06508428  0.50719003  1  -0.02709  0  0.015086  -0.067571  0  3.80112  0
C  C32  1  0.62639307  0.06372048  0.50982923  1  -0.097959  0  0.01385  -0.07138  0  3.820869  0
C  C33  1  0.38028462  0.93512232  0.49285328  1  -0.100083  0  0.015417  -0.066909  0  3.800357  0
C  C34  1  0.60553556  0.50142486  0.25850779  1  -0.030472  0  -0.071918  -0.05637  0  3.949752  0
C  C35  1  0.36189869  0.48815555  0.74624242  1  0.017716  0  -0.078868  -0.069339  0  3.974531  0
C  C36  1  0.60687768  0.48318898  0.74098940  1  0.026386  0  -0.072206  -0.056434  0  3.951184  0
C  C37  1  0.36146523  0.52065421  0.25409428  1  -0.044509  0  -0.077276  -0.067322  0  3.97286  0
C  C38  1  0.61162229  0.50114294  0.18756814  1  0.008567  0  -0.083724  -0.130284  0  3.963232  0
C  C39  1  0.36837716  0.49089778  0.81735478  1  -0.105706  0  -0.084971  -0.130218  0  3.968528  0
C  C40  1  0.61272246  0.48336322  0.81198871  1  -0.057338  0  -0.082792  -0.130303  0  3.962636  0
C  C41  1  0.36804929  0.51976087  0.18309060  1  -0.063893  0  -0.085146  -0.130593  0  3.967135  0
C  C42  1  0.49296354  0.50975358  0.14847791  1  0.039415  0  0.006805  0.089472  0  3.984612  0
C  C43  1  0.49365966  0.48932737  0.85154093  1  0.032462  0  0.006802  0.088686  0  3.9876  0
C  C44  1  0.92154498  0.43014781  0.45072329  1  0.676974  0  0.188552  0.185504  0  3.939274  0
C  C45  1  0.06510817  0.56794027  0.55019457  1  0.578691  0  0.186309  0.186401  0  3.942487  0
C  C46  1  0.92138972  0.56951887  0.54943122  1  0.772989  0  0.188849  0.185161  0  3.940077  0
C  C47  1  0.06520448  0.43284939  0.44970708  1  0.581815  0  0.186884  0.186909  0  3.942377  0
C  C48  1  0.48026583  0.51084374  0.29245315  1  -0.012859  0  -0.021412  -0.054206  0  3.980593  0
C  C49  1  0.48130633  0.48613436  0.70752958  1  -0.063141  0  -0.020664  -0.054004  0  3.982842  0
C  C50  1  0.85304084  0.35231671  0.39796433  1  0.9454  0  0.198864  0.197477  0  3.937999  0
C  C51  1  0.13411297  0.63860888  0.60564745  1  0.934599  0  0.198375  0.202207  0  3.94468  0
C  C52  1  0.85262953  0.64671889  0.60231919  1  0.860333  0  0.197713  0.196822  0  3.938603  0
C  C53  1  0.13426205  0.36290909  0.39407528  1  0.933942  0  0.196989  0.2012  0  3.946973  0
S  S54  1  0.77123226  0.87454695  0.43795287  1  3.126296  0  0.545771  1.160751  0  5.971796  0
S  S55  1  0.22656569  0.13842406  0.54675990  1  3.129175  0  0.550079  1.163596  0  5.963051  0
S  S56  1  0.77199150  0.12436200  0.56193149  1  3.1207  0  0.546743  1.159753  0  5.971118  0
S  S57  1  0.22631164  0.86240135  0.45309926  1  3.13863  0  0.549498  1.161665  0  5.964023  0
N  N58  1  0.13481987  0.50062966  0.49990917  1  -1.12139  0  -0.254301  -0.197643  0  3.375038  0
N  N59  1  0.85170697  0.49954551  0.50013340  1  -1.154562  0  -0.247305  -0.18165  0  3.350921  0
N  N60  1  0.80670496  0.28683566  0.35228792  1  -0.954196  0  -0.211488  -0.194365  0  2.605308  0
N  N61  1  0.18090222  0.69669177  0.65396529  1  -0.971567  0  -0.215916  -0.201033  0  2.605645  0
N  N62  1  0.80587265  0.71173608  0.64802745  1  -0.956925  0  -0.211788  -0.193906  0  2.601266  0
N  N63  1  0.18117818  0.30546830  0.34563406  1  -0.968306  0  -0.215836  -0.200954  0  2.603934  0
O  O64  1  0.39708810  0.68739635  0.51669835  1  -1.154209  0  -0.306418  -0.545164  0  2.389976  0
O  O65  1  0.62212012  0.31607656  0.50477748  1  -1.140452  0  -0.295332  -0.508561  0  2.434345  0
O  O66  1  0.39698735  0.31309627  0.48359060  1  -1.153655  0  -0.305937  -0.545825  0  2.389536  0
O  O67  1  0.62192509  0.68291690  0.49526510  1  -1.141186  0  -0.294768  -0.507855  0  2.432232  0
O  O68  1  0.36212890  0.46333461  0.60037509  1  -1.183629  0  -0.321318  -0.588211  0  2.386161  0
O  O69  1  0.57999482  0.47574192  0.39836091  1  -1.162731  0  -0.300371  -0.534644  0  2.377164  0
O  O70  1  0.36187689  0.53761775  0.39967225  1  -1.184482  0  -0.321461  -0.588266  0  2.388059  0
O  O71  1  0.58128452  0.52178301  0.60203400  1  -1.164692  0  -0.300236  -0.534677  0  2.375258  0
O  O72  1  0.71143128  0.79541932  0.38217993  1  -1.266  0  -0.298428  -0.490464  0  2.123206  0
O  O73  1  0.84514482  0.98307391  0.42440935  1  -1.279295  0  -0.302341  -0.524888  0  2.198485  0
O  O74  1  0.86677114  0.79107922  0.47908478  1  -1.258533  0  -0.356936  -0.543004  0  2.307632  0
O  O75  1  0.14193733  0.20585679  0.50336015  1  -1.299992  0  -0.307745  -0.554886  0  2.278564  0
O  O76  1  0.16728267  0.03947538  0.57887387  1  -1.260851  0  -0.291468  -0.492572  0  2.170416  0
O  O77  1  0.28903612  0.22906380  0.60716853  1  -1.260453  0  -0.346108  -0.511531  0  2.245347  0
O  O78  1  0.71297063  0.20353768  0.61788283  1  -1.268682  0  -0.297967  -0.49086  0  2.126659  0
O  O79  1  0.84628909  0.01559192  0.57526234  1  -1.278918  0  -0.30293  -0.52516  0  2.199524  0
O  O80  1  0.86674443  0.20772050  0.52072512  1  -1.236483  0  -0.356585  -0.541235  0  2.307806  0
O  O81  1  0.14182574  0.79523824  0.49638509  1  -1.305487  0  -0.307478  -0.553923  0  2.280477  0
O  O82  1  0.16693675  0.96159256  0.42093393  1  -1.266592  0  -0.291028  -0.491569  0  2.169353  0
O  O83  1  0.28855095  0.77159771  0.39276184  1  -1.262413  0  -0.346193  -0.512316  0  2.247438  0
