# generated using pymatgen
data_PrH13C16O11
_symmetry_space_group_name_H-M   'P 1'
_cell_length_a   6.80221033
_cell_length_b   10.90576364
_cell_length_c   11.59935210
_cell_angle_alpha   94.35364521
_cell_angle_beta   100.37080002
_cell_angle_gamma   95.80903284
_symmetry_Int_Tables_number   1
_chemical_formula_structural   PrH13C16O11
_chemical_formula_sum   'Pr2 H26 C32 O22'
_cell_volume   838.16959490
_cell_formula_units_Z   2
loop_
 _symmetry_equiv_pos_site_id
 _symmetry_equiv_pos_as_xyz
  1  'x, y, z'
loop_
 _atom_site_type_symbol
 _atom_site_label
 _atom_site_symmetry_multiplicity
 _atom_site_fract_x
 _atom_site_fract_y
 _atom_site_fract_z
 _atom_site_occupancy
 _atom_site_hle17_bader_spin_density
 _atom_site_hle17_ddec_charge
 _atom_site_hle17_ddec_spin_density
 _atom_site_hle17_ddec_sum_bond_order
 _atom_site_hle17_magmom
 _atom_site_hse06_10hf_bader_spin_density
 _atom_site_hse06_10hf_ddec_charge
 _atom_site_hse06_10hf_ddec_spin_density
 _atom_site_hse06_10hf_ddec_sum_bond_order
 _atom_site_hse06_10hf_magmom
 _atom_site_hse06_bader_spin_density
 _atom_site_hse06_ddec_charge
 _atom_site_hse06_ddec_spin_density
 _atom_site_hse06_ddec_sum_bond_order
 _atom_site_hse06_magmom
 _atom_site_pbe_bader_spin_density
 _atom_site_pbe_cm5_charge
 _atom_site_pbe_ddec_charge
 _atom_site_pbe_ddec_spin_density
 _atom_site_pbe_ddec_sum_bond_order
 _atom_site_pbe_magmom
Pr  Pr0  1  0.08846726  0.26335945  0.00484824  1  0  2.294831  0  1.570692  0  0  2.126819  0  2.030172  0  0  2.216292  0  1.89203  0  0  1.469648  2.096543  0  2.063968  0
Pr  Pr1  1  0.91153278  0.73663905  0.99515201  1  0  2.29483  0  1.570678  0  0  2.126841  0  2.030094  0  0  2.216283  0  1.892002  0  0  1.469629  2.096553  0  2.063885  0
H  H2  1  0.77181997  0.70947116  0.65437144  1  0  0.414072  0  0.871733  0  0  0.383435  0  0.948986  0  0  0.39624  0  0.934458  0  0  0.309207  0.374621  0  0.958405  0
H  H3  1  0.22818065  0.29053012  0.34562820  1  0  0.414072  0  0.871727  0  0  0.383444  0  0.94897  0  0  0.396248  0  0.934446  0  0  0.3092  0.374634  0  0.958385  0
H  H4  1  0.51285750  0.24037392  0.89784838  1  0  0.457331  0  0.835164  0  0  0.428489  0  0.892452  0  0  0.439748  0  0.876286  0  0  0.304118  0.420826  0  0.9034  0
H  H5  1  0.48713959  0.75962460  0.10214896  1  0  0.457315  0  0.83519  0  0  0.428473  0  0.892477  0  0  0.439733  0  0.87631  0  0  0.30412  0.420811  0  0.903424  0
H  H6  1  0.33146219  0.31023926  0.83918529  1  0  0.423646  0  0.859927  0  0  0.399838  0  0.919913  0  0  0.408885  0  0.906665  0  0  0.308757  0.393468  0  0.929264  0
H  H7  1  0.66852983  0.68975650  0.16081303  1  0  0.423637  0  0.859996  0  0  0.399827  0  0.919949  0  0  0.408874  0  0.906701  0  0  0.308738  0.393451  0  0.92931  0
H  H8  1  0.26807737  0.52562430  0.06325666  1  0  0.439528  0  0.84463  0  0  0.411935  0  0.905829  0  0  0.421931  0  0.891282  0  0  0.312542  0.404615  0  0.91673  0
H  H9  1  0.73192266  0.47437420  0.93674445  1  0  0.439526  0  0.844605  0  0  0.411937  0  0.905817  0  0  0.421929  0  0.891276  0  0  0.312547  0.404615  0  0.91672  0
H  H10  1  0.31168254  0.47140452  0.18799552  1  0  0.443385  0  0.85249  0  0  0.412307  0  0.916334  0  0  0.423106  0  0.900728  0  0  0.300167  0.404662  0  0.927484  0
H  H11  1  0.68831767  0.52859491  0.81200654  1  0  0.443473  0  0.852375  0  0  0.412362  0  0.916279  0  0  0.423163  0  0.90067  0  0  0.30017  0.404716  0  0.927432  0
H  H12  1  0.77078031  0.03883530  0.02304747  1  0  0.446207  0  0.841754  0  0  0.41919  0  0.898165  0  0  0.429404  0  0.883304  0  0  0.312219  0.411938  0  0.908876  0
H  H13  1  0.22921548  0.96116415  0.97694979  1  0  0.446226  0  0.841731  0  0  0.419209  0  0.898144  0  0  0.429422  0  0.883282  0  0  0.31223  0.41195  0  0.908862  0
H  H14  1  0.93845582  0.03963484  0.13350218  1  0  0.445161  0  0.845113  0  0  0.41792  0  0.90241  0  0  0.427916  0  0.887958  0  0  0.309826  0.410761  0  0.91295  0
H  H15  1  0.06154014  0.96036554  0.86649603  1  0  0.445122  0  0.845162  0  0  0.41788  0  0.902465  0  0  0.427877  0  0.88801  0  0  0.309791  0.410719  0  0.913007  0
H  H16  1  0.49809981  0.76522846  0.33650522  1  0  0.101041  0  0.947738  0  0  0.113055  0  1.006564  0  0  0.116468  0  1.004005  0  0  0.109539  0.110903  0  1.007841  0
H  H17  1  0.50189452  0.23477100  0.66348930  1  0  0.101043  0  0.947748  0  0  0.113056  0  1.006582  0  0  0.116467  0  1.004024  0  0  0.109537  0.110904  0  1.007865  0
H  H18  1  0.77958412  0.87187029  0.48999083  1  0  0.097295  0  0.951752  0  0  0.108174  0  1.011793  0  0  0.111514  0  1.009674  0  0  0.104268  0.105626  0  1.013647  0
H  H19  1  0.22041129  0.12812731  0.51000626  1  0  0.097252  0  0.951689  0  0  0.10814  0  1.011729  0  0  0.111477  0  1.009617  0  0  0.104271  0.105597  0  1.013574  0
H  H20  1  0.85549609  0.10164484  0.50389581  1  0  0.098868  0  0.942113  0  0  0.110666  0  1.000532  0  0  0.113438  0  0.999541  0  0  0.106165  0.108627  0  1.00135  0
H  H21  1  0.14450357  0.89835181  0.49610427  1  0  0.098837  0  0.942125  0  0  0.110621  0  1.000565  0  0  0.113393  0  0.999573  0  0  0.106152  0.108584  0  1.001373  0
H  H22  1  0.65686422  0.30159830  0.54641266  1  0  0.099015  0  0.97788  0  0  0.105684  0  1.047777  0  0  0.109018  0  1.044972  0  0  0.104698  0.103272  0  1.049741  0
H  H23  1  0.34313079  0.69840486  0.45358822  1  0  0.098977  0  0.977897  0  0  0.105664  0  1.047784  0  0  0.108998  0  1.044981  0  0  0.104698  0.103249  0  1.049744  0
H  H24  1  0.84464261  0.61306260  0.36995047  1  0  0.111843  0  0.932773  0  0  0.122361  0  0.993421  0  0  0.1262  0  0.990065  0  0  0.112348  0.11957  0  0.995785  0
H  H25  1  0.15536079  0.38693774  0.63005028  1  0  0.111825  0  0.932737  0  0  0.122342  0  0.993394  0  0  0.126182  0  0.990038  0  0  0.11234  0.119552  0  0.99577  0
H  H26  1  0.72315622  0.24847787  0.18456624  1  0  0.116914  0  0.962994  0  0  0.123458  0  1.030219  0  0  0.127312  0  1.027347  0  0  0.115419  0.120508  0  1.032953  0
H  H27  1  0.27685015  0.75152246  0.81543656  1  0  0.116888  0  0.96297  0  0  0.123443  0  1.03019  0  0  0.127297  0  1.027315  0  0  0.115418  0.120488  0  1.032917  0
C  C28  1  0.53019712  0.86585014  0.34537305  1  0  -0.068304  0  3.724041  0  0  -0.095305  0  3.979418  0  0  -0.095794  0  3.997859  0  0  -0.07795  -0.094972  0  3.966501  0
C  C29  1  0.46979868  0.13414931  0.65462336  1  0  -0.068359  0  3.724088  0  0  -0.095367  0  3.979484  0  0  -0.095853  0  3.997922  0  0  -0.077961  -0.095038  0  3.966579  0
C  C30  1  0.68876303  0.92586019  0.43048970  1  0  -0.04741  0  3.754203  0  0  -0.065537  0  4.015022  0  0  -0.066439  0  4.034779  0  0  -0.081893  -0.064805  0  4.001564  0
C  C31  1  0.31123533  0.07413740  0.56951030  1  0  -0.047401  0  3.754072  0  0  -0.065533  0  4.014894  0  0  -0.066436  0  4.034651  0  0  -0.081945  -0.064801  0  4.00144  0
C  C32  1  0.72988232  0.05418310  0.43862598  1  0  -0.091884  0  3.71502  0  0  -0.114312  0  3.966379  0  0  -0.116604  0  3.987221  0  0  -0.078166  -0.112409  0  3.951842  0
C  C33  1  0.27011604  0.94581449  0.56137403  1  0  -0.091858  0  3.71495  0  0  -0.114268  0  3.966305  0  0  -0.11656  0  3.987148  0  0  -0.078143  -0.112364  0  3.951756  0
C  C34  1  0.61568341  0.12439487  0.36112925  1  0  0.052351  0  3.743291  0  0  0.060668  0  3.975229  0  0  0.061395  0  3.999221  0  0  0.005666  0.060128  0  3.95896  0
C  C35  1  0.38431701  0.87560549  0.63887117  1  0  0.052423  0  3.743342  0  0  0.060745  0  3.975273  0  0  0.061471  0  3.999265  0  0  0.005692  0.06021  0  3.958995  0
C  C36  1  0.45145900  0.06388931  0.27787647  1  0  -0.098168  0  3.671095  0  0  -0.091429  0  3.90575  0  0  -0.096149  0  3.924254  0  0  -0.002318  -0.088314  0  3.893267  0
C  C37  1  0.54854144  0.93611105  0.72212309  1  0  -0.098239  0  3.671095  0  0  -0.091494  0  3.90578  0  0  -0.096215  0  3.924287  0  0  -0.002308  -0.088375  0  3.893294  0
C  C38  1  0.40817346  0.93434993  0.27127581  1  0  -0.055348  0  3.726652  0  0  -0.040318  0  3.961456  0  0  -0.044587  0  3.980873  0  0  -0.005928  -0.037432  0  3.948076  0
C  C39  1  0.59182420  0.06565136  0.72872179  1  0  -0.055272  0  3.726557  0  0  -0.040243  0  3.961393  0  0  -0.04451  0  3.980811  0  0  -0.005909  -0.037358  0  3.948023  0
C  C40  1  0.23150064  0.86760071  0.18626087  1  0  0.662321  0  3.900929  0  0  0.610667  0  4.196615  0  0  0.643718  0  4.192666  0  0  0.210699  0.587844  0  4.20167  0
C  C41  1  0.76850169  0.13240149  0.81373731  1  0  0.662368  0  3.900814  0  0  0.610686  0  4.196554  0  0  0.643734  0  4.19261  0  0  0.210728  0.587853  0  4.201629  0
C  C42  1  0.32924235  0.13316770  0.18977287  1  0  0.674517  0  3.893075  0  0  0.621795  0  4.192846  0  0  0.65523  0  4.188302  0  0  0.215212  0.598595  0  4.198646  0
C  C43  1  0.67075826  0.86683358  0.81022764  1  0  0.674656  0  3.892866  0  0  0.621896  0  4.192697  0  0  0.655331  0  4.188149  0  0  0.215244  0.598693  0  4.198497  0
C  C44  1  0.67729177  0.25910235  0.36423315  1  0  0.048337  0  3.781822  0  0  0.067034  0  4.020667  0  0  0.064239  0  4.043345  0  0  -0.003834  0.068677  0  4.005096  0
C  C45  1  0.32270845  0.74089708  0.63576805  1  0  0.048274  0  3.781916  0  0  0.066971  0  4.020765  0  0  0.064175  0  4.043444  0  0  -0.003847  0.068605  0  4.005193  0
C  C46  1  0.69225231  0.33774224  0.46687488  1  0  -0.080199  0  3.675745  0  0  -0.119054  0  3.927457  0  0  -0.116037  0  3.944578  0  0  -0.07276  -0.120394  0  3.91531  0
C  C47  1  0.30774677  0.66225905  0.53312804  1  0  -0.080157  0  3.675755  0  0  -0.119021  0  3.927447  0  0  -0.116008  0  3.944573  0  0  -0.072776  -0.120367  0  3.915311  0
C  C48  1  0.74644282  0.46529812  0.46892340  1  0  -0.087666  0  3.788888  0  0  -0.061858  0  4.028116  0  0  -0.072996  0  4.053614  0  0  -0.020484  -0.054648  0  4.010804  0
C  C49  1  0.25355776  0.53470316  0.53107883  1  0  -0.087708  0  3.788891  0  0  -0.061868  0  4.028148  0  0  -0.073001  0  4.053636  0  0  -0.020489  -0.054653  0  4.010837  0
C  C50  1  0.79654059  0.51458742  0.36861644  1  0  -0.046389  0  3.665099  0  0  -0.089422  0  3.91947  0  0  -0.084742  0  3.93593  0  0  -0.070067  -0.091929  0  3.907551  0
C  C51  1  0.20346282  0.48541292  0.63138345  1  0  -0.046341  0  3.665008  0  0  -0.089333  0  3.919383  0  0  -0.084652  0  3.935839  0  0  -0.070027  -0.091856  0  3.907487  0
C  C52  1  0.79093665  0.43534834  0.26702787  1  0  -0.071178  0  3.735837  0  0  -0.046195  0  3.975352  0  0  -0.055284  0  3.996048  0  0  -0.013162  -0.04045  0  3.960899  0
C  C53  1  0.20906673  0.56465201  0.73297461  1  0  -0.071179  0  3.735817  0  0  -0.04629  0  3.97547  0  0  -0.05538  0  3.996166  0  0  -0.013185  -0.040537  0  3.961009  0
C  C54  1  0.72733281  0.30895413  0.26436680  1  0  -0.064829  0  3.632594  0  0  -0.104108  0  3.882858  0  0  -0.100653  0  3.898258  0  0  -0.062669  -0.106222  0  3.872594  0
C  C55  1  0.27267226  0.69104713  0.73563506  1  0  -0.064832  0  3.632589  0  0  -0.104097  0  3.882887  0  0  -0.100641  0  3.898287  0  0  -0.062699  -0.106197  0  3.8726  0
C  C56  1  0.74500579  0.54236556  0.58018024  1  0  0.653413  0  3.824068  0  0  0.600671  0  4.124627  0  0  0.633086  0  4.119011  0  0  0.234301  0.578699  0  4.127961  0
C  C57  1  0.25499391  0.45763851  0.41981863  1  0  0.653652  0  3.823853  0  0  0.600804  0  4.124579  0  0  0.633218  0  4.118962  0  0  0.234371  0.578828  0  4.127918  0
C  C58  1  0.85677955  0.48245796  0.16057098  1  0  0.716457  0  3.859641  0  0  0.665488  0  4.150835  0  0  0.700849  0  4.143205  0  0  0.23963  0.641553  0  4.157514  0
C  C59  1  0.14322831  0.51754236  0.83943198  1  0  0.716395  0  3.859662  0  0  0.665421  0  4.15092  0  0  0.700784  0  4.14329  0  0  0.239586  0.641483  0  4.157598  0
O  O60  1  0.24161054  0.22525876  0.22208577  1  0  -0.691778  0  2.021333  0  0  -0.628571  0  2.251901  0  0  -0.659297  0  2.243278  0  0  -0.344522  -0.61058  0  2.257448  0
O  O61  1  0.75838710  0.77474254  0.77791355  1  0  -0.691885  0  2.021281  0  0  -0.628681  0  2.251899  0  0  -0.659403  0  2.243272  0  0  -0.344581  -0.610685  0  2.257438  0
O  O62  1  0.31316683  0.09888186  0.08071716  1  0  -0.685825  0  1.995944  0  0  -0.626254  0  2.223803  0  0  -0.655014  0  2.213365  0  0  -0.351725  -0.609406  0  2.230573  0
O  O63  1  0.68683211  0.90111851  0.91928224  1  0  -0.685844  0  1.995925  0  0  -0.626249  0  2.223785  0  0  -0.655005  0  2.213348  0  0  -0.351704  -0.609399  0  2.230549  0
O  O64  1  0.05812615  0.90456222  0.17583699  1  0  -0.692588  0  1.975223  0  0  -0.637512  0  2.200674  0  0  -0.665528  0  2.189675  0  0  -0.345939  -0.621012  0  2.207622  0
O  O65  1  0.94187132  0.09543815  0.82416053  1  0  -0.692581  0  1.975215  0  0  -0.637487  0  2.200679  0  0  -0.665507  0  2.189681  0  0  -0.345949  -0.620977  0  2.207627  0
O  O66  1  0.25895754  0.77058378  0.12390183  1  0  -0.684415  0  2.019903  0  0  -0.620054  0  2.245791  0  0  -0.649652  0  2.235444  0  0  -0.360599  -0.602496  0  2.252184  0
O  O67  1  0.74104183  0.22941843  0.87609344  1  0  -0.684484  0  2.019916  0  0  -0.620102  0  2.245812  0  0  -0.649701  0  2.235466  0  0  -0.360592  -0.602537  0  2.25221  0
O  O68  1  0.70449552  0.49450328  0.66796995  1  0  -0.5706  0  1.98415  0  0  -0.519471  0  2.203615  0  0  -0.541351  0  2.19652  0  0  -0.278731  -0.50436  0  2.208014  0
O  O69  1  0.29549928  0.50549896  0.33203170  1  0  -0.570652  0  1.984178  0  0  -0.519506  0  2.203702  0  0  -0.541382  0  2.196599  0  0  -0.278733  -0.504397  0  2.2081  0
O  O70  1  0.78631286  0.66365048  0.57636814  1  0  -0.552046  0  2.09511  0  0  -0.500614  0  2.318139  0  0  -0.524084  0  2.305975  0  0  -0.324714  -0.484256  0  2.325561  0
O  O71  1  0.21368607  0.33634989  0.42363212  1  0  -0.552105  0  2.094987  0  0  -0.500664  0  2.318073  0  0  -0.524133  0  2.305906  0  0  -0.324717  -0.484307  0  2.325495  0
O  O72  1  0.87035908  0.40286933  0.07629047  1  0  -0.768873  0  2.072768  0  0  -0.709808  0  2.329948  0  0  -0.740692  0  2.314692  0  0  -0.399088  -0.693247  0  2.339798  0
O  O73  1  0.12965287  0.59712911  0.92371368  1  0  -0.768862  0  2.072844  0  0  -0.709736  0  2.329922  0  0  -0.740616  0  2.314667  0  0  -0.399044  -0.693171  0  2.339762  0
O  O74  1  0.89464823  0.59859013  0.15804130  1  0  -0.715049  0  2.024348  0  0  -0.65746  0  2.268473  0  0  -0.687171  0  2.254782  0  0  -0.3716  -0.640667  0  2.276322  0
O  O75  1  0.10535799  0.40140927  0.84195883  1  0  -0.715013  0  2.024297  0  0  -0.65743  0  2.268446  0  0  -0.687144  0  2.254753  0  0  -0.371587  -0.640644  0  2.276301  0
O  O76  1  0.36870721  0.25227689  0.89749728  1  0  -0.916385  0  1.847483  0  0  -0.865754  0  2.035251  0  0  -0.889884  0  2.00091  0  0  -0.658194  -0.85264  0  2.05606  0
O  O77  1  0.63129061  0.74771792  0.10249988  1  0  -0.916368  0  1.847586  0  0  -0.865757  0  2.035301  0  0  -0.889884  0  2.000963  0  0  -0.658181  -0.852643  0  2.056116  0
O  O78  1  0.31483911  0.45423944  0.10283771  1  0  -0.903868  0  1.813262  0  0  -0.856743  0  1.994969  0  0  -0.880358  0  1.960684  0  0  -0.63829  -0.844128  0  2.016571  0
O  O79  1  0.68516391  0.54575905  0.89716373  1  0  -0.903905  0  1.813132  0  0  -0.856773  0  1.994869  0  0  -0.880382  0  1.960586  0  0  -0.638279  -0.844158  0  2.016473  0
O  O80  1  0.86615991  0.09582140  0.08251608  1  0  -0.903751  0  1.829838  0  0  -0.859882  0  2.010279  0  0  -0.88367  0  1.977303  0  0  -0.621814  -0.847065  0  2.031355  0
O  O81  1  0.13383772  0.90417990  0.91748324  1  0  -0.903725  0  1.829842  0  0  -0.859858  0  2.010278  0  0  -0.883643  0  1.977302  0  0  -0.621787  -0.84704  0  2.031363  0
