# generated using pymatgen
data_CdH14C16(NO3)2
_symmetry_space_group_name_H-M   'P 1'
_cell_length_a   8.02672608
_cell_length_b   7.77866231
_cell_length_c   14.25923215
_cell_angle_alpha   77.21206731
_cell_angle_beta   87.72790383
_cell_angle_gamma   77.64233831
_symmetry_Int_Tables_number   1
_chemical_formula_structural   CdH14C16(NO3)2
_chemical_formula_sum   'Cd2 H28 C32 N4 O12'
_cell_volume   848.07922145
_cell_formula_units_Z   2
loop_
 _symmetry_equiv_pos_site_id
 _symmetry_equiv_pos_as_xyz
  1  'x, y, z'
loop_
 _atom_site_type_symbol
 _atom_site_label
 _atom_site_symmetry_multiplicity
 _atom_site_fract_x
 _atom_site_fract_y
 _atom_site_fract_z
 _atom_site_occupancy
 _atom_site_hle17_bader_spin_density
 _atom_site_hle17_ddec_charge
 _atom_site_hle17_ddec_spin_density
 _atom_site_hle17_ddec_sum_bond_order
 _atom_site_hle17_magmom
 _atom_site_hse06_10hf_bader_spin_density
 _atom_site_hse06_10hf_ddec_charge
 _atom_site_hse06_10hf_ddec_spin_density
 _atom_site_hse06_10hf_ddec_sum_bond_order
 _atom_site_hse06_10hf_magmom
 _atom_site_hse06_bader_spin_density
 _atom_site_hse06_ddec_charge
 _atom_site_hse06_ddec_spin_density
 _atom_site_hse06_ddec_sum_bond_order
 _atom_site_hse06_magmom
 _atom_site_pbe_bader_spin_density
 _atom_site_pbe_cm5_charge
 _atom_site_pbe_ddec_charge
 _atom_site_pbe_ddec_spin_density
 _atom_site_pbe_ddec_sum_bond_order
 _atom_site_pbe_magmom
Cd  Cd0  1  0.66712743  0.73110651  0.74367347  1  0  1.181895  0  1.659232  0  0  0.994293  0  2.111305  0  0  1.049557  0  2.055588  0  0  0.774616  0.955106  0  2.149381  0
Cd  Cd1  1  0.33287022  0.26889790  0.25632532  1  0  1.181863  0  1.659211  0  0  0.994257  0  2.111286  0  0  1.049523  0  2.055566  0  0  0.774602  0.95507  0  2.149344  0
H  H2  1  0.52524554  0.88341244  0.57030179  1  0  0.41021  0  0.90942  0  0  0.375624  0  0.979417  0  0  0.387552  0  0.962115  0  0  0.279817  0.36726  0  0.991509  0
H  H3  1  0.47475140  0.11658933  0.42969591  1  0  0.410227  0  0.909393  0  0  0.375653  0  0.979371  0  0  0.38758  0  0.962071  0  0  0.279828  0.367293  0  0.991459  0
H  H4  1  0.62654539  0.04815520  0.55682624  1  0  0.447362  0  0.840512  0  0  0.417082  0  0.900623  0  0  0.428313  0  0.883921  0  0  0.297927  0.409063  0  0.912546  0
H  H5  1  0.37345309  0.95184514  0.44317368  1  0  0.44737  0  0.840503  0  0  0.417086  0  0.900621  0  0  0.428318  0  0.883918  0  0  0.297916  0.409064  0  0.912548  0
H  H6  1  0.95990891  0.84813177  0.73156229  1  0  0.409792  0  0.913252  0  0  0.373781  0  0.985201  0  0  0.386664  0  0.966839  0  0  0.273738  0.364803  0  0.997946  0
H  H7  1  0.04008252  0.15188485  0.26843320  1  0  0.409728  0  0.913348  0  0  0.373708  0  0.985319  0  0  0.386591  0  0.966957  0  0  0.273695  0.364724  0  0.998075  0
H  H8  1  0.82253972  0.03562560  0.70681120  1  0  0.417786  0  0.824893  0  0  0.407857  0  0.865799  0  0  0.415093  0  0.85894  0  0  0.318667  0.402574  0  0.871043  0
H  H9  1  0.17745450  0.96438957  0.29318719  1  0  0.417631  0  0.824976  0  0  0.407798  0  0.865739  0  0  0.415033  0  0.858881  0  0  0.318656  0.402513  0  0.870985  0
H  H10  1  0.38001847  0.39210516  0.54582502  1  0  0.123873  0  0.954512  0  0  0.133952  0  1.012512  0  0  0.137421  0  1.010309  0  0  0.108947  0.131476  0  1.014196  0
H  H11  1  0.61997713  0.60789097  0.45417894  1  0  0.123815  0  0.954528  0  0  0.133877  0  1.012548  0  0  0.137344  0  1.010348  0  0  0.108924  0.131401  0  1.014229  0
H  H12  1  0.09442479  0.36435721  0.59714991  1  0  0.1161  0  0.937106  0  0  0.126531  0  0.99165  0  0  0.13059  0  0.990115  0  0  0.103744  0.12366  0  0.99289  0
H  H13  1  0.90556860  0.63563753  0.40285495  1  0  0.1161  0  0.937079  0  0  0.126533  0  0.991612  0  0  0.130593  0  0.990074  0  0  0.103753  0.123662  0  0.992855  0
H  H14  1  0.30838000  0.04404149  0.69123716  1  0  0.089344  0  0.92378  0  0  0.098146  0  0.983855  0  0  0.100438  0  0.981515  0  0  0.122483  0.096352  0  0.985707  0
H  H15  1  0.69161188  0.95595457  0.30876829  1  0  0.08926  0  0.923808  0  0  0.098067  0  0.983889  0  0  0.100356  0  0.981553  0  0  0.12244  0.096277  0  0.985743  0
H  H16  1  0.06667981  0.21422463  0.77533269  1  0  0.113973  0  0.959762  0  0  0.12202  0  1.022055  0  0  0.125242  0  1.020717  0  0  0.109323  0.119692  0  1.02313  0
H  H17  1  0.93331830  0.78577143  0.22467332  1  0  0.113957  0  0.959823  0  0  0.121994  0  1.02212  0  0  0.125215  0  1.02078  0  0  0.109329  0.11967  0  1.023194  0
H  H18  1  0.06582720  0.14461228  0.95573711  1  0  0.094147  0  0.945485  0  0  0.108172  0  1.004206  0  0  0.110434  0  1.003138  0  0  0.107086  0.106547  0  1.004987  0
H  H19  1  0.93417811  0.85538516  0.04426859  1  0  0.094133  0  0.945567  0  0  0.108198  0  1.004256  0  0  0.11046  0  1.003189  0  0  0.107089  0.106572  0  1.005033  0
H  H20  1  0.20571259  0.96528680  0.11176652  1  0  0.115108  0  0.973454  0  0  0.124593  0  1.036595  0  0  0.127883  0  1.035  0  0  0.101696  0.122141  0  1.03789  0
H  H21  1  0.79429728  0.03470665  0.88823881  1  0  0.115092  0  0.973486  0  0  0.124587  0  1.036625  0  0  0.127887  0  1.035003  0  0  0.101695  0.122136  0  1.037922  0
H  H22  1  0.43273388  0.71674222  0.19708909  1  0  0.119131  0  0.937218  0  0  0.130218  0  0.993728  0  0  0.133525  0  0.992155  0  0  0.111314  0.127734  0  0.995055  0
H  H23  1  0.56727482  0.28324464  0.80291278  1  0  0.119149  0  0.937236  0  0  0.130204  0  0.993803  0  0  0.133501  0  0.992226  0  0  0.111306  0.127721  0  0.995131  0
H  H24  1  0.69128188  0.47922574  0.19158495  1  0  0.121212  0  0.967952  0  0  0.127631  0  1.032538  0  0  0.130444  0  1.031142  0  0  0.112224  0.12554  0  1.033568  0
H  H25  1  0.30873092  0.52076542  0.80841074  1  0  0.121164  0  0.96799  0  0  0.12755  0  1.032616  0  0  0.130363  0  1.031218  0  0  0.112181  0.125461  0  1.033649  0
H  H26  1  0.91397433  0.32296530  0.09385688  1  0  0.113347  0  0.936062  0  0  0.125833  0  0.99092  0  0  0.128651  0  0.990762  0  0  0.110722  0.123776  0  0.991265  0
H  H27  1  0.08603431  0.67703408  0.90613450  1  0  0.113316  0  0.93608  0  0  0.125815  0  0.990928  0  0  0.128632  0  0.990772  0  0  0.110709  0.123758  0  0.991265  0
H  H28  1  0.89904680  0.42636894  0.91227301  1  0  0.071503  0  0.949483  0  0  0.080487  0  1.015677  0  0  0.082336  0  1.01432  0  0  0.114209  0.079127  0  1.016648  0
H  H29  1  0.10095521  0.57363848  0.08771834  1  0  0.07155  0  0.949324  0  0  0.080532  0  1.015529  0  0  0.082381  0  1.01417  0  0  0.114218  0.079177  0  1.016495  0
C  C30  1  0.40549898  0.61774870  0.60818573  1  0  0.728062  0  3.875328  0  0  0.670608  0  4.186848  0  0  0.706573  0  4.17544  0  0  0.216136  0.64599  0  4.193917  0
C  C31  1  0.59449147  0.38225436  0.39181268  1  0  0.727911  0  3.875602  0  0  0.670609  0  4.186892  0  0  0.706576  0  4.175486  0  0  0.216137  0.645993  0  4.19396  0
C  C32  1  0.30861712  0.48409135  0.58843589  1  0  -0.132645  0  3.620329  0  0  -0.155216  0  3.883421  0  0  -0.154781  0  3.893983  0  0  -0.076175  -0.155702  0  3.87653  0
C  C33  1  0.69137861  0.51591027  0.41156536  1  0  -0.132554  0  3.620451  0  0  -0.155146  0  3.883497  0  0  -0.154713  0  3.894061  0  0  -0.076152  -0.155631  0  3.876604  0
C  C34  1  0.04110054  0.58234434  0.67609557  1  0  0.683364  0  3.920499  0  0  0.638219  0  4.210798  0  0  0.673434  0  4.202607  0  0  0.197862  0.614303  0  4.215667  0
C  C35  1  0.95889478  0.41765317  0.32390754  1  0  0.68337  0  3.92043  0  0  0.638254  0  4.210682  0  0  0.673468  0  4.202492  0  0  0.197848  0.614343  0  4.215549  0
C  C36  1  0.15053452  0.46729070  0.61732893  1  0  -0.22878  0  3.724972  0  0  -0.244396  0  3.983997  0  0  -0.254269  0  4.000215  0  0  -0.109163  -0.237983  0  3.97317  0
C  C37  1  0.84945928  0.53270818  0.38267336  1  0  -0.228755  0  3.724971  0  0  -0.244379  0  3.983965  0  0  -0.254251  0  4.000183  0  0  -0.109165  -0.237967  0  3.973142  0
C  C38  1  0.30167943  0.01791465  0.76951942  1  0  0.166383  0  3.663875  0  0  0.134445  0  3.919785  0  0  0.142739  0  3.936962  0  0  0.068555  0.129065  0  3.90803  0
C  C39  1  0.69831936  0.98208417  0.23048487  1  0  0.166496  0  3.663864  0  0  0.134551  0  3.919771  0  0  0.142846  0  3.936949  0  0  0.068541  0.129162  0  3.908027  0
C  C40  1  0.16714177  0.11219815  0.81689560  1  0  -0.108261  0  3.71837  0  0  -0.123584  0  3.976357  0  0  -0.130187  0  3.99732  0  0  -0.078296  -0.119335  0  3.962233  0
C  C41  1  0.83286130  0.88779802  0.18310818  1  0  -0.108301  0  3.718323  0  0  -0.123633  0  3.976375  0  0  -0.130232  0  3.997333  0  0  -0.07832  -0.119388  0  3.962253  0
C  C42  1  0.16700226  0.07387377  0.91619803  1  0  -0.05671  0  3.701276  0  0  -0.082238  0  3.953926  0  0  -0.08001  0  3.972244  0  0  -0.067759  -0.083434  0  3.941376  0
C  C43  1  0.83299957  0.92612237  0.08380648  1  0  -0.056721  0  3.701144  0  0  -0.082295  0  3.953767  0  0  -0.080071  0  3.972084  0  0  -0.067785  -0.083482  0  3.941207  0
C  C44  1  0.29863233  0.94079529  0.96828721  1  0  0.01966  0  3.812515  0  0  0.034511  0  4.045926  0  0  0.032202  0  4.070308  0  0  -0.004971  0.035875  0  4.029499  0
C  C45  1  0.70137036  0.05920892  0.03171711  1  0  0.01964  0  3.812375  0  0  0.034561  0  4.045747  0  0  0.032256  0  4.070118  0  0  -0.004946  0.035927  0  4.029315  0
C  C46  1  0.30339552  0.89227696  0.07112916  1  0  -0.114428  0  3.733761  0  0  -0.138854  0  3.993652  0  0  -0.142806  0  4.016447  0  0  -0.092233  -0.136029  0  3.978202  0
C  C47  1  0.69661183  0.10771657  0.92887411  1  0  -0.114372  0  3.733783  0  0  -0.138839  0  3.993642  0  0  -0.142801  0  4.016458  0  0  -0.092201  -0.136016  0  3.978193  0
C  C48  1  0.42945760  0.75774691  0.11875034  1  0  -0.086038  0  3.707324  0  0  -0.109792  0  3.963811  0  0  -0.11276  0  3.986335  0  0  -0.082038  -0.107635  0  3.948496  0
C  C49  1  0.57055056  0.24224262  0.88125195  1  0  -0.085977  0  3.707201  0  0  -0.109711  0  3.963654  0  0  -0.112665  0  3.986166  0  0  -0.082002  -0.10755  0  3.948345  0
C  C50  1  0.56113816  0.66377083  0.06672806  1  0  0.02494  0  3.779539  0  0  0.040912  0  4.012113  0  0  0.038267  0  4.036365  0  0  -0.001362  0.042484  0  3.995811  0
C  C51  1  0.43887056  0.33622824  0.93327107  1  0  0.024841  0  3.7795  0  0  0.0409  0  4.012014  0  0  0.038257  0  4.036263  0  0  -0.001366  0.042464  0  3.995728  0
C  C52  1  0.69157110  0.52170614  0.11341155  1  0  -0.032459  0  3.6412  0  0  -0.060548  0  3.895583  0  0  -0.057621  0  3.912752  0  0  -0.059894  -0.062187  0  3.883879  0
C  C53  1  0.30844117  0.47828769  0.88658456  1  0  -0.032381  0  3.641482  0  0  -0.060459  0  3.895835  0  0  -0.05753  0  3.913001  0  0  -0.059896  -0.062103  0  3.884144  0
C  C54  1  0.81390512  0.43467321  0.05911339  1  0  -0.125841  0  3.739122  0  0  -0.140461  0  3.999777  0  0  -0.147555  0  4.020703  0  0  -0.086408  -0.135926  0  3.985692  0
C  C55  1  0.18610258  0.56532471  0.94088098  1  0  -0.125842  0  3.739427  0  0  -0.140465  0  4.000073  0  0  -0.147562  0  4.021004  0  0  -0.086353  -0.13592  0  3.985983  0
C  C56  1  0.80586044  0.49083903  0.95839181  1  0  0.134043  0  3.743022  0  0  0.100613  0  4.003811  0  0  0.109257  0  4.021469  0  0  0.050593  0.095055  0  3.991633  0
C  C57  1  0.19414340  0.50916556  0.04160332  1  0  0.134059  0  3.742921  0  0  0.100632  0  4.003704  0  0  0.109277  0  4.021361  0  0  0.050587  0.095062  0  3.991531  0
C  C58  1  0.56271224  0.71127136  0.96458104  1  0  0.127595  0  3.7567  0  0  0.120725  0  3.991965  0  0  0.125277  0  4.014165  0  0  0.114631  0.117692  0  3.976952  0
C  C59  1  0.43728968  0.28873043  0.03541654  1  0  0.12766  0  3.756377  0  0  0.120657  0  3.991856  0  0  0.125205  0  4.014056  0  0  0.114595  0.117623  0  3.976842  0
C  C60  1  0.42824114  0.85207329  0.91410987  1  0  0.122374  0  3.782915  0  0  0.119448  0  4.015386  0  0  0.12366  0  4.038225  0  0  0.115048  0.116662  0  3.999902  0
C  C61  1  0.57175708  0.14792835  0.08589132  1  0  0.12243  0  3.782731  0  0  0.119459  0  4.015311  0  0  0.123671  0  4.038148  0  0  0.115029  0.116675  0  3.999823  0
N  N62  1  0.42787791  0.89266719  0.81674101  1  0  -0.356405  0  3.239455  0  0  -0.291118  0  3.503545  0  0  -0.310539  0  3.522918  0  0  -0.319273  -0.277846  0  3.490089  0
N  N63  1  0.57212183  0.10733307  0.18326100  1  0  -0.356441  0  3.239396  0  0  -0.291135  0  3.503534  0  0  -0.310555  0  3.522899  0  0  -0.319213  -0.277857  0  3.49007  0
N  N64  1  0.68487439  0.62468731  0.91280981  1  0  -0.366132  0  3.260935  0  0  -0.295487  0  3.525548  0  0  -0.31515  0  3.54391  0  0  -0.324677  -0.282091  0  3.512802  0
N  N65  1  0.31513017  0.37531990  0.08718711  1  0  -0.366138  0  3.260805  0  0  -0.295452  0  3.525441  0  0  -0.315114  0  3.543805  0  0  -0.324648  -0.282049  0  3.512687  0
O  O66  1  0.49334563  0.57178576  0.68560824  1  0  -0.656184  0  1.978919  0  0  -0.586694  0  2.228276  0  0  -0.616782  0  2.215416  0  0  -0.323397  -0.565254  0  2.236238  0
O  O67  1  0.50664375  0.42822258  0.31439242  1  0  -0.656057  0  1.979004  0  0  -0.586637  0  2.228319  0  0  -0.616707  0  2.215414  0  0  -0.323346  -0.565198  0  2.236275  0
O  O68  1  0.40538055  0.75775428  0.54229044  1  0  -0.655946  0  1.983124  0  0  -0.593633  0  2.200064  0  0  -0.621847  0  2.186701  0  0  -0.31778  -0.573562  0  2.208554  0
O  O69  1  0.59461319  0.24224483  0.45770622  1  0  -0.655928  0  1.983222  0  0  -0.59369  0  2.200126  0  0  -0.621908  0  2.186758  0  0  -0.317828  -0.573624  0  2.208619  0
O  O70  1  0.90134324  0.53426796  0.70683598  1  0  -0.677692  0  1.94514  0  0  -0.610899  0  2.190615  0  0  -0.638657  0  2.175662  0  0  -0.35124  -0.591416  0  2.200183  0
O  O71  1  0.09864874  0.46573367  0.29316465  1  0  -0.677656  0  1.945145  0  0  -0.610875  0  2.190616  0  0  -0.638633  0  2.175654  0  0  -0.351201  -0.591392  0  2.200178  0
O  O72  1  0.09280379  0.71642495  0.69283354  1  0  -0.620257  0  1.968396  0  0  -0.56222  0  2.178666  0  0  -0.587705  0  2.168553  0  0  -0.319777  -0.544616  0  2.18513  0
O  O73  1  0.90719220  0.28357535  0.30716715  1  0  -0.620276  0  1.968459  0  0  -0.562265  0  2.17874  0  0  -0.587749  0  2.168626  0  0  -0.319764  -0.544659  0  2.185209  0
O  O74  1  0.59562061  0.94610571  0.60308366  1  0  -0.892508  0  1.86378  0  0  -0.826156  0  2.057253  0  0  -0.848162  0  2.019425  0  0  -0.611243  -0.810489  0  2.083496  0
O  O75  1  0.40437661  0.05389468  0.39691488  1  0  -0.892532  0  1.863742  0  0  -0.826185  0  2.05721  0  0  -0.84819  0  2.019382  0  0  -0.611248  -0.810526  0  2.083444  0
O  O76  1  0.85647257  0.92890202  0.75804364  1  0  -0.840971  0  1.84356  0  0  -0.78443  0  2.033812  0  0  -0.80675  0  2.006022  0  0  -0.583667  -0.768498  0  2.052717  0
O  O77  1  0.14352396  0.07110791  0.24195177  1  0  -0.840777  0  1.84367  0  0  -0.78429  0  2.033759  0  0  -0.806624  0  2.006  0  0  -0.583631  -0.768356  0  2.052676  0
