# generated using pymatgen
data_LaH10C5O8
_symmetry_space_group_name_H-M   'P 1'
_cell_length_a   8.93009749
_cell_length_b   8.93016849
_cell_length_c   14.89734165
_cell_angle_alpha   105.85445007
_cell_angle_beta   105.85437754
_cell_angle_gamma   95.14475543
_symmetry_Int_Tables_number   1
_chemical_formula_structural   LaH10C5O8
_chemical_formula_sum   'La4 H40 C20 O32'
_cell_volume   1081.88579332
_cell_formula_units_Z   4
loop_
 _symmetry_equiv_pos_site_id
 _symmetry_equiv_pos_as_xyz
  1  'x, y, z'
loop_
 _atom_site_type_symbol
 _atom_site_label
 _atom_site_symmetry_multiplicity
 _atom_site_fract_x
 _atom_site_fract_y
 _atom_site_fract_z
 _atom_site_occupancy
 _atom_site_hle17_bader_spin_density
 _atom_site_hle17_ddec_charge
 _atom_site_hle17_ddec_spin_density
 _atom_site_hle17_ddec_sum_bond_order
 _atom_site_hle17_magmom
 _atom_site_hse06_10hf_bader_spin_density
 _atom_site_hse06_10hf_ddec_charge
 _atom_site_hse06_10hf_ddec_spin_density
 _atom_site_hse06_10hf_ddec_sum_bond_order
 _atom_site_hse06_10hf_magmom
 _atom_site_hse06_bader_spin_density
 _atom_site_hse06_ddec_charge
 _atom_site_hse06_ddec_spin_density
 _atom_site_hse06_ddec_sum_bond_order
 _atom_site_hse06_magmom
 _atom_site_pbe_bader_spin_density
 _atom_site_pbe_cm5_charge
 _atom_site_pbe_ddec_charge
 _atom_site_pbe_ddec_spin_density
 _atom_site_pbe_ddec_sum_bond_order
 _atom_site_pbe_magmom
La  La0  1  0.24693519  0.49694525  0.99389479  1  0  2.108199  0  1.715014  0  0  1.982254  0  2.212764  0  0  2.08521  0  2.11518  0  0  1.369878  1.905327  0  2.280631  0
La  La1  1  0.00305921  0.25306119  0.50610244  1  0  2.108207  0  1.714949  0  0  1.98235  0  2.212558  0  0  2.085315  0  2.114958  0  0  1.369931  1.905383  0  2.280406  0
La  La2  1  0.75306268  0.50305526  0.00611008  1  0  2.108279  0  1.714877  0  0  1.98237  0  2.212563  0  0  2.085329  0  2.114976  0  0  1.369926  1.905449  0  2.280437  0
La  La3  1  0.99694654  0.74694408  0.49389713  1  0  2.108292  0  1.714869  0  0  1.98235  0  2.212622  0  0  2.085303  0  2.115043  0  0  1.369907  1.905374  0  2.280481  0
H  H4  1  0.45708935  0.88921731  0.84840323  1  0  0.125401  0  0.944277  0  0  0.142881  0  1.005437  0  0  0.145736  0  1.003201  0  0  0.092989  0.140835  0  1.007089  0
H  H5  1  0.89148554  0.95905914  0.84851960  1  0  0.12585  0  0.944384  0  0  0.143583  0  1.005255  0  0  0.146407  0  1.003051  0  0  0.093613  0.141541  0  1.006911  0
H  H6  1  0.54093914  0.60852470  0.65148387  1  0  0.125818  0  0.944375  0  0  0.143551  0  1.005255  0  0  0.146375  0  1.003051  0  0  0.093622  0.141517  0  1.006915  0
H  H7  1  0.61077884  0.04291023  0.65160010  1  0  0.125445  0  0.944296  0  0  0.142941  0  1.005432  0  0  0.145798  0  1.003197  0  0  0.093032  0.140899  0  1.007094  0
H  H8  1  0.54290460  0.11078083  0.15160194  1  0  0.125382  0  0.944285  0  0  0.14287  0  1.005442  0  0  0.145731  0  1.0032  0  0  0.092987  0.140824  0  1.007093  0
H  H9  1  0.10851699  0.04094135  0.15148603  1  0  0.125811  0  0.944372  0  0  0.143555  0  1.005229  0  0  0.146379  0  1.003024  0  0  0.093606  0.141517  0  1.00688  0
H  H10  1  0.45905825  0.39147940  0.34851412  1  0  0.125853  0  0.944353  0  0  0.143607  0  1.005189  0  0  0.146432  0  1.002983  0  0  0.093634  0.141571  0  1.006851  0
H  H11  1  0.38922511  0.95709149  0.34839858  1  0  0.125389  0  0.944393  0  0  0.142887  0  1.00553  0  0  0.145745  0  1.003292  0  0  0.092984  0.140846  0  1.007189  0
H  H12  1  0.62397307  0.78867626  0.87030021  1  0  0.140664  0  0.964205  0  0  0.157793  0  1.025959  0  0  0.160113  0  1.025526  0  0  0.101044  0.156137  0  1.026302  0
H  H13  1  0.74650247  0.08152842  0.87035724  1  0  0.140625  0  0.963438  0  0  0.15785  0  1.025324  0  0  0.160164  0  1.024894  0  0  0.100869  0.156203  0  1.025653  0
H  H14  1  0.41847154  0.75350474  0.62964386  1  0  0.140574  0  0.963485  0  0  0.15783  0  1.025348  0  0  0.160143  0  1.02492  0  0  0.100869  0.156184  0  1.02568  0
H  H15  1  0.71132530  0.87603043  0.62970279  1  0  0.140692  0  0.964152  0  0  0.15784  0  1.025885  0  0  0.160162  0  1.025449  0  0  0.10106  0.156184  0  1.026232  0
H  H16  1  0.37602152  0.21132544  0.12970364  1  0  0.140631  0  0.964195  0  0  0.157737  0  1.025976  0  0  0.160055  0  1.025548  0  0  0.101035  0.156081  0  1.026318  0
H  H17  1  0.25350196  0.91846971  0.12964698  1  0  0.140623  0  0.963445  0  0  0.157828  0  1.025362  0  0  0.160142  0  1.024931  0  0  0.100856  0.15618  0  1.025689  0
H  H18  1  0.58152679  0.24649817  0.37035477  1  0  0.140622  0  0.96347  0  0  0.157832  0  1.025376  0  0  0.160145  0  1.024947  0  0  0.100867  0.156188  0  1.025707  0
H  H19  1  0.28868118  0.12397247  0.37029651  1  0  0.140674  0  0.96417  0  0  0.157793  0  1.025938  0  0  0.160112  0  1.025504  0  0  0.101034  0.156136  0  1.026284  0
H  H20  1  0.60214663  0.94473149  0.96556734  1  0  0.154694  0  0.936276  0  0  0.17475  0  0.993829  0  0  0.177331  0  0.993056  0  0  0.110746  0.172854  0  0.994524  0
H  H21  1  0.86355435  0.02082843  0.96564284  1  0  0.154052  0  0.936846  0  0  0.174485  0  0.994222  0  0  0.177033  0  0.993483  0  0  0.11096  0.172657  0  0.994835  0
H  H22  1  0.47918409  0.63645849  0.53436175  1  0  0.15407  0  0.93682  0  0  0.174491  0  0.994226  0  0  0.177038  0  0.993489  0  0  0.110933  0.172656  0  0.994841  0
H  H23  1  0.55526588  0.89785544  0.53443626  1  0  0.154683  0  0.936318  0  0  0.174744  0  0.993872  0  0  0.177316  0  0.993112  0  0  0.110735  0.172846  0  0.994563  0
H  H24  1  0.39784775  0.05526903  0.03443628  1  0  0.154706  0  0.936276  0  0  0.174779  0  0.9938  0  0  0.177351  0  0.993041  0  0  0.110765  0.172882  0  0.994496  0
H  H25  1  0.13644956  0.97917326  0.03436187  1  0  0.154097  0  0.936857  0  0  0.1745  0  0.994262  0  0  0.177047  0  0.993523  0  0  0.110971  0.172673  0  0.994876  0
H  H26  1  0.52081860  0.36354915  0.46563704  1  0  0.154102  0  0.936809  0  0  0.174511  0  0.994215  0  0  0.177059  0  0.993477  0  0  0.110965  0.172679  0  0.994824  0
H  H27  1  0.44474060  0.10214746  0.46556371  1  0  0.154664  0  0.936289  0  0  0.174744  0  0.993831  0  0  0.177309  0  0.993077  0  0  0.110719  0.172844  0  0.994526  0
H  H28  1  0.54034786  0.71517778  0.16412453  1  0  0.434958  0  0.868211  0  0  0.401811  0  0.934958  0  0  0.414845  0  0.915948  0  0  0.29983  0.392486  0  0.948552  0
H  H29  1  0.12375213  0.44944766  0.16425459  1  0  0.435082  0  0.867952  0  0  0.401782  0  0.934824  0  0  0.41481  0  0.91583  0  0  0.300478  0.392479  0  0.948373  0
H  H30  1  0.05055196  0.37624904  0.33574878  1  0  0.435061  0  0.867962  0  0  0.401775  0  0.934816  0  0  0.4148  0  0.915827  0  0  0.300481  0.392471  0  0.948366  0
H  H31  1  0.78481633  0.95965073  0.33587378  1  0  0.434945  0  0.868209  0  0  0.401817  0  0.934926  0  0  0.41485  0  0.91592  0  0  0.299859  0.392488  0  0.948526  0
H  H32  1  0.45965405  0.28481919  0.83587639  1  0  0.434899  0  0.86828  0  0  0.401743  0  0.935044  0  0  0.414778  0  0.916035  0  0  0.299778  0.392416  0  0.948644  0
H  H33  1  0.87624257  0.55054812  0.83574830  1  0  0.435069  0  0.867975  0  0  0.401762  0  0.934866  0  0  0.414789  0  0.915873  0  0  0.30048  0.392458  0  0.948417  0
H  H34  1  0.94944415  0.62374797  0.66424783  1  0  0.435048  0  0.867977  0  0  0.401762  0  0.934832  0  0  0.414788  0  0.915841  0  0  0.300472  0.392455  0  0.948385  0
H  H35  1  0.21518878  0.04035099  0.66412443  1  0  0.434934  0  0.868242  0  0  0.401792  0  0.93498  0  0  0.414826  0  0.915972  0  0  0.299809  0.392463  0  0.94858  0
H  H36  1  0.40788701  0.74165980  0.21604036  1  0  0.416768  0  0.836134  0  0  0.403341  0  0.887639  0  0  0.412049  0  0.876905  0  0  0.32549  0.39695  0  0.894894  0
H  H37  1  0.30812586  0.47455208  0.21625646  1  0  0.417318  0  0.836466  0  0  0.403955  0  0.887711  0  0  0.412676  0  0.876244  0  0  0.326062  0.397583  0  0.894917  0
H  H38  1  0.02544404  0.19187868  0.28373733  1  0  0.417537  0  0.836284  0  0  0.40417  0  0.887532  0  0  0.412893  0  0.875972  0  0  0.32617  0.397796  0  0.894757  0
H  H39  1  0.75833114  0.09210769  0.28395721  1  0  0.416843  0  0.836058  0  0  0.403432  0  0.887533  0  0  0.412138  0  0.876783  0  0  0.325536  0.397041  0  0.894803  0
H  H40  1  0.59211934  0.25833597  0.78396244  1  0  0.416792  0  0.836095  0  0  0.403369  0  0.887596  0  0  0.412076  0  0.876869  0  0  0.32547  0.396979  0  0.894849  0
H  H41  1  0.69186854  0.52544845  0.78374448  1  0  0.417266  0  0.836483  0  0  0.403905  0  0.887718  0  0  0.412625  0  0.876293  0  0  0.326046  0.397535  0  0.894924  0
H  H42  1  0.97454932  0.80811596  0.71625777  1  0  0.417358  0  0.836396  0  0  0.403989  0  0.887641  0  0  0.412711  0  0.876186  0  0  0.326104  0.397618  0  0.894868  0
H  H43  1  0.24166740  0.90789640  0.71604232  1  0  0.416885  0  0.836064  0  0  0.403474  0  0.887533  0  0  0.412181  0  0.876739  0  0  0.325533  0.397082  0  0.894803  0
C  C44  1  0.44487129  0.73007695  0.93302407  1  0  0.762854  0  3.830258  0  0  0.730647  0  4.119475  0  0  0.765348  0  4.114304  0  0  0.214839  0.706734  0  4.122029  0
C  C45  1  0.98841372  0.20295299  0.93320910  1  0  0.765017  0  3.830355  0  0  0.732491  0  4.119891  0  0  0.767245  0  4.114552  0  0  0.215157  0.708541  0  4.122572  0
C  C46  1  0.29704804  0.51159645  0.56678717  1  0  0.764834  0  3.830495  0  0  0.732381  0  4.119943  0  0  0.767134  0  4.114601  0  0  0.215043  0.708415  0  4.122626  0
C  C47  1  0.76991476  0.05512456  0.56697306  1  0  0.763068  0  3.829922  0  0  0.730798  0  4.11923  0  0  0.765501  0  4.114049  0  0  0.214899  0.706859  0  4.121814  0
C  C48  1  0.55512617  0.26992120  0.06697832  1  0  0.763111  0  3.829818  0  0  0.730962  0  4.118964  0  0  0.765663  0  4.113784  0  0  0.214954  0.707042  0  4.121538  0
C  C49  1  0.01158471  0.79704399  0.06678990  1  0  0.765199  0  3.830255  0  0  0.732638  0  4.119841  0  0  0.767392  0  4.114499  0  0  0.215161  0.708688  0  4.12252  0
C  C50  1  0.70295306  0.48840884  0.43320962  1  0  0.765086  0  3.830237  0  0  0.732605  0  4.119712  0  0  0.767359  0  4.114368  0  0  0.215148  0.708639  0  4.1224  0
C  C51  1  0.23008113  0.94487125  0.43302533  1  0  0.762932  0  3.830013  0  0  0.730831  0  4.119088  0  0  0.765531  0  4.113911  0  0  0.214953  0.706902  0  4.121652  0
C  C52  1  0.53645753  0.84357077  0.90082360  1  0  -0.459623  0  3.655423  0  0  -0.533295  0  3.883675  0  0  -0.540677  0  3.886195  0  0  -0.240454  -0.52806  0  3.88195  0
C  C53  1  0.86455358  0.05717376  0.90092408  1  0  -0.459852  0  3.655344  0  0  -0.534385  0  3.884088  0  0  -0.541679  0  3.88656  0  0  -0.240733  -0.529233  0  3.882387  0
C  C54  1  0.44282948  0.63545819  0.59907616  1  0  -0.459649  0  3.655164  0  0  -0.534236  0  3.883898  0  0  -0.541527  0  3.886373  0  0  -0.240674  -0.529097  0  3.882206  0
C  C55  1  0.65643075  0.96354425  0.59917859  1  0  -0.459652  0  3.65546  0  0  -0.533356  0  3.883734  0  0  -0.540731  0  3.886249  0  0  -0.240459  -0.528124  0  3.88203  0
C  C56  1  0.46353707  0.15643093  0.09918025  1  0  -0.459571  0  3.655383  0  0  -0.533258  0  3.883649  0  0  -0.540641  0  3.886177  0  0  -0.240455  -0.528021  0  3.881927  0
C  C57  1  0.13544737  0.94282438  0.09907822  1  0  -0.459889  0  3.655306  0  0  -0.534392  0  3.884093  0  0  -0.541685  0  3.886565  0  0  -0.240732  -0.529248  0  3.882388  0
C  C58  1  0.55717225  0.36455064  0.40092200  1  0  -0.459857  0  3.655251  0  0  -0.534393  0  3.884008  0  0  -0.541686  0  3.886478  0  0  -0.240738  -0.529255  0  3.882319  0
C  C59  1  0.34357712  0.03645984  0.40081980  1  0  -0.459568  0  3.655344  0  0  -0.533286  0  3.883542  0  0  -0.54066  0  3.886079  0  0  -0.240423  -0.528058  0  3.88183  0
C  C60  1  0.06693235  0.43303910  0.74998684  1  0  0.566494  0  3.908471  0  0  0.51787  0  4.207924  0  0  0.549199  0  4.200606  0  0  0.233728  0.496317  0  4.21237  0
C  C61  1  0.18338309  0.31660933  0.74998549  1  0  0.565725  0  3.908247  0  0  0.515381  0  4.209709  0  0  0.546743  0  4.202355  0  0  0.23252  0.493828  0  4.214153  0
C  C62  1  0.93304669  0.56694727  0.25000922  1  0  0.566216  0  3.909052  0  0  0.517657  0  4.208293  0  0  0.54897  0  4.200997  0  0  0.233672  0.496124  0  4.212705  0
C  C63  1  0.81662004  0.68340070  0.25001041  1  0  0.565811  0  3.908495  0  0  0.515593  0  4.209673  0  0  0.546967  0  4.202306  0  0  0.232599  0.494035  0  4.21411  0
O  O64  1  0.30469290  0.74059150  0.93323219  1  0  -0.660262  0  1.889226  0  0  -0.624292  0  2.116108  0  0  -0.653877  0  2.108059  0  0  -0.35969  -0.603203  0  2.120917  0
O  O65  1  0.12884608  0.19268680  0.93351157  1  0  -0.660663  0  1.890868  0  0  -0.624757  0  2.118216  0  0  -0.654375  0  2.110137  0  0  -0.360055  -0.603647  0  2.12305  0
O  O66  1  0.30731171  0.37116183  0.56647766  1  0  -0.660688  0  1.890952  0  0  -0.624792  0  2.118232  0  0  -0.654411  0  2.11015  0  0  -0.360066  -0.603694  0  2.123074  0
O  O67  1  0.75940021  0.19529836  0.56675763  1  0  -0.660295  0  1.889227  0  0  -0.624282  0  2.116083  0  0  -0.65387  0  2.108034  0  0  -0.359677  -0.6032  0  2.120904  0
O  O68  1  0.69530119  0.25940077  0.06676464  1  0  -0.660367  0  1.889168  0  0  -0.624384  0  2.115981  0  0  -0.653968  0  2.107931  0  0  -0.359725  -0.603296  0  2.120799  0
O  O69  1  0.87115478  0.80731728  0.06648901  1  0  -0.660746  0  1.890772  0  0  -0.624853  0  2.118152  0  0  -0.654473  0  2.110074  0  0  -0.360066  -0.603746  0  2.122986  0
O  O70  1  0.69268432  0.62884110  0.43351723  1  0  -0.660721  0  1.890757  0  0  -0.624839  0  2.118096  0  0  -0.654459  0  2.110015  0  0  -0.360034  -0.603739  0  2.122935  0
O  O71  1  0.24060344  0.80469511  0.43323361  1  0  -0.660259  0  1.889258  0  0  -0.624316  0  2.116074  0  0  -0.653899  0  2.108022  0  0  -0.359673  -0.603236  0  2.120888  0
O  O72  1  0.51254361  0.62207553  0.96214683  1  0  -0.766505  0  2.019942  0  0  -0.715683  0  2.2764  0  0  -0.75551  0  2.270697  0  0  -0.421472  -0.686607  0  2.278871  0
O  O73  1  0.94981339  0.34008305  0.96228477  1  0  -0.767536  0  2.020604  0  0  -0.716372  0  2.277282  0  0  -0.756236  0  2.271545  0  0  -0.42175  -0.687265  0  2.279775  0
O  O74  1  0.15992096  0.55019153  0.53771064  1  0  -0.767486  0  2.020897  0  0  -0.716362  0  2.277584  0  0  -0.756229  0  2.271849  0  0  -0.421705  -0.687257  0  2.280063  0
O  O75  1  0.87793259  0.98745378  0.53786291  1  0  -0.766772  0  2.019827  0  0  -0.715899  0  2.276286  0  0  -0.75573  0  2.270577  0  0  -0.42156  -0.686819  0  2.278754  0
O  O76  1  0.48745159  0.37792969  0.03786308  1  0  -0.766739  0  2.019806  0  0  -0.715929  0  2.276248  0  0  -0.755757  0  2.270541  0  0  -0.421542  -0.686848  0  2.278724  0
O  O77  1  0.05018290  0.65991510  0.03771744  1  0  -0.767666  0  2.02082  0  0  -0.716402  0  2.277398  0  0  -0.756263  0  2.271656  0  0  -0.42174  -0.6873  0  2.27989  0
O  O78  1  0.84008345  0.44981259  0.46228181  1  0  -0.767606  0  2.02075  0  0  -0.716436  0  2.277369  0  0  -0.756298  0  2.271627  0  0  -0.421791  -0.687335  0  2.279853  0
O  O79  1  0.12208294  0.01254787  0.46214574  1  0  -0.766626  0  2.019836  0  0  -0.715858  0  2.276276  0  0  -0.755684  0  2.270569  0  0  -0.421633  -0.686784  0  2.27874  0
O  O80  1  0.04244734  0.49449557  0.83066989  1  0  -0.622689  0  2.128956  0  0  -0.567339  0  2.36372  0  0  -0.597872  0  2.355489  0  0  -0.322657  -0.545686  0  2.36881  0
O  O81  1  0.28831520  0.33557628  0.83076388  1  0  -0.622533  0  2.129332  0  0  -0.566582  0  2.364618  0  0  -0.597114  0  2.356373  0  0  -0.321859  -0.544923  0  2.369719  0
O  O82  1  0.16442432  0.21168504  0.66924052  1  0  -0.6222  0  2.130383  0  0  -0.566309  0  2.365688  0  0  -0.596831  0  2.357446  0  0  -0.321692  -0.544635  0  2.37077  0
O  O83  1  0.00550543  0.45753957  0.66932810  1  0  -0.622528  0  2.129753  0  0  -0.567191  0  2.36454  0  0  -0.597716  0  2.356307  0  0  -0.322572  -0.545522  0  2.369614  0
O  O84  1  0.95755065  0.50549903  0.16933133  1  0  -0.622642  0  2.12914  0  0  -0.56733  0  2.363862  0  0  -0.59786  0  2.355639  0  0  -0.322694  -0.545683  0  2.368939  0
O  O85  1  0.71167888  0.66441598  0.16923496  1  0  -0.622523  0  2.129415  0  0  -0.566662  0  2.364654  0  0  -0.597196  0  2.356402  0  0  -0.321903  -0.545007  0  2.369755  0
O  O86  1  0.83558349  0.78830598  0.33076442  1  0  -0.622252  0  2.130479  0  0  -0.566393  0  2.365693  0  0  -0.596919  0  2.357445  0  0  -0.321709  -0.54472  0  2.370775  0
O  O87  1  0.99450349  0.54245742  0.33066862  1  0  -0.622465  0  2.129999  0  0  -0.567116  0  2.364687  0  0  -0.597634  0  2.356464  0  0  -0.322551  -0.545455  0  2.369749  0
O  O88  1  0.42540802  0.72373587  0.15266926  1  0  -0.863573  0  1.82942  0  0  -0.820541  0  2.010821  0  0  -0.844583  0  1.980042  0  0  -0.602816  -0.803109  0  2.031709  0
O  O89  1  0.22723230  0.42942990  0.15282404  1  0  -0.864543  0  1.829462  0  0  -0.821235  0  2.011037  0  0  -0.845254  0  1.979489  0  0  -0.603762  -0.803844  0  2.031934  0
O  O90  1  0.07056579  0.27276218  0.34717140  1  0  -0.86475  0  1.829345  0  0  -0.821469  0  2.010885  0  0  -0.845487  0  1.979247  0  0  -0.603857  -0.804087  0  2.031808  0
O  O91  1  0.77626234  0.07459055  0.34732675  1  0  -0.863594  0  1.829374  0  0  -0.820587  0  2.010745  0  0  -0.84463  0  1.979947  0  0  -0.602839  -0.803165  0  2.031658  0
O  O92  1  0.57459548  0.27626347  0.84733231  1  0  -0.863541  0  1.829425  0  0  -0.820506  0  2.010809  0  0  -0.84455  0  1.980039  0  0  -0.60273  -0.80307  0  2.0317  0
O  O93  1  0.77276464  0.57057181  0.84717818  1  0  -0.86453  0  1.829504  0  0  -0.821215  0  2.011047  0  0  -0.845232  0  1.979539  0  0  -0.603749  -0.803818  0  2.031941  0
O  O94  1  0.92942874  0.72723247  0.65282255  1  0  -0.864595  0  1.829474  0  0  -0.821279  0  2.011  0  0  -0.845296  0  1.979467  0  0  -0.603782  -0.803892  0  2.031917  0
O  O95  1  0.22374329  0.92540762  0.65267162  1  0  -0.863653  0  1.829385  0  0  -0.820626  0  2.010766  0  0  -0.844668  0  1.979924  0  0  -0.602789  -0.803202  0  2.031681  0
