# generated using pymatgen
data_CuH6C6(SO)2
_symmetry_space_group_name_H-M   'P 1'
_cell_length_a   6.73535905
_cell_length_b   10.12211293
_cell_length_c   12.50072636
_cell_angle_alpha   89.99918683
_cell_angle_beta   89.99911030
_cell_angle_gamma   110.06179860
_symmetry_Int_Tables_number   1
_chemical_formula_structural   CuH6C6(SO)2
_chemical_formula_sum   'Cu4 H24 C24 S8 O8'
_cell_volume   800.53848710
_cell_formula_units_Z   4
loop_
 _symmetry_equiv_pos_site_id
 _symmetry_equiv_pos_as_xyz
  1  'x, y, z'
loop_
 _atom_site_type_symbol
 _atom_site_label
 _atom_site_symmetry_multiplicity
 _atom_site_fract_x
 _atom_site_fract_y
 _atom_site_fract_z
 _atom_site_occupancy
 _atom_site_pbe_bader_spin_density
 _atom_site_pbe_cm5_charge
 _atom_site_pbe_ddec_charge
 _atom_site_pbe_ddec_spin_density
 _atom_site_pbe_ddec_sum_bond_order
 _atom_site_pbe_magmom
Cu  Cu0  1  0.93402117  0.89405238  0.80039999  1  0  0.424846  0.308253  0  2.578701  0
Cu  Cu1  1  0.56596972  0.60593038  0.30039960  1  0  0.424829  0.308268  0  2.578522  0
Cu  Cu2  1  0.06596106  0.10593827  0.19960214  1  0  0.42483  0.308216  0  2.578676  0
Cu  Cu3  1  0.43404245  0.39405767  0.69959213  1  0  0.424795  0.308158  0  2.578842  0
H  H4  1  0.44414493  0.36260320  0.96103819  1  0  0.094606  0.152212  0  1.034415  0
H  H5  1  0.05583302  0.13739307  0.46104410  1  0  0.094623  0.152217  0  1.03438  0
H  H6  1  0.55583436  0.63739991  0.03897434  1  0  0.094673  0.152193  0  1.034363  0
H  H7  1  0.94415625  0.86260604  0.53895323  1  0  0.094605  0.152191  0  1.034427  0
H  H8  1  0.26475552  0.40844630  0.04919026  1  0  0.101306  0.15724  0  0.982926  0
H  H9  1  0.23522287  0.09154768  0.54919348  1  0  0.101292  0.157222  0  0.983041  0
H  H10  1  0.73522324  0.59154949  0.95082146  1  0  0.101298  0.157234  0  0.982988  0
H  H11  1  0.76476237  0.90844614  0.45080545  1  0  0.101321  0.157269  0  0.982945  0
H  H12  1  0.46478087  0.35343269  0.10582401  1  0  0.09237  0.143166  0  1.028125  0
H  H13  1  0.03520618  0.14656981  0.60583075  1  0  0.092359  0.143145  0  1.028115  0
H  H14  1  0.53519139  0.64656196  0.89418531  1  0  0.092422  0.143217  0  1.028024  0
H  H15  1  0.96479063  0.85343882  0.39416818  1  0  0.092349  0.143153  0  1.028158  0
H  H16  1  0.41721274  0.77720198  0.72287491  1  0  0.086976  0.133879  0  1.054854  0
H  H17  1  0.08278709  0.72281529  0.22286581  1  0  0.086954  0.133891  0  1.054836  0
H  H18  1  0.58277106  0.22280120  0.27713042  1  0  0.087002  0.133951  0  1.054762  0
H  H19  1  0.91725113  0.27718989  0.77712912  1  0  0.086981  0.133911  0  1.054774  0
H  H20  1  0.54645252  0.87696224  0.60928961  1  0  0.095442  0.149458  0  0.997285  0
H  H21  1  0.95355479  0.62305789  0.10928420  1  0  0.09545  0.149476  0  0.997343  0
H  H22  1  0.45353326  0.12303889  0.39071412  1  0  0.095437  0.149424  0  0.997312  0
H  H23  1  0.04648648  0.37695673  0.89071073  1  0  0.095446  0.149419  0  0.997364  0
H  H24  1  0.34906757  0.92559569  0.68009079  1  0  0.094761  0.158884  0  1.03419  0
H  H25  1  0.15094914  0.57443363  0.18007811  1  0  0.094688  0.158878  0  1.034211  0
H  H26  1  0.65092074  0.07441070  0.31991374  1  0  0.094768  0.158915  0  1.034236  0
H  H27  1  0.84908010  0.42557452  0.81991442  1  0  0.094668  0.158762  0  1.034258  0
C  C28  1  0.36569319  0.13683038  0.82216568  1  0  0.198488  0.555536  0  4.251282  0
C  C29  1  0.13430004  0.36316212  0.32216554  1  0  0.198457  0.555502  0  4.251643  0
C  C30  1  0.63429410  0.86317391  0.17783804  1  0  0.198495  0.555562  0  4.251216  0
C  C31  1  0.86571212  0.63682592  0.67783499  1  0  0.198388  0.555413  0  4.25153  0
C  C32  1  0.43341819  0.06355099  0.91363054  1  0  -0.007942  -0.078182  0  3.932866  0
C  C33  1  0.06657158  0.43644220  0.41362925  1  0  -0.007937  -0.078114  0  3.932912  0
C  C34  1  0.56655958  0.93644584  0.08636839  1  0  -0.007969  -0.078185  0  3.932944  0
C  C35  1  0.93344365  0.56355841  0.58636408  1  0  -0.007931  -0.078186  0  3.93296  0
C  C36  1  0.35483607  0.06946498  0.01701208  1  0  -0.008169  0.003489  0  3.951312  0
C  C37  1  0.14516783  0.43053463  0.51700821  1  0  -0.008098  0.003562  0  3.951208  0
C  C38  1  0.64516418  0.93053536  0.98299085  1  0  -0.008052  0.00361  0  3.950952  0
C  C39  1  0.85484341  0.56946695  0.48298512  1  0  -0.008066  0.003664  0  3.951093  0
C  C40  1  0.57932736  0.99422231  0.89610161  1  0  -0.004354  0.012994  0  3.922103  0
C  C41  1  0.92068224  0.50578704  0.39609406  1  0  -0.004359  0.012909  0  3.922263  0
C  C42  1  0.42066446  0.00578831  0.10390292  1  0  -0.004251  0.013036  0  3.922402  0
C  C43  1  0.07933950  0.49421786  0.60389847  1  0  -0.00435  0.012976  0  3.922346  0
C  C44  1  0.35893148  0.34037603  0.03722317  1  0  -0.233461  -0.391537  0  3.841502  0
C  C45  1  0.14104902  0.15961849  0.53722677  1  0  -0.233466  -0.391519  0  3.841315  0
C  C46  1  0.64104930  0.65962398  0.96278536  1  0  -0.233598  -0.391592  0  3.841516  0
C  C47  1  0.85894474  0.84038069  0.46277216  1  0  -0.233467  -0.391532  0  3.841469  0
C  C48  1  0.47657608  0.88252903  0.68768019  1  0  -0.232595  -0.387225  0  3.833377  0
C  C49  1  0.02343893  0.61749303  0.18767102  1  0  -0.232468  -0.387192  0  3.8335  0
C  C50  1  0.52341621  0.11747639  0.31232514  1  0  -0.232607  -0.387238  0  3.833408  0
C  C51  1  0.97659681  0.38251627  0.81232151  1  0  -0.232457  -0.387022  0  3.833397  0
S  S52  1  0.17177601  0.16116755  0.03358047  1  0  -0.034449  0.028464  0  3.354206  0
S  S53  1  0.32822376  0.33882882  0.53357709  1  0  -0.034427  0.028467  0  3.354047  0
S  S54  1  0.82822072  0.83882857  0.96642006  1  0  -0.034432  0.028452  0  3.354159  0
S  S55  1  0.67178746  0.66116963  0.46641464  1  0  -0.034422  0.02847  0  3.354142  0
S  S56  1  0.69286175  0.99884466  0.76632355  1  0  -0.014256  0.06906  0  3.224391  0
S  S57  1  0.80715315  0.50115854  0.26631360  1  0  -0.014351  0.068898  0  3.224428  0
S  S58  1  0.30713000  0.00115345  0.23368258  1  0  -0.014288  0.069035  0  3.224374  0
S  S59  1  0.19287709  0.49884858  0.73367653  1  0  -0.014309  0.069006  0  3.224346  0
O  O60  1  0.20452422  0.06962649  0.76785362  1  0  -0.323503  -0.521727  0  2.44302  0
O  O61  1  0.29546881  0.43035422  0.26784711  1  0  -0.32349  -0.521705  0  2.443183  0
O  O62  1  0.79546004  0.93037149  0.23215731  1  0  -0.323517  -0.521757  0  2.443018  0
O  O63  1  0.70454025  0.56961500  0.73215422  1  0  -0.323455  -0.521656  0  2.443101  0
O  O64  1  0.48278328  0.26432976  0.80735891  1  0  -0.330123  -0.49398  0  2.470032  0
O  O65  1  0.01722318  0.23566383  0.30737164  1  0  -0.330127  -0.494017  0  2.470177  0
O  O66  1  0.51721650  0.73567579  0.19264082  1  0  -0.330126  -0.494009  0  2.470042  0
O  O67  1  0.98276753  0.76432592  0.69262969  1  0  -0.330051  -0.493929  0  2.470195  0
