# generated using pymatgen
data_AgH3C3N2
_symmetry_space_group_name_H-M   'P 1'
_cell_length_a   9.22792385
_cell_length_b   11.41396407
_cell_length_c   16.48198157
_cell_angle_alpha   90.00001372
_cell_angle_beta   89.99997155
_cell_angle_gamma   105.58864892
_symmetry_Int_Tables_number   1
_chemical_formula_structural   AgH3C3N2
_chemical_formula_sum   'Ag16 H48 C48 N32'
_cell_volume   1672.14346560
_cell_formula_units_Z   16
loop_
 _symmetry_equiv_pos_site_id
 _symmetry_equiv_pos_as_xyz
  1  'x, y, z'
loop_
 _atom_site_type_symbol
 _atom_site_label
 _atom_site_symmetry_multiplicity
 _atom_site_fract_x
 _atom_site_fract_y
 _atom_site_fract_z
 _atom_site_occupancy
 _atom_site_pbe_bader_spin_density
 _atom_site_pbe_cm5_charge
 _atom_site_pbe_ddec_charge
 _atom_site_pbe_ddec_spin_density
 _atom_site_pbe_ddec_sum_bond_order
 _atom_site_pbe_magmom
Ag  Ag0  1  0.88120006  0.11918887  0.20120203  1  0  0.447193  0.265657  0  2.082267  0
Ag  Ag1  1  0.61880380  0.88081048  0.70120087  1  0  0.44719  0.265633  0  2.082349  0
Ag  Ag2  1  0.11880270  0.88081233  0.79879843  1  0  0.447198  0.265648  0  2.082379  0
Ag  Ag3  1  0.38120003  0.11919071  0.29879716  1  0  0.447186  0.265666  0  2.082253  0
Ag  Ag4  1  0.30511752  0.59124660  0.06683238  1  0  0.452618  0.291533  0  1.868604  0
Ag  Ag5  1  0.19488370  0.40875459  0.56683294  1  0  0.452645  0.291564  0  1.868612  0
Ag  Ag6  1  0.69488416  0.40875460  0.93316565  1  0  0.452658  0.291578  0  1.86864  0
Ag  Ag7  1  0.80511550  0.59124572  0.43316812  1  0  0.452642  0.29156  0  1.868611  0
Ag  Ag8  1  0.58523546  0.13754984  0.12259745  1  0  0.446067  0.278132  0  2.064316  0
Ag  Ag9  1  0.91476089  0.86244955  0.62259559  1  0  0.446075  0.278161  0  2.064355  0
Ag  Ag10  1  0.41475833  0.86245051  0.87740362  1  0  0.446102  0.278164  0  2.06429  0
Ag  Ag11  1  0.08523305  0.13754806  0.37740304  1  0  0.446083  0.278129  0  2.064397  0
Ag  Ag12  1  0.37738900  0.67859388  0.31125627  1  0  0.468365  0.285926  0  1.943255  0
Ag  Ag13  1  0.12261555  0.32140185  0.81125623  1  0  0.468373  0.285978  0  1.943224  0
Ag  Ag14  1  0.62261513  0.32140184  0.68874540  1  0  0.468368  0.285951  0  1.943266  0
Ag  Ag15  1  0.87738905  0.67859842  0.18874180  1  0  0.468358  0.285915  0  1.943227  0
H  H16  1  0.16162301  0.37060460  0.19451727  1  0  0.117903  0.08596  0  1.061847  0
H  H17  1  0.33838336  0.62939931  0.69451904  1  0  0.117934  0.086001  0  1.061832  0
H  H18  1  0.83838346  0.62940113  0.80548197  1  0  0.11793  0.086013  0  1.06184  0
H  H19  1  0.66162388  0.37060550  0.30548202  1  0  0.117912  0.086005  0  1.061822  0
H  H20  1  0.86920024  0.19311176  0.00914503  1  0  0.102606  0.095029  0  1.058088  0
H  H21  1  0.63079730  0.80688760  0.50914204  1  0  0.102614  0.095046  0  1.058097  0
H  H22  1  0.13080004  0.80688854  0.99085785  1  0  0.102612  0.095034  0  1.058097  0
H  H23  1  0.36920205  0.19310998  0.49085417  1  0  0.102596  0.095028  0  1.058102  0
H  H24  1  0.05200198  0.40982644  0.94964434  1  0  0.094729  0.084629  0  1.086833  0
H  H25  1  0.44799397  0.59017302  0.44964556  1  0  0.094735  0.084634  0  1.086779  0
H  H26  1  0.94799583  0.59017297  0.05035369  1  0  0.094739  0.084652  0  1.086781  0
H  H27  1  0.55200074  0.40982367  0.55035611  1  0  0.094719  0.08464  0  1.086806  0
H  H28  1  0.33434862  0.87012542  0.12189860  1  0  0.115694  0.084856  0  1.062467  0
H  H29  1  0.16564807  0.12987216  0.62189972  1  0  0.115717  0.084903  0  1.062464  0
H  H30  1  0.66564749  0.12987218  0.87810065  1  0  0.115717  0.084899  0  1.062461  0
H  H31  1  0.83434803  0.87012543  0.37810134  1  0  0.115697  0.08485  0  1.062524  0
H  H32  1  0.65997066  0.72065567  0.01479188  1  0  0.10731  0.111615  0  1.021089  0
H  H33  1  0.84002858  0.27934550  0.51479177  1  0  0.107336  0.111651  0  1.021064  0
H  H34  1  0.34002948  0.27934737  0.98520797  1  0  0.107336  0.111658  0  1.021059  0
H  H35  1  0.15996986  0.72065572  0.48520747  1  0  0.107298  0.111587  0  1.021162  0
H  H36  1  0.77868769  0.97051343  0.03410934  1  0  0.104049  0.0976  0  1.041987  0
H  H37  1  0.72130967  0.02948868  0.53410801  1  0  0.104056  0.097607  0  1.042059  0
H  H38  1  0.22131059  0.02949054  0.96589172  1  0  0.104055  0.097617  0  1.042063  0
H  H39  1  0.27868691  0.97051348  0.46589062  1  0  0.10406  0.097607  0  1.041984  0
H  H40  1  0.34981236  0.39234241  0.34334280  1  0  0.11529  0.081823  0  1.067294  0
H  H41  1  0.15018597  0.60764790  0.84334098  1  0  0.115278  0.081867  0  1.067308  0
H  H42  1  0.65018589  0.60764879  0.65665826  1  0  0.115268  0.081844  0  1.067333  0
H  H43  1  0.84981275  0.39234785  0.15665826  1  0  0.115292  0.081833  0  1.067355  0
H  H44  1  0.00718358  0.56786584  0.30480381  1  0  0.088078  0.070434  0  1.110187  0
H  H45  1  0.49282609  0.43213533  0.80480611  1  0  0.088062  0.07042  0  1.110201  0
H  H46  1  0.99282381  0.43213624  0.69519725  1  0  0.088059  0.070408  0  1.110137  0
H  H47  1  0.50718347  0.56786673  0.19519617  1  0  0.088102  0.070469  0  1.110135  0
H  H48  1  0.87775799  0.32473528  0.34146128  1  0  0.102616  0.093122  0  1.062651  0
H  H49  1  0.62223773  0.67526598  0.84146372  1  0  0.102678  0.093144  0  1.062657  0
H  H50  1  0.12223967  0.67526687  0.65853857  1  0  0.102636  0.093127  0  1.062651  0
H  H51  1  0.37775809  0.32473709  0.15854038  1  0  0.102624  0.093124  0  1.062629  0
H  H52  1  0.67181733  0.83573975  0.20456336  1  0  0.112183  0.07473  0  1.060159  0
H  H53  1  0.82818190  0.16425872  0.70456142  1  0  0.112195  0.074786  0  1.060152  0
H  H54  1  0.32818265  0.16425965  0.79543891  1  0  0.112192  0.074787  0  1.060136  0
H  H55  1  0.17181730  0.83574159  0.29543722  1  0  0.11217  0.074713  0  1.06006  0
H  H56  1  0.72103012  0.11432988  0.37879538  1  0  0.106691  0.106753  0  1.032009  0
H  H57  1  0.77896926  0.88566953  0.87879539  1  0  0.10672  0.106794  0  1.031971  0
H  H58  1  0.27897016  0.88567042  0.62120447  1  0  0.106716  0.106795  0  1.03196  0
H  H59  1  0.22103303  0.11433350  0.12120446  1  0  0.106709  0.106811  0  1.031928  0
H  H60  1  0.48467192  0.91712199  0.42378946  1  0  0.106272  0.102097  0  1.039056  0
H  H61  1  0.01532514  0.08287746  0.92378881  1  0  0.106298  0.102122  0  1.039051  0
H  H62  1  0.51532589  0.08287742  0.57621099  1  0  0.106288  0.102099  0  1.03907  0
H  H63  1  0.98467608  0.91712557  0.07620983  1  0  0.10629  0.102115  0  1.039051  0
C  C64  1  0.10858828  0.35078075  0.13560385  1  0  0.102104  0.10733  0  3.98723  0
C  C65  1  0.39141505  0.64922043  0.63560501  1  0  0.10208  0.107293  0  3.987344  0
C  C66  1  0.89141695  0.64922134  0.86439478  1  0  0.102075  0.107262  0  3.987356  0
C  C67  1  0.60858987  0.35078075  0.36439606  1  0  0.102095  0.107251  0  3.987303  0
C  C68  1  0.95863652  0.26086736  0.03879741  1  0  -0.032823  -0.084679  0  4.040409  0
C  C69  1  0.54136284  0.73913109  0.53879624  1  0  -0.032772  -0.084642  0  4.040537  0
C  C70  1  0.04136453  0.73913203  0.96120365  1  0  -0.032787  -0.084617  0  4.040568  0
C  C71  1  0.45863466  0.26086741  0.46120118  1  0  -0.032799  -0.084649  0  4.040412  0
C  C72  1  0.04960402  0.36864191  0.00904930  1  0  -0.029877  -0.068116  0  4.050225  0
C  C73  1  0.45039277  0.63135566  0.50905043  1  0  -0.029868  -0.068064  0  4.050124  0
C  C74  1  0.95039533  0.63135567  0.99094934  1  0  -0.029876  -0.068138  0  4.050219  0
C  C75  1  0.54960442  0.36864193  0.49095063  1  0  -0.029873  -0.068136  0  4.05011  0
C  C76  1  0.43908976  0.86348838  0.09523613  1  0  0.10155  0.105899  0  4.001437  0
C  C77  1  0.06090974  0.13651100  0.59523426  1  0  0.101475  0.105801  0  4.001461  0
C  C78  1  0.56090805  0.13651103  0.90476493  1  0  0.101508  0.105812  0  4.001429  0
C  C79  1  0.93908776  0.86348750  0.40476377  1  0  0.101559  0.105919  0  4.001438  0
C  C80  1  0.60998726  0.78843334  0.04017598  1  0  -0.031369  -0.079186  0  4.034078  0
C  C81  1  0.89001411  0.21156782  0.54017584  1  0  -0.031398  -0.079286  0  4.034156  0
C  C82  1  0.39001364  0.21156878  0.95982387  1  0  -0.031416  -0.079318  0  4.034129  0
C  C83  1  0.10998648  0.78843339  0.45982401  1  0  -0.031344  -0.079154  0  4.034108  0
C  C84  1  0.66915103  0.91230553  0.05026942  1  0  -0.028514  -0.079645  0  4.054589  0
C  C85  1  0.83084632  0.08769657  0.55026747  1  0  -0.02852  -0.079609  0  4.054543  0
C  C86  1  0.33084617  0.08769844  0.94973225  1  0  -0.028532  -0.079656  0  4.054577  0
C  C87  1  0.16915103  0.91230466  0.44973056  1  0  -0.028514  -0.079642  0  4.054575  0
C  C88  1  0.23898861  0.40716241  0.33814077  1  0  0.100127  0.101133  0  4.000209  0
C  C89  1  0.26100912  0.59283247  0.83814013  1  0  0.100113  0.101011  0  4.000207  0
C  C90  1  0.76100903  0.59283336  0.66185968  1  0  0.10011  0.101038  0  4.000246  0
C  C91  1  0.73899022  0.40716511  0.16186093  1  0  0.10011  0.101039  0  4.000336  0
C  C92  1  0.05948246  0.49553357  0.31843080  1  0  -0.031197  -0.069865  0  4.050466  0
C  C93  1  0.44052256  0.50446672  0.81843191  1  0  -0.031157  -0.069784  0  4.050384  0
C  C94  1  0.94052214  0.50446670  0.68157027  1  0  -0.031132  -0.069778  0  4.050306  0
C  C95  1  0.55948019  0.49553448  0.18156612  1  0  -0.031244  -0.069967  0  4.050444  0
C  C96  1  0.99516464  0.37460920  0.33636722  1  0  -0.029833  -0.078428  0  4.047743  0
C  C97  1  0.50483510  0.62539111  0.83636847  1  0  -0.029851  -0.078467  0  4.047734  0
C  C98  1  0.00483348  0.62539112  0.66363385  1  0  -0.02981  -0.078425  0  4.047723  0
C  C99  1  0.49516473  0.37461102  0.16363259  1  0  -0.029826  -0.078422  0  4.04777  0
C  C100  1  0.65379554  0.88426779  0.25862665  1  0  0.10654  0.120043  0  3.998497  0
C  C101  1  0.84620440  0.11572977  0.75862530  1  0  0.106498  0.119963  0  3.998501  0
C  C102  1  0.34620412  0.11573069  0.74137502  1  0  0.106518  0.120011  0  3.998411  0
C  C103  1  0.15379619  0.88427144  0.24137333  1  0  0.106564  0.120119  0  3.998303  0
C  C104  1  0.67604093  0.02744845  0.34914785  1  0  -0.030019  -0.0773  0  4.057141  0
C  C105  1  0.82395771  0.97255187  0.84914726  1  0  -0.030076  -0.077403  0  4.057183  0
C  C106  1  0.32395827  0.97255186  0.65085260  1  0  -0.030054  -0.077386  0  4.057165  0
C  C107  1  0.17604473  0.02744842  0.15085138  1  0  -0.030065  -0.077438  0  4.057198  0
C  C108  1  0.55836843  0.93003910  0.37153421  1  0  -0.032237  -0.077244  0  4.042245  0
C  C109  1  0.94162957  0.06995941  0.87153343  1  0  -0.032204  -0.077177  0  4.042198  0
C  C110  1  0.44163046  0.06996030  0.62846625  1  0  -0.032207  -0.077171  0  4.042201  0
C  C111  1  0.05837319  0.93004179  0.12846520  1  0  -0.032209  -0.077164  0  4.042209  0
N  N112  1  0.99690104  0.25022787  0.11906930  1  0  -0.405966  -0.249008  0  3.692898  0
N  N113  1  0.50310428  0.74977237  0.61906815  1  0  -0.40604  -0.2491  0  3.69314  0
N  N114  1  0.00310496  0.74977330  0.88093236  1  0  -0.406041  -0.249122  0  3.693216  0
N  N115  1  0.49690064  0.25022882  0.38092988  1  0  -0.40598  -0.249022  0  3.693071  0
N  N116  1  0.14455242  0.42492632  0.07057284  1  0  -0.405642  -0.250033  0  3.693217  0
N  N117  1  0.35544678  0.57507215  0.57057399  1  0  -0.405654  -0.250046  0  3.693199  0
N  N118  1  0.85544832  0.57507216  0.92942580  1  0  -0.405642  -0.249996  0  3.693231  0
N  N119  1  0.64455288  0.42492634  0.42942707  1  0  -0.405632  -0.249981  0  3.693257  0
N  N120  1  0.46360990  0.75845471  0.06881879  1  0  -0.407664  -0.265074  0  3.737198  0
N  N121  1  0.03638993  0.24154557  0.56881815  1  0  -0.407674  -0.265063  0  3.73721  0
N  N122  1  0.53638962  0.24154651  0.93118106  1  0  -0.407697  -0.265083  0  3.737202  0
N  N123  1  0.96360896  0.75845383  0.43118170  1  0  -0.407693  -0.265113  0  3.737204  0
N  N124  1  0.56053231  0.95882498  0.08527980  1  0  -0.403062  -0.240884  0  3.695219  0
N  N125  1  0.93946300  0.04117441  0.58527901  1  0  -0.403011  -0.240848  0  3.695049  0
N  N126  1  0.43946256  0.04117536  0.91472066  1  0  -0.403005  -0.240789  0  3.694976  0
N  N127  1  0.06053234  0.95882411  0.41471962  1  0  -0.40309  -0.240894  0  3.695199  0
N  N128  1  0.10938022  0.31936499  0.34861343  1  0  -0.403942  -0.257514  0  3.724916  0
N  N129  1  0.39061489  0.68063172  0.84861398  1  0  -0.403936  -0.257475  0  3.724819  0
N  N130  1  0.89061589  0.68063260  0.65138702  1  0  -0.403922  -0.257512  0  3.724883  0
N  N131  1  0.60938184  0.31936769  0.15138890  1  0  -0.4039  -0.25742  0  3.72483  0
N  N132  1  0.21380571  0.51537343  0.31959083  1  0  -0.409909  -0.253575  0  3.710041  0
N  N133  1  0.28620023  0.48462321  0.81959138  1  0  -0.409971  -0.253601  0  3.709997  0
N  N134  1  0.78619873  0.48462320  0.68041023  1  0  -0.409963  -0.253592  0  3.709992  0
N  N135  1  0.71380407  0.51537616  0.18040908  1  0  -0.40988  -0.25346  0  3.709813  0
N  N136  1  0.54523119  0.83972425  0.31386274  1  0  -0.40884  -0.251932  0  3.703919  0
N  N137  1  0.95476578  0.16027425  0.81386197  1  0  -0.408836  -0.25198  0  3.703876  0
N  N138  1  0.45476662  0.16027516  0.68613772  1  0  -0.408854  -0.251996  0  3.703822  0
N  N139  1  0.04523450  0.83972605  0.18613666  1  0  -0.40885  -0.251984  0  3.703825  0
N  N140  1  0.73593918  0.99756665  0.27774632  1  0  -0.407118  -0.261856  0  3.718506  0
N  N141  1  0.76405782  0.00243185  0.77774679  1  0  -0.407123  -0.261825  0  3.718477  0
N  N142  1  0.26405755  0.00243277  0.72225293  1  0  -0.407125  -0.261832  0  3.718502  0
N  N143  1  0.23594247  0.99756845  0.22225245  1  0  -0.407143  -0.261891  0  3.718532  0
