# generated using pymatgen
data_TiH11C22O5
_symmetry_space_group_name_H-M   'P 1'
_cell_length_a   6.77699925
_cell_length_b   16.19006004
_cell_length_c   29.82378988
_cell_angle_alpha   89.97552779
_cell_angle_beta   89.45581951
_cell_angle_gamma   87.70089965
_symmetry_Int_Tables_number   1
_chemical_formula_structural   TiH11C22O5
_chemical_formula_sum   'Ti4 H44 C88 O20'
_cell_volume   3269.48539805
_cell_formula_units_Z   4
loop_
 _symmetry_equiv_pos_site_id
 _symmetry_equiv_pos_as_xyz
  1  'x, y, z'
loop_
 _atom_site_type_symbol
 _atom_site_label
 _atom_site_symmetry_multiplicity
 _atom_site_fract_x
 _atom_site_fract_y
 _atom_site_fract_z
 _atom_site_occupancy
 _atom_site_pbe_bader_charge
 _atom_site_pbe_bader_spin_density
 _atom_site_pbe_cm5_charge
 _atom_site_pbe_ddec_charge
 _atom_site_pbe_ddec_spin_density
 _atom_site_pbe_ddec_sum_bond_order
 _atom_site_pbe_magmom
Ti  Ti0  1  0.28372349  0.00020120  0.25519579  1  2.242433  0  1.458399  2.067824  0  2.632981  0
Ti  Ti1  1  0.71995271  0.99979777  0.74583179  1  2.239666  0  1.457464  2.066576  0  2.635269  0
Ti  Ti2  1  0.21965718  0.99960278  0.75508634  1  2.24108  0  1.456698  2.065939  0  2.636226  0
Ti  Ti3  1  0.78403005  0.00008892  0.24587721  1  2.241764  0  1.456571  2.065232  0  2.636062  0
H  H4  1  0.46494224  0.29108338  0.04217501  1  0.089366  0  0.101779  0.105946  0  1.012792  0
H  H5  1  0.49327337  0.50172912  0.15515703  1  0.033885  0  0.101734  0.108053  0  1.003808  0
H  H6  1  0.47011807  0.29007283  0.96012487  1  0.083347  0  0.101974  0.106308  0  1.012302  0
H  H7  1  0.50946664  0.49806584  0.84583175  1  0.067886  0  0.101723  0.10852  0  1.003533  0
H  H8  1  0.53723273  0.70875115  0.95884640  1  0.082042  0  0.101661  0.10561  0  1.01409  0
H  H9  1  0.53202164  0.70973438  0.04089395  1  0.078701  0  0.101746  0.105763  0  1.011693  0
H  H10  1  0.97439426  0.29039803  0.54164911  1  0.073561  0  0.101404  0.105466  0  1.011655  0
H  H11  1  0.01912899  0.49911134  0.65499198  1  0.039676  0  0.101812  0.108555  0  1.003695  0
H  H12  1  0.96299059  0.29080409  0.45966591  1  0.084256  0  0.102008  0.106505  0  1.014105  0
H  H13  1  0.98528116  0.50064956  0.34583457  1  0.067061  0  0.101738  0.108334  0  1.003105  0
H  H14  1  0.03177939  0.70936306  0.45918195  1  0.071987  0  0.10183  0.106791  0  1.011503  0
H  H15  1  0.04175630  0.70902035  0.54118055  1  0.074994  0  0.102064  0.106085  0  1.012515  0
H  H16  1  0.26811057  0.29983794  0.40523051  1  0.068904  0  0.10497  0.107586  0  0.993001  0
H  H17  1  0.27272317  0.17008049  0.35972927  1  0.109113  0  0.11541  0.124754  0  0.979818  0
H  H18  1  0.71401536  0.37723122  0.34586872  1  0.049171  0  0.102506  0.104969  0  0.996979  0
H  H19  1  0.71329096  0.24473754  0.30279482  1  0.102029  0  0.111269  0.117004  0  0.98748  0
H  H20  1  0.21849458  0.24542101  0.19968498  1  0.076679  0  0.111702  0.117347  0  0.987963  0
H  H21  1  0.77853729  0.17105753  0.14056316  1  0.094886  0  0.114892  0.124416  0  0.97762  0
H  H22  1  0.77351781  0.30080026  0.09498834  1  0.048426  0  0.105054  0.107863  0  0.992931  0
H  H23  1  0.21924784  0.37800245  0.15665222  1  0.053656  0  0.102554  0.104945  0  0.995084  0
H  H24  1  0.23254011  0.83318773  0.14416866  1  0.09929  0  0.115984  0.125743  0  0.977394  0
H  H25  1  0.22027906  0.70359779  0.09881346  1  0.076184  0  0.104869  0.107779  0  0.993417  0
H  H26  1  0.78697818  0.62257541  0.15056803  1  0.079867  0  0.102527  0.104535  0  0.997347  0
H  H27  1  0.80557846  0.75556501  0.19268915  1  0.114377  0  0.110921  0.116928  0  0.986705  0
H  H28  1  0.72661663  0.83228302  0.35737524  1  0.076441  0  0.115553  0.125207  0  0.976411  0
H  H29  1  0.28183127  0.62196345  0.34899955  1  0.047867  0  0.102355  0.1051  0  0.995794  0
H  H30  1  0.30079600  0.75506395  0.30687810  1  0.109657  0  0.111809  0.117509  0  0.987526  0
H  H31  1  0.71406809  0.70253626  0.40276128  1  0.088118  0  0.104696  0.107884  0  0.992491  0
H  H32  1  0.70278540  0.24480196  0.69368333  1  0.097134  0  0.11179  0.117863  0  0.98764  0
H  H33  1  0.27766157  0.16748602  0.64367262  1  0.103003  0  0.115892  0.125624  0  0.977449  0
H  H34  1  0.72243967  0.37783176  0.65152021  1  0.073744  0  0.102569  0.1048  0  0.996281  0
H  H35  1  0.29081060  0.29707030  0.59816166  1  0.07843  0  0.104704  0.107886  0  0.992123  0
H  H36  1  0.29048712  0.62292388  0.65498100  1  0.062807  0  0.102752  0.105147  0  0.996639  0
H  H37  1  0.29033249  0.75548707  0.69800418  1  0.116397  0  0.111963  0.117949  0  0.987291  0
H  H38  1  0.73028101  0.82939754  0.64115627  1  0.117491  0  0.114797  0.123688  0  0.978571  0
H  H39  1  0.73588326  0.69966868  0.59562700  1  0.064147  0  0.104731  0.107079  0  0.994293  0
H  H40  1  0.22487464  0.82867297  0.86011877  1  0.112895  0  0.115177  0.124596  0  0.979695  0
H  H41  1  0.22929749  0.69906925  0.90578128  1  0.092599  0  0.105573  0.109837  0  0.991044  0
H  H42  1  0.78555673  0.75424031  0.80134403  1  0.096861  0  0.111622  0.117374  0  0.987358  0
H  H43  1  0.78436724  0.62177859  0.84450095  1  0.034664  0  0.102467  0.104631  0  0.997524  0
H  H44  1  0.77070043  0.16648751  0.85716589  1  0.126864  0  0.115508  0.125015  0  0.976565  0
H  H45  1  0.19835573  0.24403788  0.80817654  1  0.095904  0  0.111077  0.116461  0  0.98842  0
H  H46  1  0.21636994  0.37711402  0.85022002  1  0.060087  0  0.102355  0.10433  0  0.996274  0
H  H47  1  0.78235753  0.29625607  0.90244717  1  0.055317  0  0.10493  0.107815  0  0.992501  0
C  C48  1  0.49768713  0.12181305  0.19818890  1  1.533729  0  0.244044  0.647519  0  4.116239  0
C  C49  1  0.48016237  0.34874626  0.02385652  1  -0.063134  0  -0.093476  -0.130063  0  4.027282  0
C  C50  1  0.49960896  0.50018143  0.02447825  1  0.027641  0  0.003277  0.010746  0  3.906768  0
C  C51  1  0.49433037  0.42536373  0.09622071  1  -0.031546  0  -0.005943  0.022907  0  3.994085  0
C  C52  1  0.49378204  0.42390822  0.04867531  1  -0.002765  0  -0.006533  0.030492  0  3.997471  0
C  C53  1  0.49416660  0.50125542  0.11856147  1  -0.023565  0  -0.092814  -0.187772  0  4.008027  0
C  C54  1  0.34057986  0.25884841  0.17713251  1  0.039305  0  -0.077907  -0.078538  0  3.969651  0
C  C55  1  0.34151608  0.33248558  0.15302623  1  -0.051423  0  -0.091009  -0.142377  0  3.982849  0
C  C56  1  0.65274315  0.28886463  0.11823296  1  -0.028088  0  -0.088499  -0.140448  0  3.989514  0
C  C57  1  0.65585543  0.21645531  0.14336405  1  0.006693  0  -0.076622  -0.080046  0  3.964444  0
C  C58  1  0.47373792  0.11966662  0.80426581  1  1.542724  0  0.245371  0.649592  0  4.120064  0
C  C59  1  0.48297041  0.34818928  0.97807614  1  -0.078426  0  -0.094236  -0.13031  0  4.026329  0
C  C60  1  0.50303188  0.49961630  0.97651380  1  -0.033575  0  0.002419  0.006487  0  3.915223  0
C  C61  1  0.50512625  0.42322264  0.90530304  1  -0.068131  0  -0.006518  0.022955  0  3.992844  0
C  C62  1  0.49983319  0.42278483  0.95282319  1  -0.002457  0  -0.006134  0.030986  0  4.00437  0
C  C63  1  0.50848030  0.49854109  0.88243124  1  -0.069376  0  -0.092604  -0.18824  0  4.004171  0
C  C64  1  0.50609290  0.87787466  0.80269830  1  1.54462  0  0.244772  0.648348  0  4.113667  0
C  C65  1  0.52235728  0.65106653  0.97714288  1  -0.147031  0  -0.093552  -0.130001  0  4.024409  0
C  C66  1  0.50852572  0.57446190  0.90477480  1  0.064681  0  -0.006926  0.02239  0  3.990725  0
C  C67  1  0.50895960  0.57589850  0.95231647  1  -0.061374  0  -0.006621  0.030558  0  3.996814  0
C  C68  1  0.50561867  0.79921402  0.82836733  1  -0.016565  0  -0.016712  -0.044915  0  3.969809  0
C  C69  1  0.50745162  0.65187988  0.87827404  1  -0.033808  0  0.000604  0.085983  0  4.000625  0
C  C70  1  0.48338111  0.19768062  0.83027771  1  -0.013544  0  -0.015744  -0.04359  0  3.969296  0
C  C71  1  0.32677188  0.25681024  0.82838855  1  -0.024833  0  -0.078834  -0.079997  0  3.972983  0
C  C72  1  0.33716323  0.33061664  0.85197926  1  -0.027402  0  -0.090968  -0.141372  0  3.985538  0
C  C73  1  0.49994122  0.34528625  0.87929574  1  -0.019218  0  -0.000438  0.084638  0  3.998426  0
C  C74  1  0.65524511  0.28517155  0.88138121  1  0.010902  0  -0.089048  -0.142139  0  3.988148  0
C  C75  1  0.64909529  0.21266023  0.85644588  1  -0.105455  0  -0.076392  -0.0795  0  3.961403  0
C  C76  1  0.52993525  0.87995507  0.19688857  1  1.546814  0  0.244009  0.645855  0  4.122075  0
C  C77  1  0.51947154  0.65161893  0.02292111  1  0.073947  0  -0.093179  -0.128817  0  4.021355  0
C  C78  1  0.49746260  0.57657801  0.09568780  1  0.061133  0  -0.007122  0.021639  0  3.994933  0
C  C79  1  0.50275439  0.57700159  0.04817503  1  -0.090301  0  -0.006913  0.029916  0  3.997219  0
C  C80  1  0.52013894  0.80197521  0.17085594  1  -0.014176  0  -0.016154  -0.043839  0  3.970872  0
C  C81  1  0.67685093  0.74285095  0.17257249  1  0.003564  0  -0.078105  -0.078964  0  3.973291  0
C  C82  1  0.66621928  0.66911614  0.14892974  1  -0.148105  0  -0.091504  -0.143091  0  3.989221  0
C  C83  1  0.50301670  0.65448839  0.12170924  1  -0.034888  0  3.9e-05  0.086351  0  3.999729  0
C  C84  1  0.34768856  0.71461964  0.11977840  1  -0.041999  0  -0.089315  -0.142338  0  3.989884  0
C  C85  1  0.35415276  0.78704415  0.14476994  1  -0.004373  0  -0.076391  -0.080329  0  3.964783  0
C  C86  1  0.49812323  0.20047049  0.17250287  1  -0.043425  0  -0.01664  -0.045942  0  3.97237  0
C  C87  1  0.49583493  0.34793603  0.12271199  1  -0.040708  0  -0.000667  0.085323  0  3.999085  0
C  C88  1  0.66323439  0.74085730  0.82386055  1  -0.045863  0  -0.078592  -0.080034  0  3.97105  0
C  C89  1  0.66209588  0.66730353  0.84803709  1  0.001331  0  -0.090444  -0.141045  0  3.987262  0
C  C90  1  0.35048703  0.71095795  0.88262848  1  -0.079545  0  -0.089433  -0.14293  0  3.992035  0
C  C91  1  0.34762958  0.78328961  0.85743438  1  -0.021157  0  -0.077345  -0.080897  0  3.969281  0
C  C92  1  0.97817214  0.12057894  0.69718110  1  1.54653  0  0.243583  0.643591  0  4.12136  0
C  C93  1  0.98595407  0.34835441  0.52340238  1  -0.009094  0  -0.092593  -0.12692  0  4.02038  0
C  C94  1  0.00612860  0.49978298  0.52437207  1  0.015832  0  0.002833  0.009339  0  3.911352  0
C  C95  1  0.01258909  0.42389684  0.59574646  1  0.041784  0  -0.007498  0.021157  0  3.995079  0
C  C96  1  0.00457384  0.42314229  0.54829128  1  -0.034379  0  -0.00723  0.029485  0  3.999107  0
C  C97  1  0.01673013  0.49934484  0.61839574  1  -0.020187  0  -0.092223  -0.187837  0  4.006413  0
C  C98  1  0.98913272  0.19859559  0.67114516  1  0.010761  0  -0.015645  -0.040972  0  3.969505  0
C  C99  1  0.83219971  0.25761354  0.67326071  1  -0.05933  0  -0.079266  -0.081834  0  3.976391  0
C  C100  1  0.84342419  0.33137560  0.64958861  1  -0.083165  0  -0.091098  -0.141815  0  3.988537  0
C  C101  1  0.00736893  0.34608560  0.62193490  1  -0.020416  0  -0.000496  0.085526  0  3.999036  0
C  C102  1  0.16299161  0.28604317  0.61957107  1  -0.057197  0  -0.088706  -0.142158  0  3.988396  0
C  C103  1  0.15597773  0.21361322  0.64462028  1  -0.008521  0  -0.076841  -0.081464  0  3.964591  0
C  C104  1  0.99304373  0.12109097  0.30323872  1  1.556911  0  0.245206  0.649695  0  4.113942  0
C  C105  1  0.97972409  0.34858813  0.47766155  1  -0.09377  0  -0.093352  -0.131994  0  4.028315  0
C  C106  1  0.99945584  0.49999351  0.47644442  1  -0.083426  0  0.001882  0.005861  0  3.917903  0
C  C107  1  0.98964556  0.42466555  0.40498083  1  -0.053606  0  -0.007124  0.021373  0  3.993146  0
C  C108  1  0.99186804  0.42356090  0.45251727  1  0.066733  0  -0.0062  0.032612  0  3.998308  0
C  C109  1  0.98810454  0.50043291  0.38242535  1  -0.102253  0  -0.092881  -0.188569  0  4.00789  0
C  C110  1  0.99040047  0.34709310  0.37867015  1  0.01871  0  0.00105  0.087903  0  3.996056  0
C  C111  1  0.02580194  0.87940679  0.30381520  1  1.521233  0  0.245596  0.650404  0  4.118299  0
C  C112  1  0.01989731  0.65142356  0.47741509  1  -0.0955  0  -0.09417  -0.132405  0  4.024914  0
C  C113  1  0.99273933  0.57588561  0.40506598  1  -0.036484  0  -0.006615  0.022509  0  3.992764  0
C  C114  1  0.00119966  0.57664331  0.45251879  1  0.04684  0  -0.005821  0.033347  0  4.000676  0
C  C115  1  0.99262150  0.19967149  0.32892908  1  0.022063  0  -0.017499  -0.046305  0  3.96988  0
C  C116  1  0.83519843  0.25806353  0.32490792  1  -0.040669  0  -0.077984  -0.078778  0  3.971013  0
C  C117  1  0.83610896  0.33165574  0.34901833  1  -0.051995  0  -0.091071  -0.143311  0  3.986718  0
C  C118  1  0.14718751  0.28792777  0.38254263  1  -0.085042  0  -0.08922  -0.141852  0  3.99029  0
C  C119  1  0.15016517  0.21553225  0.35744026  1  -0.063234  0  -0.076708  -0.079063  0  3.96601  0
C  C120  1  0.00988624  0.87880298  0.69763991  1  1.546567  0  0.245162  0.649722  0  4.114566  0
C  C121  1  0.02547555  0.65121183  0.52316631  1  0.022242  0  -0.093601  -0.128791  0  4.026101  0
C  C122  1  0.01510213  0.57513850  0.59585892  1  -0.00853  0  -0.006453  0.023855  0  3.992356  0
C  C123  1  0.01325025  0.57624126  0.54831885  1  -0.048384  0  -0.006575  0.028833  0  3.99732  0
C  C124  1  0.01061465  0.80019007  0.67194407  1  -0.060832  0  -0.016671  -0.045942  0  3.971447  0
C  C125  1  0.16846679  0.74196579  0.67592118  1  -0.014274  0  -0.078753  -0.080183  0  3.971725  0
C  C126  1  0.16806924  0.66835360  0.65182353  1  -0.046453  0  -0.091006  -0.142315  0  3.984677  0
C  C127  1  0.01383231  0.65271050  0.62217797  1  -0.021713  0  -0.000316  0.084751  0  3.998882  0
C  C128  1  0.85666804  0.71167919  0.61832762  1  -0.044063  0  -0.08816  -0.139611  0  3.991153  0
C  C129  1  0.85315497  0.78407296  0.64344009  1  -0.03633  0  -0.076834  -0.078973  0  3.964378  0
C  C130  1  0.01486859  0.80124560  0.32971328  1  0.019061  0  -0.016085  -0.04644  0  3.97346  0
C  C131  1  0.17170547  0.74220330  0.32741021  1  -0.021446  0  -0.079319  -0.080036  0  3.977382  0
C  C132  1  0.16088069  0.66841596  0.35106318  1  -0.05799  0  -0.09103  -0.142741  0  3.989581  0
C  C133  1  0.99743315  0.65369144  0.37886046  1  -0.02948  0  -9.8e-05  0.085722  0  3.999052  0
C  C134  1  0.84172333  0.71366428  0.38132646  1  -0.029733  0  -0.088861  -0.142442  0  3.989592  0
C  C135  1  0.84833284  0.78614916  0.35632086  1  -0.045527  0  -0.076166  -0.078847  0  3.963527  0
O  O136  1  0.51935712  0.99956668  0.27705459  1  -0.987829  0  -0.708216  -0.992682  0  1.745792  0
O  O137  1  0.33485972  0.10132485  0.21584866  1  -1.148196  0  -0.344839  -0.599833  0  2.282782  0
O  O138  1  0.48434038  0.00037608  0.72398802  1  -0.98536  0  -0.708245  -0.99264  0  1.748063  0
O  O139  1  0.63590233  0.07890893  0.79663978  1  -1.156758  0  -0.350371  -0.611379  0  2.293681  0
O  O140  1  0.34277171  0.92028214  0.80047350  1  -1.164328  0  -0.359446  -0.634147  0  2.293479  0
O  O141  1  0.30371853  0.09853523  0.79154459  1  -1.155716  0  -0.352331  -0.61851  0  2.286733  0
O  O142  1  0.69998158  0.90093378  0.20968654  1  -1.157416  0  -0.351639  -0.616917  0  2.287163  0
O  O143  1  0.66094533  0.07936269  0.20041051  1  -1.163593  0  -0.358728  -0.633148  0  2.291709  0
O  O144  1  0.36798720  0.92090520  0.20443019  1  -1.154777  0  -0.350488  -0.610196  0  2.292236  0
O  O145  1  0.66894486  0.89847484  0.78509546  1  -1.150986  0  -0.343825  -0.598789  0  2.281531  0
O  O146  1  0.98223373  0.99979098  0.77695936  1  -0.986572  0  -0.707428  -0.992232  0  1.747726  0
O  O147  1  0.80726524  0.09933377  0.70997675  1  -1.161173  0  -0.351437  -0.616336  0  2.287663  0
O  O148  1  0.02145745  0.99997184  0.22403904  1  -0.989411  0  -0.707957  -0.992769  0  1.748619  0
O  O149  1  0.15625900  0.07844815  0.30092091  1  -1.163982  0  -0.359618  -0.635291  0  2.297292  0
O  O150  1  0.86421787  0.92027586  0.29642538  1  -1.154739  0  -0.34991  -0.61027  0  2.291421  0
O  O151  1  0.83140517  0.10075027  0.28567177  1  -1.151279  0  -0.34415  -0.598982  0  2.280776  0
O  O152  1  0.17157410  0.89922548  0.71516178  1  -1.156015  0  -0.345176  -0.600637  0  2.284471  0
O  O153  1  0.13990690  0.07992610  0.70473110  1  -1.150401  0  -0.349849  -0.608634  0  2.289925  0
O  O154  1  0.84659612  0.92136763  0.69999715  1  -1.163348  0  -0.359323  -0.634194  0  2.29277  0
O  O155  1  0.19673381  0.90056054  0.29098932  1  -1.15591  0  -0.352949  -0.618823  0  2.287512  0
