# generated using pymatgen
data_ZnH7C12(NO2)2
_symmetry_space_group_name_H-M   'P 1'
_cell_length_a   10.50464002
_cell_length_b   10.50342632
_cell_length_c   11.50800000
_cell_angle_alpha   73.64477281
_cell_angle_beta   73.64671554
_cell_angle_gamma   80.60426682
_symmetry_Int_Tables_number   1
_chemical_formula_structural   ZnH7C12(NO2)2
_chemical_formula_sum   'Zn4 H28 C48 N8 O16'
_cell_volume   1164.18972846
_cell_formula_units_Z   4
loop_
 _symmetry_equiv_pos_site_id
 _symmetry_equiv_pos_as_xyz
  1  'x, y, z'
loop_
 _atom_site_type_symbol
 _atom_site_label
 _atom_site_symmetry_multiplicity
 _atom_site_fract_x
 _atom_site_fract_y
 _atom_site_fract_z
 _atom_site_occupancy
 _atom_site_hle17_bader_spin_density
 _atom_site_hle17_ddec_charge
 _atom_site_hle17_ddec_spin_density
 _atom_site_hle17_ddec_sum_bond_order
 _atom_site_hle17_magmom
 _atom_site_hse06_10hf_bader_spin_density
 _atom_site_hse06_10hf_ddec_charge
 _atom_site_hse06_10hf_ddec_spin_density
 _atom_site_hse06_10hf_ddec_sum_bond_order
 _atom_site_hse06_10hf_magmom
 _atom_site_hse06_bader_spin_density
 _atom_site_hse06_ddec_charge
 _atom_site_hse06_ddec_spin_density
 _atom_site_hse06_ddec_sum_bond_order
 _atom_site_hse06_magmom
 _atom_site_pbe_bader_charge
 _atom_site_pbe_bader_spin_density
 _atom_site_pbe_cm5_charge
 _atom_site_pbe_ddec_charge
 _atom_site_pbe_ddec_spin_density
 _atom_site_pbe_ddec_sum_bond_order
 _atom_site_pbe_magmom
Zn  Zn0  1  0.60787739  0.18401122  0.03397363  1  0  0.999848  0  1.835812  0  0  0.804323  0  2.306166  0  0  0.853549  0  2.249877  0  1.250356  0  0.706584  0.769629  0  2.345348  0
Zn  Zn1  1  0.18399193  0.60789136  0.53395501  1  0  0.999881  0  1.835695  0  0  0.804347  0  2.306058  0  0  0.853579  0  2.24976  0  1.250248  0  0.706506  0.76964  0  2.345237  0
Zn  Zn2  1  0.39212484  0.81598990  0.96602673  1  0  0.99988  0  1.835773  0  0  0.804344  0  2.306188  0  0  0.853571  0  2.249891  0  1.250376  0  0.706571  0.769642  0  2.345339  0
Zn  Zn3  1  0.81600769  0.39210579  0.46604704  1  0  0.999951  0  1.835568  0  0  0.804423  0  2.305932  0  0  0.853655  0  2.249629  0  1.25025  0  0.706544  0.769712  0  2.345108  0
H  H4  1  0.84202405  0.14710755  0.13068972  1  0  0.088813  0  0.939184  0  0  0.099685  0  0.995905  0  0  0.102053  0  0.994577  0  0.138931  0  0.122307  0.097908  0  0.996924  0
H  H5  1  0.14711960  0.84207994  0.63066965  1  0  0.088704  0  0.939311  0  0  0.099593  0  0.996015  0  0  0.101951  0  0.994685  0  0.13847  0  0.122226  0.097816  0  0.997029  0
H  H6  1  0.15797240  0.85290255  0.86930895  1  0  0.088913  0  0.939097  0  0  0.099794  0  0.995801  0  0  0.102163  0  0.99447  0  0.138858  0  0.122368  0.098015  0  0.996818  0
H  H7  1  0.85287992  0.15791820  0.36933130  1  0  0.088724  0  0.939324  0  0  0.099607  0  0.996026  0  0  0.101965  0  0.994699  0  0.138477  0  0.122223  0.097829  0  0.997041  0
H  H8  1  0.50665311  0.37520929  0.21132647  1  0  0.095337  0  0.95191  0  0  0.099861  0  1.023499  0  0  0.103455  0  1.019547  0  0.149533  0  0.119189  0.097003  0  1.026749  0
H  H9  1  0.37521474  0.50668573  0.71130017  1  0  0.095293  0  0.951822  0  0  0.099793  0  1.023466  0  0  0.103414  0  1.019464  0  0.148958  0  0.119195  0.096927  0  1.026734  0
H  H10  1  0.49334272  0.62478586  0.78867620  1  0  0.095298  0  0.951858  0  0  0.099825  0  1.023465  0  0  0.103425  0  1.019502  0  0.149477  0  0.119179  0.096966  0  1.026717  0
H  H11  1  0.62478902  0.49330942  0.28869959  1  0  0.095336  0  0.951791  0  0  0.099831  0  1.023429  0  0  0.103456  0  1.019425  0  0.148913  0  0.11921  0.096956  0  1.026721  0
H  H12  1  0.38604708  0.03363557  0.17391500  1  0  0.101361  0  0.930815  0  0  0.109518  0  0.993302  0  0  0.112762  0  0.989903  0  0.124273  0  0.123212  0.106858  0  0.996202  0
H  H13  1  0.03364141  0.38605481  0.67393498  1  0  0.101603  0  0.930644  0  0  0.109626  0  0.993251  0  0  0.11287  0  0.989846  0  0.124618  0  0.123228  0.106966  0  0.99615  0
H  H14  1  0.61395353  0.96636157  0.82608679  1  0  0.101392  0  0.930715  0  0  0.109556  0  0.993199  0  0  0.112801  0  0.9898  0  0.124345  0  0.123217  0.106893  0  0.996106  0
H  H15  1  0.96635893  0.61394532  0.32606873  1  0  0.101622  0  0.930705  0  0  0.109631  0  0.993326  0  0  0.112875  0  0.989922  0  0.124571  0  0.12325  0.106971  0  0.996226  0
H  H16  1  0.16812395  0.05954227  0.32575049  1  0  0.124211  0  0.916827  0  0  0.138703  0  0.964964  0  0  0.142408  0  0.963896  0  0.100284  0  0.117532  0.136014  0  0.966066  0
H  H17  1  0.05955833  0.16811708  0.82577246  1  0  0.124324  0  0.916741  0  0  0.138865  0  0.964804  0  0  0.142571  0  0.963733  0  0.100343  0  0.117607  0.136173  0  0.965907  0
H  H18  1  0.83187521  0.94045985  0.67425127  1  0  0.124245  0  0.916836  0  0  0.138759  0  0.964949  0  0  0.142466  0  0.963876  0  0.100265  0  0.117536  0.136063  0  0.966052  0
H  H19  1  0.94044011  0.83188206  0.17423199  1  0  0.124334  0  0.916815  0  0  0.138871  0  0.964874  0  0  0.142577  0  0.963804  0  0.100491  0  0.117621  0.136177  0  0.965973  0
H  H20  1  0.01744414  0.27876135  0.12886336  1  0  0.120005  0  0.949545  0  0  0.128446  0  1.011925  0  0  0.132405  0  1.009584  0  0.10923  0  0.114243  0.125404  0  1.014045  0
H  H21  1  0.27878886  0.01748635  0.62885674  1  0  0.119812  0  0.949739  0  0  0.128344  0  1.011977  0  0  0.13236  0  1.009565  0  0.109194  0  0.114191  0.125288  0  1.014116  0
H  H22  1  0.98255466  0.72124476  0.87113399  1  0  0.12007  0  0.949543  0  0  0.128424  0  1.011988  0  0  0.132383  0  1.009645  0  0.109257  0  0.114217  0.125385  0  1.014111  0
H  H23  1  0.72121147  0.98251378  0.37114175  1  0  0.119865  0  0.94973  0  0  0.128366  0  1.011985  0  0  0.132382  0  1.009573  0  0.109165  0  0.114207  0.125309  0  1.014124  0
H  H24  1  0.67347767  0.46325382  0.89765766  1  0  0.093097  0  0.968337  0  0  0.098549  0  1.03526  0  0  0.100912  0  1.033289  0  0.165492  0  0.119607  0.096741  0  1.036677  0
H  H25  1  0.46321134  0.67346667  0.39766358  1  0  0.093185  0  0.968191  0  0  0.098584  0  1.035138  0  0  0.100965  0  1.033165  0  0.165251  0  0.119579  0.096776  0  1.036557  0
H  H26  1  0.32652167  0.53674631  0.10234022  1  0  0.093099  0  0.968347  0  0  0.098537  0  1.03528  0  0  0.100899  0  1.033316  0  0.165546  0  0.119622  0.096729  0  1.036698  0
H  H27  1  0.53678719  0.32653147  0.60233502  1  0  0.093193  0  0.968207  0  0  0.098603  0  1.035148  0  0  0.100981  0  1.033182  0  0.165295  0  0.119585  0.096794  0  1.036567  0
H  H28  1  0.84714399  0.60841445  0.87668551  1  0  0.113556  0  0.95745  0  0  0.122723  0  1.019032  0  0  0.125503  0  1.018977  0  0.108702  0  0.112324  0.120727  0  1.019288  0
H  H29  1  0.60838527  0.84711461  0.37669360  1  0  0.113673  0  0.957193  0  0  0.122705  0  1.018945  0  0  0.125482  0  1.018892  0  0.109206  0  0.112247  0.120701  0  1.019211  0
H  H30  1  0.15285697  0.39158967  0.12330832  1  0  0.113534  0  0.957399  0  0  0.122682  0  1.019009  0  0  0.125462  0  1.018954  0  0.108822  0  0.112289  0.120686  0  1.019264  0
H  H31  1  0.39161037  0.15288253  0.62330860  1  0  0.113656  0  0.957087  0  0  0.122723  0  1.018794  0  0  0.125501  0  1.01874  0  0.109144  0  0.112253  0.12072  0  1.019059  0
C  C32  1  0.84659673  0.25076923  0.07754734  1  0  0.121902  0  3.704326  0  0  0.0911  0  3.95167  0  0  0.097457  0  3.971563  0  0.43754  0  0.048368  0.086842  0  3.938415  0
C  C33  1  0.25077019  0.84663536  0.57753109  1  0  0.121753  0  3.704434  0  0  0.090877  0  3.95182  0  0  0.097241  0  3.971719  0  0.439047  0  0.048311  0.086619  0  3.938555  0
C  C34  1  0.15340424  0.74923488  0.92245257  1  0  0.121748  0  3.70427  0  0  0.090895  0  3.951613  0  0  0.097254  0  3.97151  0  0.43787  0  0.048284  0.086634  0  3.938354  0
C  C35  1  0.74923033  0.15336278  0.42246961  1  0  0.121625  0  3.704527  0  0  0.090792  0  3.951895  0  0  0.097153  0  3.971794  0  0.439153  0  0.048309  0.086534  0  3.93863  0
C  C36  1  0.43106756  0.30480256  0.24155050  1  0  0.126876  0  3.669397  0  0  0.084221  0  3.922682  0  0  0.093874  0  3.938362  0  0.495772  0  0.053976  0.078263  0  3.912021  0
C  C37  1  0.30480636  0.43108491  0.74154246  1  0  0.12696  0  3.669094  0  0  0.084317  0  3.922388  0  0  0.093976  0  3.938097  0  0.495983  0  0.053975  0.078363  0  3.91172  0
C  C38  1  0.56893683  0.69519658  0.75844807  1  0  0.126963  0  3.669525  0  0  0.084274  0  3.92284  0  0  0.09393  0  3.938527  0  0.495636  0  0.054052  0.078312  0  3.91218  0
C  C39  1  0.69519831  0.56891124  0.25845768  1  0  0.126961  0  3.669213  0  0  0.084298  0  3.922479  0  0  0.093951  0  3.938185  0  0.496645  0  0.053969  0.07834  0  3.9118  0
C  C40  1  0.36230552  0.11539398  0.21956714  1  0  0.153111  0  3.667319  0  0  0.115403  0  3.924125  0  0  0.125925  0  3.938687  0  0.485955  0  0.05177  0.108732  0  3.914286  0
C  C41  1  0.11540783  0.36231721  0.71957014  1  0  0.152996  0  3.667836  0  0  0.115437  0  3.92462  0  0  0.125974  0  3.939182  0  0.485489  0  0.051877  0.10877  0  3.914778  0
C  C42  1  0.63769436  0.88460017  0.78043300  1  0  0.153185  0  3.667126  0  0  0.115481  0  3.923954  0  0  0.126  0  3.938521  0  0.485943  0  0.051808  0.108809  0  3.914113  0
C  C43  1  0.88459377  0.63767993  0.28043401  1  0  0.152999  0  3.667879  0  0  0.11542  0  3.924642  0  0  0.12595  0  3.9392  0  0.485496  0  0.051827  0.10875  0  3.914795  0
C  C44  1  0.24150259  0.13040036  0.30477675  1  0  -0.138179  0  3.70474  0  0  -0.159142  0  3.959011  0  0  -0.166879  0  3.977221  0  0.034749  0  -0.080221  -0.154496  0  3.947173  0
C  C45  1  0.13042104  0.24150994  0.80478084  1  0  -0.138337  0  3.705179  0  0  -0.159369  0  3.959331  0  0  -0.16711  0  3.977543  0  0.023902  0  -0.080304  -0.154714  0  3.947491  0
C  C46  1  0.75849874  0.86959977  0.69522757  1  0  -0.13823  0  3.70469  0  0  -0.159217  0  3.958921  0  0  -0.166954  0  3.977134  0  0.034672  0  -0.080209  -0.15456  0  3.947071  0
C  C47  1  0.86958020  0.75849119  0.19522064  1  0  -0.138349  0  3.705233  0  0  -0.159376  0  3.959404  0  0  -0.167115  0  3.977613  0  0.023752  0  -0.080306  -0.1547  0  3.947568  0
C  C48  1  0.94440654  0.32583999  0.07534844  1  0  -0.141183  0  3.687345  0  0  -0.163137  0  3.940664  0  0  -0.170751  0  3.962005  0  0.015163  0  -0.074518  -0.158388  0  3.926762  0
C  C49  1  0.32584661  0.94443937  0.57534351  1  0  -0.140912  0  3.687058  0  0  -0.162908  0  3.940374  0  0  -0.170565  0  3.961689  0  0.014513  0  -0.074395  -0.158151  0  3.926471  0
C  C50  1  0.05558567  0.67417310  0.92464621  1  0  -0.141184  0  3.68715  0  0  -0.162993  0  3.940424  0  0  -0.170606  0  3.961762  0  0.014832  0  -0.074451  -0.158254  0  3.926524  0
C  C51  1  0.67415210  0.05555678  0.42465468  1  0  -0.140942  0  3.687095  0  0  -0.162906  0  3.940356  0  0  -0.170562  0  3.961671  0  0.01464  0  -0.074445  -0.158148  0  3.926451  0
C  C52  1  0.75358070  0.42752287  0.94487713  1  0  0.153953  0  3.667725  0  0  0.120459  0  3.917623  0  0  0.128865  0  3.934158  0  0.479936  0  0.05837  0.115017  0  3.906386  0
C  C53  1  0.42749483  0.75357509  0.44488491  1  0  0.15381  0  3.667454  0  0  0.120378  0  3.91719  0  0  0.128761  0  3.933744  0  0.480937  0  0.058495  0.114932  0  3.905948  0
C  C54  1  0.24641828  0.57248124  0.05511895  1  0  0.153944  0  3.66771  0  0  0.120484  0  3.917537  0  0  0.128895  0  3.934078  0  0.479893  0  0.058366  0.115036  0  3.906299  0
C  C55  1  0.57250406  0.24641907  0.55511636  1  0  0.153761  0  3.667545  0  0  0.120298  0  3.917355  0  0  0.128678  0  3.933911  0  0.480945  0  0.058402  0.114853  0  3.906112  0
C  C56  1  0.85008116  0.50780267  0.93633793  1  0  -0.129256  0  3.655626  0  0  -0.15122  0  3.907962  0  0  -0.158827  0  3.928945  0  0.018593  0  -0.070061  -0.146192  0  3.893694  0
C  C57  1  0.50778370  0.85007384  0.43634642  1  0  -0.129355  0  3.655747  0  0  -0.151218  0  3.907984  0  0  -0.158825  0  3.928975  0  0.017406  0  -0.070034  -0.146187  0  3.893712  0
C  C58  1  0.14991782  0.49220145  0.06365467  1  0  -0.129206  0  3.655627  0  0  -0.151185  0  3.908016  0  0  -0.15879  0  3.928992  0  0.018982  0  -0.070044  -0.146159  0  3.893754  0
C  C59  1  0.49221312  0.14992131  0.56365773  1  0  -0.129391  0  3.655677  0  0  -0.151267  0  3.907898  0  0  -0.158872  0  3.928887  0  0.017523  0  -0.07  -0.146236  0  3.893626  0
C  C60  1  0.21385324  0.23849790  0.35944221  1  0  0.012196  0  3.676271  0  0  0.019266  0  3.914516  0  0  0.02339  0  3.929855  0  -0.063885  0  0.017473  0.016527  0  3.904407  0
C  C61  1  0.23851699  0.21386356  0.85943987  1  0  0.011983  0  3.676635  0  0  0.019262  0  3.914696  0  0  0.023388  0  3.930033  0  -0.052792  0  0.017535  0.016506  0  3.90461  0
C  C62  1  0.78614836  0.76149924  0.64056020  1  0  0.012116  0  3.676263  0  0  0.019267  0  3.914469  0  0  0.02339  0  3.929808  0  -0.0638  0  0.017497  0.016528  0  3.90436  0
C  C63  1  0.76148443  0.78613557  0.14056208  1  0  0.012003  0  3.676574  0  0  0.01925  0  3.914656  0  0  0.023378  0  3.929992  0  -0.052749  0  0.017531  0.016452  0  3.904625  0
C  C64  1  0.31279053  0.32624949  0.32964506  1  0  -0.124805  0  3.704597  0  0  -0.105757  0  3.939388  0  0  -0.117794  0  3.96095  0  -0.000774  0  -0.010355  -0.09845  0  3.925239  0
C  C65  1  0.32625406  0.31280443  0.82964379  1  0  -0.12471  0  3.704651  0  0  -0.105669  0  3.939372  0  0  -0.11771  0  3.960944  0  -0.001289  0  -0.010379  -0.098359  0  3.925222  0
C  C66  1  0.68721278  0.67375064  0.67035527  1  0  -0.12483  0  3.704762  0  0  -0.105762  0  3.939529  0  0  -0.117798  0  3.961092  0  -0.000609  0  -0.010426  -0.098456  0  3.925382  0
C  C67  1  0.67374763  0.68719171  0.17035537  1  0  -0.124708  0  3.704542  0  0  -0.105661  0  3.939255  0  0  -0.117705  0  3.960829  0  -0.001848  0  -0.010364  -0.098338  0  3.925113  0
C  C68  1  0.07784562  0.25618950  0.44473077  1  0  0.65799  0  3.955716  0  0  0.604848  0  4.262194  0  0  0.639233  0  4.251499  0  1.640577  0  0.203626  0.581248  0  4.26853  0
C  C69  1  0.25620549  0.07783967  0.94472210  1  0  0.658214  0  3.955396  0  0  0.604781  0  4.262282  0  0  0.639167  0  4.251588  0  1.640224  0  0.203508  0.581187  0  4.268619  0
C  C70  1  0.92215643  0.74381362  0.55526999  1  0  0.658278  0  3.95543  0  0  0.604979  0  4.262112  0  0  0.639365  0  4.251418  0  1.638004  0  0.20371  0.581379  0  4.268452  0
C  C71  1  0.74379485  0.92216046  0.05527812  1  0  0.658246  0  3.955389  0  0  0.604855  0  4.262203  0  0  0.63924  0  4.251508  0  1.640541  0  0.203551  0.581272  0  4.268539  0
C  C72  1  0.29952365  0.44116821  0.38754710  1  0  0.637606  0  3.933767  0  0  0.587955  0  4.225611  0  0  0.622309  0  4.220072  0  1.577444  0  0.200496  0.564754  0  4.228207  0
C  C73  1  0.44116558  0.29953174  0.88756307  1  0  0.63739  0  3.933701  0  0  0.587703  0  4.22561  0  0  0.622056  0  4.220082  0  1.577939  0  0.200535  0.564505  0  4.228199  0
C  C74  1  0.70047857  0.55883292  0.61245326  1  0  0.63765  0  3.933899  0  0  0.587976  0  4.225777  0  0  0.622329  0  4.220238  0  1.577388  0  0.200559  0.564775  0  4.228372  0
C  C75  1  0.55883918  0.70046341  0.11243730  1  0  0.637277  0  3.933697  0  0  0.587616  0  4.22556  0  0  0.621968  0  4.220031  0  1.577887  0  0.200529  0.564419  0  4.228145  0
C  C76  1  0.94816364  0.45836661  0.00308798  1  0  0.098125  0  3.729134  0  0  0.108738  0  3.960514  0  0  0.11264  0  3.982569  0  -0.090488  0  0.019794  0.106257  0  3.945411  0
C  C77  1  0.45836082  0.94816182  0.50308733  1  0  0.098196  0  3.729082  0  0  0.108771  0  3.960407  0  0  0.112669  0  3.982475  0  -0.043238  0  0.019776  0.106293  0  3.9453  0
C  C78  1  0.05183714  0.54163950  0.99690712  1  0  0.098152  0  3.729073  0  0  0.10872  0  3.960442  0  0  0.11262  0  3.982498  0  -0.0436  0  0.019834  0.106238  0  3.945341  0
C  C79  1  0.54163771  0.05183632  0.49691214  1  0  0.098194  0  3.729073  0  0  0.108821  0  3.960325  0  0  0.112716  0  3.982393  0  -0.090731  0  0.019865  0.106342  0  3.945218  0
N  N80  1  0.75186691  0.30059288  0.01390101  1  0  -0.33079  0  3.31509  0  0  -0.240875  0  3.591651  0  0  -0.26057  0  3.604359  0  -1.262835  0  -0.328595  -0.227847  0  3.583426  0
N  N81  1  0.30057667  0.75189122  0.51389285  1  0  -0.330639  0  3.315017  0  0  -0.240646  0  3.591448  0  0  -0.26034  0  3.604159  0  -1.262834  0  -0.328552  -0.227599  0  3.583198  0
N  N82  1  0.24813198  0.69941223  0.98609570  1  0  -0.330729  0  3.315119  0  0  -0.240796  0  3.591658  0  0  -0.260502  0  3.604377  0  -1.262861  0  -0.328547  -0.227748  0  3.583408  0
N  N83  1  0.69942006  0.24810493  0.48610846  1  0  -0.330464  0  3.315043  0  0  -0.240555  0  3.591564  0  0  -0.260243  0  3.60427  0  -1.262845  0  -0.328512  -0.227506  0  3.583309  0
N  N84  1  0.45432375  0.20369159  0.18616289  1  0  -0.339896  0  3.310691  0  0  -0.25458  0  3.589832  0  0  -0.274426  0  3.603525  0  -1.289339  0  -0.336759  -0.241332  0  3.580301  0
N  N85  1  0.20369744  0.45433926  0.68615479  1  0  -0.34002  0  3.310697  0  0  -0.254763  0  3.589869  0  0  -0.274646  0  3.603598  0  -1.289252  0  -0.336886  -0.241522  0  3.580343  0
N  N86  1  0.54567605  0.79630356  0.81383702  1  0  -0.33999  0  3.310726  0  0  -0.254699  0  3.589943  0  0  -0.274551  0  3.603639  0  -1.289384  0  -0.336835  -0.241443  0  3.580398  0
N  N87  1  0.79630416  0.54565788  0.31384588  1  0  -0.340157  0  3.31099  0  0  -0.25482  0  3.590083  0  0  -0.274687  0  3.603795  0  -1.289333  0  -0.336905  -0.241565  0  3.580545  0
O  O88  1  0.99193146  0.31900188  0.38188402  1  0  -0.657608  0  2.061383  0  0  -0.587469  0  2.344085  0  0  -0.617975  0  2.328855  0  -1.173426  0  -0.334662  -0.565637  0  2.353613  0
O  O89  1  0.31902200  0.99192951  0.88187414  1  0  -0.657517  0  2.061658  0  0  -0.587222  0  2.344413  0  0  -0.61773  0  2.329193  0  -1.173351  0  -0.334462  -0.565389  0  2.353934  0
O  O90  1  0.00807104  0.68099626  0.61811703  1  0  -0.657719  0  2.061364  0  0  -0.587531  0  2.344146  0  0  -0.618035  0  2.328915  0  -1.170826  0  -0.334688  -0.565698  0  2.353679  0
O  O91  1  0.68098032  0.00807062  0.11812384  1  0  -0.657497  0  2.061624  0  0  -0.587212  0  2.344352  0  0  -0.617719  0  2.329134  0  -1.173331  0  -0.334484  -0.56538  0  2.353872  0
O  O92  1  0.05711306  0.20731440  0.55917698  1  0  -0.601155  0  1.87191  0  0  -0.560841  0  2.081496  0  0  -0.584436  0  2.073031  0  -1.162981  0  -0.322472  -0.543444  0  2.086588  0
O  O93  1  0.20732224  0.05709917  0.05916985  1  0  -0.60134  0  1.87139  0  0  -0.560961  0  2.08115  0  0  -0.584553  0  2.072675  0  -1.162415  0  -0.322576  -0.543564  0  2.086241  0
O  O94  1  0.94288917  0.79268672  0.44082511  1  0  -0.601284  0  1.871797  0  0  -0.560913  0  2.081446  0  0  -0.584507  0  2.072982  0  -1.163026  0  -0.322547  -0.543516  0  2.08654  0
O  O95  1  0.79267936  0.94289798  0.94082995  1  0  -0.601379  0  1.871432  0  0  -0.561016  0  2.081168  0  0  -0.584613  0  2.072696  0  -1.162741  0  -0.322597  -0.543618  0  2.086255  0
O  O96  1  0.18082654  0.49969816  0.41874844  1  0  -0.62684  0  2.010348  0  0  -0.550259  0  2.27169  0  0  -0.579742  0  2.257008  0  -1.146646  0  -0.322655  -0.529425  0  2.281173  0
O  O97  1  0.49967036  0.18082383  0.91879191  1  0  -0.626599  0  2.010376  0  0  -0.550068  0  2.271817  0  0  -0.57955  0  2.257144  0  -1.146881  0  -0.322599  -0.52924  0  2.2813  0
O  O98  1  0.81917506  0.50029898  0.58125397  1  0  -0.626836  0  2.010341  0  0  -0.55025  0  2.271692  0  0  -0.579746  0  2.257035  0  -1.146653  0  -0.322671  -0.529415  0  2.281175  0
O  O99  1  0.50033232  0.81917232  0.08120961  1  0  -0.626588  0  2.010245  0  0  -0.550072  0  2.271696  0  0  -0.57955  0  2.257011  0  -1.146746  0  -0.322637  -0.529242  0  2.281173  0
O  O100  1  0.40168547  0.47258186  0.40449676  1  0  -0.608321  0  1.933236  0  0  -0.560545  0  2.161585  0  0  -0.585377  0  2.154769  0  -1.165894  0  -0.308565  -0.542728  0  2.165533  0
O  O101  1  0.47258764  0.40171083  0.90449484  1  0  -0.608351  0  1.933452  0  0  -0.56058  0  2.161876  0  0  -0.585405  0  2.155055  0  -1.16602  0  -0.308671  -0.542764  0  2.165818  0
O  O102  1  0.59831685  0.52741827  0.59550382  1  0  -0.608407  0  1.93341  0  0  -0.560606  0  2.161758  0  0  -0.585438  0  2.154943  0  -1.165805  0  -0.308605  -0.542793  0  2.165703  0
O  O103  1  0.52741694  0.59828632  0.09550419  1  0  -0.608272  0  1.933466  0  0  -0.560517  0  2.161875  0  0  -0.585343  0  2.155057  0  -1.166082  0  -0.308649  -0.542702  0  2.165814  0
