# generated using pymatgen
data_CoH16PdC12N2(ClO4)2
_symmetry_space_group_name_H-M   'P 1'
_cell_length_a   5.47196498
_cell_length_b   6.73878438
_cell_length_c   12.37689791
_cell_angle_alpha   102.62769374
_cell_angle_beta   98.30924511
_cell_angle_gamma   94.45250009
_symmetry_Int_Tables_number   1
_chemical_formula_structural   CoH16PdC12N2(ClO4)2
_chemical_formula_sum   'Co1 H16 Pd1 C12 N2 Cl2 O8'
_cell_volume   437.84737051
_cell_formula_units_Z   1
loop_
 _symmetry_equiv_pos_site_id
 _symmetry_equiv_pos_as_xyz
  1  'x, y, z'
loop_
 _atom_site_type_symbol
 _atom_site_label
 _atom_site_symmetry_multiplicity
 _atom_site_fract_x
 _atom_site_fract_y
 _atom_site_fract_z
 _atom_site_occupancy
 _atom_site_hle17_ddec_charge
 _atom_site_hle17_ddec_spin_density
 _atom_site_hle17_ddec_sum_bond_order
 _atom_site_hle17_magmom
 _atom_site_hse06_10hf_ddec_charge
 _atom_site_hse06_10hf_ddec_spin_density
 _atom_site_hse06_10hf_ddec_sum_bond_order
 _atom_site_hse06_10hf_magmom
 _atom_site_hse06_ddec_charge
 _atom_site_hse06_ddec_spin_density
 _atom_site_hse06_ddec_sum_bond_order
 _atom_site_hse06_magmom
 _atom_site_pbe_cm5_charge
 _atom_site_pbe_ddec_charge
 _atom_site_pbe_ddec_spin_density
 _atom_site_pbe_ddec_sum_bond_order
 _atom_site_pbe_magmom
Co  Co0  1  0.00000338  0.50000088  0.49999938  1  1.186014  2.870622  1.78453  2.643  1.15786  2.871587  2.176337  2.702  1.223342  2.897029  2.106132  2.758  0.649834  1.108068  2.854565  2.227497  2.653
H  H1  1  0.83014133  0.65748946  0.25567554  1  0.101147  -0.000106  1.006175  0.0  0.106908  -0.00016  1.076103  0.0  0.110672  -0.000155  1.073656  0.0  0.101678  0.10394  -0.000169  1.078376  0.0
H  H2  1  0.16984730  0.34251173  0.74433330  1  0.101272  -0.000108  1.006062  0.0  0.107  -0.00016  1.076023  0.0  0.110763  -0.000155  1.073576  0.0  0.101745  0.104035  -0.000169  1.078302  0.0
H  H3  1  0.44623260  0.18440708  0.22987916  1  0.11919  0.000135  0.948676  0.0  0.125375  5.1e-05  1.01347  0.0  0.129398  1.4e-05  1.010916  0.0  0.106737  0.122187  9.1e-05  1.015831  0.0
H  H4  1  0.55377622  0.81559522  0.77011567  1  0.119123  0.000133  0.948755  0.0  0.125369  5.1e-05  1.013489  0.0  0.129392  1.4e-05  1.010932  0.0  0.10673  0.122178  9.1e-05  1.015847  0.0
H  H5  1  0.11752868  0.95090713  0.08927313  1  0.08466  -1.5e-05  0.975658  0.0  0.08683  9e-06  1.051176  0.0  0.089846  2e-06  1.047891  0.0  0.100006  0.08467  -1e-06  1.053537  0.0
H  H6  1  0.88247855  0.04909674  0.91072259  1  0.084656  -1.8e-05  0.975754  0.0  0.086869  9e-06  1.051211  0.0  0.089887  2e-06  1.047923  0.0  0.100032  0.084708  -1e-06  1.053577  0.0
H  H7  1  0.48938443  0.44420407  0.11749110  1  0.088663  1.2e-05  0.955531  0.0  0.091326  3.8e-05  1.028713  0.0  0.094336  2.3e-05  1.025337  0.0  0.104633  0.089082  5.4e-05  1.031399  0.0
H  H8  1  0.51060297  0.55578945  0.88251515  1  0.088644  1.4e-05  0.955723  0.0  0.091335  3.7e-05  1.028868  0.0  0.094351  2.3e-05  1.025483  0.0  0.104622  0.089083  5.4e-05  1.031552  0.0
H  H9  1  0.23743252  0.18795944  0.47309873  1  0.425678  -0.000239  0.8771  0.0  0.39257  0.000156  0.943727  0.001  0.404945  -1.6e-05  0.925859  0.0  0.29132  0.383857  0.00036  0.956228  0.001
H  H10  1  0.76257249  0.81204144  0.52690136  1  0.42567  -0.000238  0.877094  0.0  0.392543  0.000157  0.943759  0.001  0.404916  -1.7e-05  0.925893  0.0  0.291328  0.383831  0.00036  0.956261  0.001
H  H11  1  0.46568618  0.35365693  0.55128864  1  0.44361  0.000568  0.840757  0.002  0.42003  0.000712  0.89103  0.002  0.430408  0.0005  0.876107  0.002  0.300106  0.412526  0.000911  0.901715  0.002
H  H12  1  0.53432595  0.64634232  0.44871088  1  0.443643  0.000568  0.840739  0.002  0.42007  0.000711  0.890995  0.002  0.430447  0.0005  0.876073  0.002  0.30012  0.412558  0.000911  0.901686  0.002
H  H13  1  0.15829790  0.53365032  0.30876399  1  0.405194  -0.000455  0.874709  0.0  0.376299  -0.0  0.955355  0.0  0.385905  -9.6e-05  0.941412  0.0  0.282724  0.369581  0.000113  0.965007  0.0
H  H14  1  0.84170362  0.46635211  0.69123365  1  0.405233  -0.000455  0.874696  0.0  0.376333  -0.0  0.955321  0.0  0.385941  -9.7e-05  0.941374  0.0  0.282732  0.369613  0.000113  0.96501  0.0
H  H15  1  0.14492478  0.76234113  0.37698331  1  0.436209  -0.000404  0.857503  0.0  0.403823  -6.3e-05  0.925355  0.0  0.414985  -0.000172  0.909302  0.0  0.296548  0.396201  7e-05  0.936249  0.0
H  H16  1  0.85507675  0.23766131  0.62301513  1  0.436249  -0.000404  0.857476  0.0  0.403859  -6.3e-05  0.925314  0.0  0.415024  -0.000172  0.909255  0.0  0.296549  0.396236  7e-05  0.93621  0.0
Pd  Pd17  1  0.99999644  0.50000199  0.00000095  1  0.406004  -0.002736  2.711813  -0.001  0.343296  -0.001269  3.264602  0.0  0.372782  -0.000416  3.232388  0.0  0.706258  0.326932  -0.003643  3.285648  -0.001
C  C18  1  0.66761656  0.94059651  0.25487425  1  -0.002349  0.003953  3.698255  0.006  0.014332  0.001878  3.930921  0.003  0.013422  0.001579  3.947614  0.002  0.003783  0.014252  0.001758  3.921159  0.003
C  C19  1  0.33238458  0.05940291  0.74512785  1  -0.002276  0.003945  3.698491  0.006  0.014438  0.00188  3.931085  0.003  0.013525  0.001578  3.947779  0.002  0.003821  0.014356  0.001758  3.921326  0.003
C  C20  1  0.27913300  0.89240816  0.12804082  1  0.110078  0.000525  3.6593  0.001  0.077083  -0.000102  3.912718  0.0  0.084429  0.000101  3.92876  0.0  0.030317  0.071738  -0.000675  3.903124  0.0
C  C21  1  0.72086809  0.10759123  0.87195886  1  0.110105  0.000539  3.65923  0.001  0.077078  -0.000101  3.912586  0.0  0.084423  0.000102  3.928627  0.0  0.030326  0.071735  -0.000675  3.902988  0.0
C  C22  1  0.67865411  0.73066229  0.22078278  1  -0.102516  -0.003032  3.727541  -0.002  -0.128687  -0.000761  3.984054  0.0  -0.132356  -0.000498  4.000738  0.0  -0.083588  -0.126975  -0.001704  3.974307  -0.001
C  C23  1  0.32132998  0.26933428  0.77921878  1  -0.10269  -0.003011  3.727435  -0.002  -0.128887  -0.000762  3.984008  0.0  -0.132556  -0.000499  4.000696  0.0  -0.083681  -0.127179  -0.001705  3.974269  -0.001
C  C24  1  0.48759568  0.60882705  0.14336046  1  0.09426  0.001209  3.693455  0.002  0.060109  0.000391  3.954179  0.001  0.068414  0.000357  3.966952  0.0  0.022715  0.054023  0.000395  3.947191  0.001
C  C25  1  0.51240211  0.39117399  0.85664648  1  0.094379  0.001208  3.693607  0.002  0.060205  0.000391  3.954295  0.001  0.068492  0.000358  3.9671  0.0  0.02279  0.054128  0.000395  3.947293  0.001
C  C26  1  0.46372054  0.02174523  0.20598098  1  -0.088089  -0.003716  3.683825  -0.002  -0.112077  -0.001079  3.933543  -0.001  -0.115427  -0.000842  3.950725  0.0  -0.074439  -0.110445  -0.002036  3.923348  -0.001
C  C27  1  0.53627287  0.97825269  0.79401484  1  -0.088073  -0.003705  3.684009  -0.002  -0.112127  -0.00108  3.933691  -0.001  -0.115477  -0.000841  3.950877  0.0  -0.074471  -0.110488  -0.002035  3.923496  -0.001
C  C28  1  0.86581920  0.07534120  0.34305372  1  0.667583  -0.009946  3.851945  -0.007  0.61853  -0.003555  4.148778  -0.001  0.655286  -0.00156  4.13823  0.0  0.218386  0.5923  -0.006607  4.156361  -0.003
C  C29  1  0.13417658  0.92465979  0.65694502  1  0.667567  -0.009935  3.851993  -0.007  0.618534  -0.003556  4.148771  -0.001  0.655291  -0.001558  4.138225  0.0  0.218368  0.592302  -0.006608  4.156365  -0.003
N  N30  1  0.28921863  0.68853388  0.09873876  1  -0.211916  -0.003562  3.454046  -0.003  -0.139237  -0.001428  3.727581  -0.001  -0.156701  -0.000818  3.747195  -0.001  -0.36927  -0.128649  -0.003308  3.714824  -0.003
N  N31  1  0.71077512  0.31146563  0.90126211  1  -0.211986  -0.003605  3.454217  -0.003  -0.139263  -0.001428  3.727699  -0.001  -0.156725  -0.00082  3.747316  -0.001  -0.369327  -0.128676  -0.003307  3.714942  -0.003
Cl  Cl32  1  0.98844267  0.31989584  0.13871505  1  -0.433808  -0.000137  1.156748  0.0  -0.397158  -0.000116  1.46343  0.0  -0.415877  -0.000112  1.44578  0.0  -0.260304  -0.384279  -0.000227  1.475469  0.0
Cl  Cl33  1  0.01155705  0.68010664  0.86128491  1  -0.433816  -0.000138  1.156734  0.0  -0.39718  -0.000116  1.46343  0.0  -0.415899  -0.000113  1.44578  0.0  -0.260313  -0.384301  -0.000226  1.475467  0.0
O  O34  1  0.81723486  0.25736318  0.37927397  1  -0.629728  0.032918  2.069742  0.064  -0.592612  0.024155  2.335798  0.043  -0.625594  0.018694  2.321229  0.033  -0.315795  -0.56786  0.030161  2.34509  0.053
O  O35  1  0.18276843  0.74263919  0.62072053  1  -0.629773  0.032919  2.06966  0.064  -0.592673  0.024157  2.335724  0.043  -0.625648  0.018694  2.321132  0.033  -0.315801  -0.567915  0.030163  2.345017  0.053
O  O36  1  0.06419958  0.00159914  0.37513033  1  -0.626542  -0.002887  1.99338  -0.001  -0.561956  -0.002113  2.205136  -0.001  -0.588245  -0.001416  2.195188  -0.001  -0.302762  -0.544208  -0.003022  2.212368  -0.001
O  O37  1  0.93579970  0.99840030  0.62487086  1  -0.626528  -0.002885  1.993502  -0.001  -0.561957  -0.002112  2.205256  -0.001  -0.588247  -0.001415  2.195307  -0.001  -0.302753  -0.544202  -0.003022  2.212493  -0.001
O  O38  1  0.20026283  0.62616295  0.38427358  1  -0.822373  0.022182  1.9575  0.041  -0.777629  0.020756  2.159221  0.034  -0.80245  0.016296  2.124814  0.027  -0.551007  -0.758958  0.025325  2.183002  0.041
O  O39  1  0.79974259  0.37384096  0.61572366  1  -0.822453  0.02218  1.957487  0.041  -0.777665  0.020756  2.159073  0.034  -0.802485  0.016297  2.124666  0.027  -0.550987  -0.758994  0.025323  2.182888  0.041
O  O40  1  0.28360489  0.32326688  0.52882524  1  -0.854968  0.029054  1.94235  0.051  -0.814462  0.026073  2.144872  0.04  -0.843482  0.019814  2.109364  0.031  -0.579858  -0.790517  0.03305  2.168959  0.05
O  O41  1  0.71640435  0.67673846  0.47116754  1  -0.854949  0.029053  1.942268  0.051  -0.814433  0.026072  2.1448  0.04  -0.843451  0.019813  2.1093  0.031  -0.579852  -0.790477  0.033049  2.168898  0.05
