# generated using pymatgen
data_V2NiH14C12N2O7
_symmetry_space_group_name_H-M   'P 1'
_cell_length_a   9.54573436
_cell_length_b   14.47386829
_cell_length_c   14.91408017
_cell_angle_alpha   109.23562220
_cell_angle_beta   108.68087646
_cell_angle_gamma   89.99715247
_symmetry_Int_Tables_number   1
_chemical_formula_structural   V2NiH14C12N2O7
_chemical_formula_sum   'V8 Ni4 H56 C48 N8 O28'
_cell_volume   1830.18963973
_cell_formula_units_Z   4
loop_
 _symmetry_equiv_pos_site_id
 _symmetry_equiv_pos_as_xyz
  1  'x, y, z'
loop_
 _atom_site_type_symbol
 _atom_site_label
 _atom_site_symmetry_multiplicity
 _atom_site_fract_x
 _atom_site_fract_y
 _atom_site_fract_z
 _atom_site_occupancy
 _atom_site_pbe_bader_charge
 _atom_site_pbe_bader_spin_density
 _atom_site_pbe_cm5_charge
 _atom_site_pbe_ddec_charge
 _atom_site_pbe_ddec_spin_density
 _atom_site_pbe_ddec_sum_bond_order
 _atom_site_pbe_magmom
V  V0  1  0.95053316  0.84753846  0.36005333  1  2.101959  0.0358  1.420956  1.966469  0.022989  3.47113  0.039
V  V1  1  0.59069364  0.65251295  0.64000407  1  2.099956  0.035884  1.421013  1.967593  0.023011  3.468423  0.039
V  V2  1  0.04946357  0.15246300  0.63994651  1  2.101819  0.035788  1.420943  1.966449  0.02298  3.471121  0.039
V  V3  1  0.40930628  0.34748409  0.35999485  1  2.100034  0.035884  1.421039  1.967589  0.023012  3.468626  0.039
V  V4  1  0.24327723  0.52360848  0.49091549  1  2.103349  0.054303  1.448847  1.969728  0.033845  3.463037  0.063
V  V5  1  0.75241568  0.97631818  0.50905560  1  2.10392  0.054406  1.448408  1.969588  0.033872  3.461098  0.064
V  V6  1  0.75672189  0.47638929  0.50908056  1  2.103379  0.054298  1.448836  1.969736  0.033843  3.463011  0.063
V  V7  1  0.24758571  0.02368107  0.49094299  1  2.103656  0.0544  1.448485  1.969644  0.033868  3.461136  0.064
Ni  Ni8  1  0.93357777  0.65343916  0.44383648  1  1.231142  1.52013  0.675411  0.98187  1.739987  2.532579  1.506
Ni  Ni9  1  0.48979453  0.84657091  0.55617945  1  1.226828  1.519975  0.67539  0.981628  1.739702  2.534019  1.506
Ni  Ni10  1  0.06642296  0.34655861  0.55616338  1  1.231095  1.520133  0.675418  0.981889  1.739985  2.532551  1.506
Ni  Ni11  1  0.51020491  0.15342834  0.44382049  1  1.226745  1.519974  0.675426  0.981718  1.739699  2.533944  1.506
H  H12  1  0.59498319  0.36334960  0.58049891  1  0.092591  0.001958  0.118304  0.064352  0.000689  1.062784  0.001
H  H13  1  0.01437261  0.13667629  0.41933470  1  0.098381  0.001955  0.117965  0.063894  0.000691  1.062621  0.001
H  H14  1  0.40501651  0.63665112  0.41950155  1  0.09261  0.001959  0.118305  0.064373  0.000689  1.062803  0.001
H  H15  1  0.98562642  0.86332443  0.58066510  1  0.098392  0.001956  0.11795  0.063865  0.000691  1.062639  0.001
H  H16  1  0.64692980  0.53119980  0.30091828  1  0.128245  0.002018  0.123431  0.097832  0.000723  1.004309  0.001
H  H17  1  0.34591747  0.96889037  0.69872616  1  0.13311  0.002018  0.123789  0.098375  0.000723  1.005222  0.001
H  H18  1  0.35306936  0.46880165  0.69908178  1  0.128245  0.002018  0.123402  0.0978  0.000723  1.00436  0.001
H  H19  1  0.65408493  0.03110961  0.30127246  1  0.133084  0.002018  0.123793  0.098395  0.000724  1.005224  0.001
H  H20  1  0.03896191  0.61175351  0.27011518  1  0.097749  0.002169  0.120332  0.093003  0.000773  1.015335  0.001
H  H21  1  0.76888798  0.88831765  0.72997084  1  0.111605  0.002158  0.120905  0.093627  0.000769  1.015438  0.001
H  H22  1  0.96103805  0.38824868  0.72988581  1  0.097726  0.002169  0.120347  0.093025  0.000773  1.015388  0.001
H  H23  1  0.23111334  0.11168086  0.27003084  1  0.111732  0.002158  0.120914  0.093609  0.000769  1.015492  0.001
H  H24  1  0.95194025  0.51067236  0.08756918  1  0.064903  0.000975  0.100936  0.100094  0.000453  1.051598  0.0
H  H25  1  0.86420171  0.98942709  0.91255636  1  0.072365  0.00097  0.100641  0.099792  0.000451  1.051463  0.0
H  H26  1  0.04805992  0.48932983  0.91243091  1  0.064896  0.000975  0.100938  0.100116  0.000453  1.051575  0.0
H  H27  1  0.13579886  0.01057216  0.08744581  1  0.072387  0.00097  0.100649  0.099805  0.000451  1.051455  0.0
H  H28  1  0.54133758  0.42502124  0.11932713  1  0.118102  0.001134  0.112051  0.122775  0.000537  0.986144  0.0
H  H29  1  0.42162189  0.07501956  0.88033499  1  0.093736  0.001149  0.112257  0.123053  0.000539  0.984709  0.0
H  H30  1  0.45866078  0.57497948  0.88067199  1  0.118102  0.001134  0.112056  0.122796  0.000537  0.986127  0.0
H  H31  1  0.57837923  0.92498190  0.11966371  1  0.093711  0.001149  0.112249  0.123013  0.000539  0.984751  0.0
H  H32  1  0.57744078  0.09997612  0.63145733  1  0.160295  0.001481  0.123766  0.085938  0.000345  1.039135  0.001
H  H33  1  0.94621756  0.40009835  0.36844637  1  0.114295  0.001498  0.123772  0.086102  0.000346  1.038149  0.001
H  H34  1  0.42255750  0.90002534  0.36854295  1  0.160225  0.001482  0.123778  0.086  0.000345  1.039111  0.001
H  H35  1  0.05378214  0.59990237  0.63155410  1  0.1141  0.001498  0.123757  0.086079  0.000346  1.038122  0.001
H  H36  1  0.69250096  0.18355065  0.81706447  1  0.082764  0.000994  0.103733  0.109235  0.000436  1.01805  0.0
H  H37  1  0.87548682  0.31656446  0.18282494  1  0.085406  0.000987  0.103696  0.109633  0.000435  1.017252  0.0
H  H38  1  0.30749732  0.81645080  0.18293581  1  0.082744  0.000994  0.103774  0.109309  0.000436  1.017959  0.0
H  H39  1  0.12451200  0.68343625  0.81717575  1  0.085455  0.000987  0.103694  0.109627  0.000435  1.017207  0.0
H  H40  1  0.71008978  0.45890189  0.76294806  1  0.045819  0.001006  0.1141  0.126657  0.000447  0.985313  0.0
H  H41  1  0.94689204  0.04115157  0.23688822  1  0.107705  0.000975  0.113849  0.126448  0.000447  0.985727  0.0
H  H42  1  0.28991268  0.54109957  0.23705198  1  0.045848  0.001006  0.11411  0.126665  0.000447  0.985333  0.0
H  H43  1  0.05310787  0.95884915  0.76311135  1  0.107706  0.000975  0.113862  0.126446  0.000447  0.985702  0.0
H  H44  1  0.61864939  0.32745046  0.96466800  1  0.037655  -0.000163  0.100822  0.102993  -0.000144  0.97267  0.0
H  H45  1  0.65353894  0.17252926  0.03518670  1  0.041943  -0.000158  0.100914  0.102881  -0.000141  0.973491  0.0
H  H46  1  0.38135044  0.67255100  0.03533273  1  0.037625  -0.000163  0.100804  0.102953  -0.000144  0.97271  0.0
H  H47  1  0.34645928  0.82747072  0.96481216  1  0.042028  -0.000158  0.100911  0.102905  -0.000141  0.9735  0.0
H  H48  1  0.58120229  0.43604698  0.93887685  1  0.071741  -0.000326  0.100425  0.104917  -0.000297  0.989183  0.0
H  H49  1  0.64192334  0.06392810  0.06096136  1  0.058606  -0.000318  0.099887  0.103954  -0.00029  0.989312  0.0
H  H50  1  0.41879620  0.56395447  0.06112254  1  0.071782  -0.000326  0.100428  0.104917  -0.000297  0.989227  0.0
H  H51  1  0.35807502  0.93607262  0.93903777  1  0.055733  -0.000319  0.099899  0.103999  -0.00029  0.989278  0.0
H  H52  1  0.87357285  0.34350965  0.95053036  1  0.056525  -0.000109  0.10152  0.10551  -0.000106  0.962022  0.0
H  H53  1  0.92261577  0.15647280  0.04929036  1  0.032624  -0.000113  0.101407  0.105405  -0.000109  0.963386  0.0
H  H54  1  0.12642854  0.65649181  0.04947081  1  0.056521  -0.000109  0.101524  0.105507  -0.000106  0.962031  0.0
H  H55  1  0.07738413  0.84352791  0.95070921  1  0.032631  -0.000113  0.1014  0.10536  -0.000109  0.963404  0.0
H  H56  1  0.83731749  0.45598979  0.92915193  1  0.016185  0.000134  0.0961  0.090282  8e-05  1.002587  0.0
H  H57  1  0.90780883  0.04403000  0.07075992  1  0.019039  0.000132  0.09587  0.090256  7.9e-05  1.002464  0.0
H  H58  1  0.16268167  0.54401166  0.07084812  1  0.016066  0.000134  0.096081  0.090245  8e-05  1.002591  0.0
H  H59  1  0.09219088  0.95597072  0.92924054  1  0.019024  0.000132  0.09587  0.090259  7.9e-05  1.002487  0.0
H  H60  1  0.73460090  0.77702407  0.42635184  1  0.639933  0.000197  0.29674  0.374526  0.000239  0.968016  0.0
H  H61  1  0.30840688  0.72291087  0.57366767  1  0.640833  0.000181  0.296301  0.374031  0.000243  0.967757  0.0
H  H62  1  0.26540002  0.22297738  0.57364776  1  0.639944  0.000196  0.296716  0.374509  0.000239  0.968084  0.0
H  H63  1  0.69159369  0.27708985  0.42633257  1  0.640831  0.000181  0.296283  0.373992  0.000243  0.967824  0.0
H  H64  1  0.69531845  0.71932356  0.49013920  1  0.653688  0.000365  0.297742  0.405444  0.000217  0.924793  0.001
H  H65  1  0.20522423  0.78066907  0.50998528  1  0.650878  0.000324  0.297775  0.404886  0.000215  0.925398  0.001
H  H66  1  0.30468132  0.28067642  0.50986011  1  0.653672  0.000364  0.297736  0.405441  0.000217  0.924811  0.001
H  H67  1  0.79477547  0.21933165  0.49001518  1  0.650869  0.000325  0.297785  0.404862  0.000215  0.925418  0.001
C  C68  1  0.61951151  0.32635827  0.63553041  1  0.486132  -0.002988  0.057003  0.125646  -0.003767  3.936005  -0.002
C  C69  1  0.98390282  0.17368605  0.36432575  1  0.455459  -0.002946  0.056754  0.12629  -0.003746  3.934638  -0.002
C  C70  1  0.38048941  0.67364318  0.36446920  1  0.486132  -0.002988  0.056986  0.12557  -0.003766  3.936047  -0.002
C  C71  1  0.01609918  0.82631393  0.63567467  1  0.455452  -0.002945  0.056779  0.126358  -0.003746  3.934606  -0.002
C  C72  1  0.70949156  0.52459351  0.25008159  1  0.421666  -0.003103  0.056427  0.115702  -0.003995  3.921189  -0.002
C  C73  1  0.45928706  0.97552290  0.74967977  1  0.454567  -0.003179  0.055832  0.114718  -0.004017  3.923262  -0.002
C  C74  1  0.29050847  0.47540794  0.74991824  1  0.421675  -0.003103  0.056453  0.115702  -0.003995  3.921182  -0.002
C  C75  1  0.54071487  0.02447781  0.25032181  1  0.455038  -0.00318  0.055776  0.1146  -0.004017  3.923284  -0.002
C  C76  1  0.92917708  0.56948216  0.23297322  1  0.516455  -0.003995  0.060457  0.125807  -0.004986  3.923886  -0.003
C  C77  1  0.69620197  0.93060328  0.76702628  1  0.519171  -0.004005  0.059708  0.124512  -0.005  3.922822  -0.003
C  C78  1  0.07081879  0.43051708  0.76702427  1  0.516494  -0.003996  0.060487  0.125781  -0.004986  3.923797  -0.003
C  C79  1  0.30380110  0.06939744  0.23297754  1  0.518626  -0.004007  0.059754  0.124535  -0.005002  3.922738  -0.003
C  C80  1  0.87873496  0.51241536  0.13081251  1  0.025182  0.005296  -0.090322  -0.19237  0.002966  3.946803  0.004
C  C81  1  0.74780812  0.98768926  0.86918822  1  -0.074492  0.005291  -0.08931  -0.191503  0.002967  3.943295  0.004
C  C82  1  0.12126353  0.48758609  0.86918688  1  0.025208  0.005297  -0.090336  -0.192369  0.002966  3.946585  0.004
C  C83  1  0.25219233  0.01231072  0.13081176  1  -0.074498  0.005291  -0.089309  -0.191463  0.002967  3.943288  0.004
C  C84  1  0.73663578  0.45943232  0.08579104  1  -0.088813  -0.005726  0.007033  0.152572  -0.006487  3.968544  -0.004
C  C85  1  0.65053239  0.04060783  0.91406663  1  -0.008268  -0.005732  0.006775  0.153322  -0.006512  3.964009  -0.004
C  C86  1  0.26336284  0.54056987  0.91420861  1  -0.088773  -0.005727  0.00701  0.15245  -0.006487  3.968599  -0.004
C  C87  1  0.34946594  0.95939510  0.08593508  1  -0.00821  -0.005731  0.006791  0.153297  -0.006511  3.964078  -0.004
C  C88  1  0.65190436  0.46610666  0.14871061  1  -0.025073  0.005514  -0.089202  -0.207466  0.003126  3.97488  0.004
C  C89  1  0.50286895  0.03394964  0.85104783  1  -0.027003  0.005559  -0.088899  -0.207496  0.003132  3.972915  0.004
C  C90  1  0.34809656  0.53389480  0.85128899  1  -0.025098  0.005515  -0.089161  -0.207388  0.003127  3.974767  0.004
C  C91  1  0.49713211  0.96605034  0.14894945  1  -0.027443  0.005561  -0.088886  -0.207387  0.003132  3.972717  0.004
C  C92  1  0.60934332  0.17942053  0.66402021  1  0.431745  -0.002948  0.05548  0.100601  -0.003708  3.937899  -0.002
C  C93  1  0.94549546  0.32065380  0.33587335  1  0.558218  -0.003054  0.055686  0.099733  -0.003693  3.93771  -0.002
C  C94  1  0.39065638  0.82058018  0.33598025  1  0.431801  -0.002948  0.055455  0.100506  -0.003708  3.937957  -0.002
C  C95  1  0.05450403  0.67934692  0.66412801  1  0.558344  -0.003055  0.05574  0.099796  -0.003693  3.93765  -0.002
C  C96  1  0.67283850  0.22705270  0.76771838  1  -0.073357  0.005179  -0.08156  -0.174363  0.002919  3.924428  0.004
C  C97  1  0.90518759  0.27304713  0.23216530  1  -0.120141  0.005288  -0.081302  -0.173839  0.002927  3.922895  0.004
C  C98  1  0.32716221  0.77294875  0.23228212  1  -0.073384  0.005179  -0.081565  -0.174432  0.002919  3.924403  0.004
C  C99  1  0.09481325  0.72695506  0.76783546  1  -0.120162  0.005288  -0.08131  -0.173825  0.002927  3.922928  0.004
C  C100  1  0.71275741  0.32921261  0.80685649  1  0.061793  -0.005181  0.01359  0.16404  -0.005906  3.952544  -0.003
C  C101  1  0.90570544  0.17086221  0.19300770  1  -0.003913  -0.005176  0.012849  0.163689  -0.005888  3.951702  -0.003
C  C102  1  0.28724405  0.67078811  0.19314352  1  0.061801  -0.00518  0.013597  0.164082  -0.005905  3.95257  -0.003
C  C103  1  0.09429265  0.82913703  0.80699090  1  -0.004272  -0.005176  0.012837  0.163621  -0.005888  3.951763  -0.003
C  C104  1  0.68270647  0.37922735  0.73811130  1  0.020877  0.005101  -0.082442  -0.18686  0.002907  3.924584  0.004
C  C105  1  0.94445162  0.12083142  0.26173730  1  -0.042351  0.005118  -0.081604  -0.186558  0.002903  3.923422  0.004
C  C106  1  0.31729566  0.62077337  0.26188938  1  0.020884  0.005101  -0.08244  -0.186839  0.002907  3.924616  0.004
C  C107  1  0.05554924  0.87916856  0.73826088  1  -0.041956  0.005118  -0.081637  -0.186564  0.002903  3.923437  0.004
C  C108  1  0.67254466  0.39925335  0.97472464  1  -0.024331  -0.000214  -0.149942  -0.189937  -0.000427  3.940619  0.0
C  C109  1  0.69741324  0.10074005  0.02513893  1  -0.013204  -0.000214  -0.149667  -0.189031  -0.000429  3.938778  0.0
C  C110  1  0.32745538  0.60074811  0.02527519  1  -0.024341  -0.000214  -0.149929  -0.189861  -0.000427  3.940692  0.0
C  C111  1  0.30258553  0.89925920  0.97486034  1  -0.010414  -0.000213  -0.149706  -0.189172  -0.000429  3.938752  0.0
C  C112  1  0.78450851  0.38372411  0.91825713  1  -0.047635  0.000191  -0.154053  -0.197614  -6e-06  3.965197  0.0
C  C113  1  0.86588357  0.11629385  0.08161627  1  0.002883  0.000199  -0.153384  -0.197834  -4e-06  3.965252  0.0
C  C114  1  0.21549166  0.61627808  0.08174296  1  -0.04749  0.000191  -0.154046  -0.197589  -6e-06  3.965161  0.0
C  C115  1  0.13411613  0.88370687  0.91838420  1  0.002885  0.000199  -0.15338  -0.197739  -4e-06  3.965241  0.0
N  N116  1  0.84623398  0.57556017  0.29169080  1  -1.191343  0.074678  -0.322069  -0.21951  0.043356  3.543248  0.066
N  N117  1  0.55453185  0.92455115  0.70822091  1  -1.210409  0.074661  -0.322198  -0.218984  0.043335  3.542282  0.066
N  N118  1  0.15376531  0.42444203  0.70830952  1  -1.191386  0.074683  -0.322114  -0.219486  0.043359  3.543272  0.066
N  N119  1  0.44547169  0.07544883  0.29177995  1  -1.210024  0.074659  -0.322197  -0.218962  0.043333  3.542449  0.066
N  N120  1  0.58475347  0.22807750  0.59848151  1  -1.214984  0.06907  -0.324545  -0.236716  0.040217  3.557556  0.061
N  N121  1  0.98630405  0.27196841  0.40139590  1  -1.188608  0.069132  -0.324769  -0.237345  0.040292  3.557768  0.061
N  N122  1  0.41524752  0.77192322  0.40151694  1  -1.215038  0.069068  -0.324572  -0.236691  0.040216  3.557601  0.061
N  N123  1  0.01369626  0.72803084  0.59860382  1  -1.188612  0.069131  -0.324786  -0.23739  0.040291  3.55774  0.061
O  O124  1  0.88620582  0.78963911  0.23878911  1  -0.822951  0.003346  -0.630918  -0.757176  0.000863  1.347248  0.002
O  O125  1  0.64753642  0.71040109  0.76127039  1  -0.822498  0.003379  -0.630884  -0.75759  0.000881  1.346672  0.002
O  O126  1  0.11379644  0.21036087  0.76121378  1  -0.822965  0.003348  -0.630902  -0.757183  0.000865  1.347086  0.002
O  O127  1  0.35246380  0.28959963  0.23873501  1  -0.822471  0.003378  -0.630885  -0.757511  0.00088  1.34681  0.002
O  O128  1  0.12221602  0.59430773  0.44667372  1  -0.908001  0.056441  -0.608459  -0.830438  0.032509  1.940522  0.051
O  O129  1  0.67569876  0.90562544  0.55333802  1  -0.90631  0.056364  -0.608536  -0.829989  0.032486  1.937829  0.051
O  O130  1  0.87779288  0.40568488  0.55332785  1  -0.908141  0.056457  -0.608441  -0.83049  0.032519  1.940364  0.051
O  O131  1  0.32429703  0.09437160  0.44666451  1  -0.906171  0.056354  -0.608538  -0.829964  0.032482  1.937928  0.051
O  O132  1  0.73131512  0.71158379  0.43255830  1  -1.237549  0.064159  -0.55984  -0.743112  0.035919  2.209877  0.057
O  O133  1  0.29886685  0.78837449  0.56753314  1  -1.236438  0.064246  -0.559676  -0.7422  0.035913  2.21032  0.057
O  O134  1  0.26868620  0.28841619  0.56744145  1  -1.23757  0.064153  -0.559827  -0.743119  0.035915  2.209943  0.057
O  O135  1  0.70113495  0.21162549  0.43246817  1  -1.236417  0.064251  -0.559652  -0.742115  0.035916  2.210326  0.057
O  O136  1  0.30531485  0.45051839  0.39108433  1  -1.052543  0.002821  -0.699547  -1.005069  0.000875  1.884202  0.0
O  O137  1  0.91458640  0.04927463  0.60877417  1  -1.052666  0.00282  -0.698986  -1.004364  0.000863  1.884093  0.0
O  O138  1  0.69468275  0.54947496  0.60890612  1  -1.052482  0.002821  -0.699561  -1.005093  0.000874  1.884373  0.0
O  O139  1  0.08540947  0.95072314  0.39122526  1  -1.05266  0.002821  -0.698979  -1.004371  0.000863  1.884065  0.0
O  O140  1  0.83784925  0.54656791  0.46730588  1  -0.908974  0.061959  -0.605675  -0.837986  0.035905  1.987384  0.058
O  O141  1  0.37049482  0.95339969  0.53254896  1  -0.908413  0.061948  -0.60551  -0.838899  0.035887  1.987576  0.058
O  O142  1  0.16214925  0.45342986  0.53269286  1  -0.908988  0.061968  -0.605659  -0.837989  0.035911  1.987279  0.058
O  O143  1  0.62950251  0.04660251  0.46745271  1  -0.908588  0.061947  -0.605476  -0.838893  0.035886  1.987583  0.058
O  O144  1  0.39501481  0.60504220  0.59538287  1  -1.082703  0.002318  -0.697796  -1.012136  0.000496  1.912228  0.001
O  O145  1  0.79931604  0.89484186  0.40450922  1  -1.083469  0.00235  -0.697844  -1.012093  0.000511  1.914304  0.001
O  O146  1  0.60497730  0.39495336  0.40461242  1  -1.082586  0.002317  -0.697779  -1.012104  0.000495  1.912242  0.001
O  O147  1  0.20068757  0.10515959  0.59549306  1  -1.083451  0.00235  -0.697824  -1.012086  0.000511  1.91415  0.001
O  O148  1  0.02551173  0.76912626  0.42116690  1  -0.986275  0.045939  -0.608911  -0.895183  0.026108  1.922559  0.039
O  O149  1  0.60440494  0.73093410  0.57888961  1  -0.985106  0.04601  -0.608891  -0.895807  0.026118  1.923764  0.039
O  O150  1  0.97449318  0.23086709  0.57883854  1  -0.986084  0.045922  -0.608934  -0.895139  0.0261  1.922706  0.039
O  O151  1  0.39559423  0.26906073  0.42111368  1  -0.985275  0.046023  -0.608903  -0.895905  0.026126  1.923758  0.039
