# generated using pymatgen
data_ZnH13C11N5Cl2O
_symmetry_space_group_name_H-M   'P 1'
_cell_length_a   7.21464399
_cell_length_b   8.96862158
_cell_length_c   22.87100000
_cell_angle_alpha   90.00000000
_cell_angle_beta   90.00000000
_cell_angle_gamma   96.46277117
_symmetry_Int_Tables_number   1
_chemical_formula_structural   ZnH13C11N5Cl2O
_chemical_formula_sum   'Zn4 H52 C44 N20 Cl8 O4'
_cell_volume   1470.47315009
_cell_formula_units_Z   4
loop_
 _symmetry_equiv_pos_site_id
 _symmetry_equiv_pos_as_xyz
  1  'x, y, z'
loop_
 _atom_site_type_symbol
 _atom_site_label
 _atom_site_symmetry_multiplicity
 _atom_site_fract_x
 _atom_site_fract_y
 _atom_site_fract_z
 _atom_site_occupancy
 _atom_site_pbe_bader_charge
 _atom_site_pbe_bader_spin_density
 _atom_site_pbe_cm5_charge
 _atom_site_pbe_ddec_charge
 _atom_site_pbe_ddec_spin_density
 _atom_site_pbe_ddec_sum_bond_order
 _atom_site_pbe_magmom
Zn  Zn0  1  0.18796677  0.40270308  0.74198811  1  1.235108  0  0.711702  0.743535  0  2.402936  0
Zn  Zn1  1  0.31203389  0.59729716  0.24198767  1  1.235033  0  0.711698  0.7435  0  2.402925  0
Zn  Zn2  1  0.81203484  0.59729604  0.25801277  1  1.235032  0  0.711697  0.743504  0  2.402923  0
Zn  Zn3  1  0.68796495  0.40270196  0.75801146  1  1.235182  0  0.711723  0.743576  0  2.402911  0
H  H4  1  0.20608823  0.12845465  0.00218574  1  0.067351  0  0.105036  0.12781  0  1.008838  0
H  H5  1  0.29391167  0.87155009  0.50218574  1  0.067381  0  0.105064  0.127866  0  1.008698  0
H  H6  1  0.79390661  0.87154560  0.99781514  1  0.067376  0  0.105054  0.127821  0  1.008832  0
H  H7  1  0.70609363  0.12844567  0.49781295  1  0.067344  0  0.105061  0.127878  0  1.008691  0
H  H8  1  0.26943053  0.87532157  0.84471689  1  0.124668  0  0.102128  0.113666  0  1.0484  0
H  H9  1  0.23057445  0.12467980  0.34471558  1  0.124647  0  0.102121  0.11366  0  1.048411  0
H  H10  1  0.73056907  0.12467307  0.15528442  1  0.124921  0  0.102135  0.113694  0  1.048384  0
H  H11  1  0.76942978  0.87531820  0.65528486  1  0.124614  0  0.102141  0.113674  0  1.048359  0
H  H12  1  0.23676640  0.96613999  0.75572209  1  0.123687  0  0.112681  0.072724  0  1.031799  0
H  H13  1  0.26323596  0.03386250  0.25572166  1  0.123659  0  0.112674  0.072693  0  1.031804  0
H  H14  1  0.76322951  0.03385801  0.24427878  1  0.123657  0  0.112696  0.072724  0  1.031775  0
H  H15  1  0.73677028  0.96613999  0.74427834  1  0.123646  0  0.112693  0.072709  0  1.03177  0
H  H16  1  0.11554799  0.03158794  0.65817148  1  0.079702  0  0.107277  0.09406  0  0.991283  0
H  H17  1  0.38445283  0.96841343  0.15817192  1  0.079679  0  0.10729  0.094089  0  0.991199  0
H  H18  1  0.88445255  0.96841343  0.34182895  1  0.079685  0  0.107291  0.094082  0  0.991205  0
H  H19  1  0.61554633  0.03158794  0.84182808  1  0.079695  0  0.107294  0.094081  0  0.991237  0
H  H20  1  0.35115863  0.11228925  0.65985178  1  0.067387  0  0.101463  0.082819  0  1.016566  0
H  H21  1  0.14884405  0.88771549  0.15985221  1  0.067392  0  0.101467  0.082823  0  1.016626  0
H  H22  1  0.64884069  0.88771324  0.34014822  1  0.067366  0  0.101455  0.082792  0  1.01663  0
H  H23  1  0.85115804  0.11228701  0.84014779  1  0.06739  0  0.101464  0.082843  0  1.016599  0
H  H24  1  0.19787592  0.23861073  0.58293560  1  0.054473  0  0.087563  0.06884  0  1.022791  0
H  H25  1  0.30212660  0.76139289  0.08293560  1  0.054463  0  0.087559  0.068843  0  1.022803  0
H  H26  1  0.80212308  0.76138952  0.41706440  1  0.054458  0  0.087549  0.068837  0  1.022818  0
H  H27  1  0.69787964  0.23860961  0.91706440  1  0.054459  0  0.087556  0.068834  0  1.022804  0
H  H28  1  0.00553972  0.26545880  0.62844126  1  0.037297  0  0.097085  0.073943  0  1.036077  0
H  H29  1  0.49445972  0.73454257  0.12844169  1  0.0373  0  0.097085  0.073939  0  1.036079  0
H  H30  1  0.99446083  0.73454257  0.37155831  1  0.03731  0  0.097081  0.073941  0  1.036072  0
H  H31  1  0.50554067  0.26545768  0.87155874  1  0.037316  0  0.097088  0.073946  0  1.036069  0
H  H32  1  0.04222220  0.54280880  0.61991693  1  0.0363  0  0.095968  0.070687  0  0.989103  0
H  H33  1  0.45777707  0.45719145  0.11991605  1  0.036317  0  0.09595  0.070662  0  0.989088  0
H  H34  1  0.95777664  0.45719032  0.38008307  1  0.03633  0  0.09595  0.070652  0  0.9891  0
H  H35  1  0.54222331  0.54280880  0.88008307  1  0.036311  0  0.095963  0.070665  0  0.989099  0
H  H36  1  0.20405735  0.50336595  0.56542040  1  0.037743  0  0.082213  0.048501  0  1.023375  0
H  H37  1  0.29594378  0.49663766  0.06541953  1  0.037738  0  0.082222  0.04851  0  1.023415  0
H  H38  1  0.79594196  0.49663654  0.43457960  1  0.037768  0  0.082224  0.048484  0  1.023386  0
H  H39  1  0.70405676  0.50336371  0.93457960  1  0.037745  0  0.082192  0.048446  0  1.023343  0
H  H40  1  0.29825866  0.71660197  0.66978444  1  0.040986  0  0.080346  0.104054  0  1.056481  0
H  H41  1  0.20173508  0.28339828  0.16978313  1  0.040683  0  0.080347  0.104098  0  1.056446  0
H  H42  1  0.70173480  0.28339828  0.33021643  1  0.040678  0  0.080316  0.104032  0  1.056459  0
H  H43  1  0.79826238  0.71660084  0.83021556  1  0.040756  0  0.080347  0.104088  0  1.056461  0
H  H44  1  0.26937035  0.76811444  0.59606270  1  0.011731  0  0.085541  0.121763  0  1.00913  0
H  H45  1  0.23062678  0.23189030  0.09606095  1  0.011433  0  0.085546  0.121795  0  1.009125  0
H  H46  1  0.73062203  0.23188805  0.40393861  1  0.011442  0  0.085556  0.121788  0  1.009141  0
H  H47  1  0.76937269  0.76811332  0.90393774  1  0.01175  0  0.085555  0.121778  0  1.009138  0
H  H48  1  0.45925340  0.66835938  0.61573084  1  0.028386  0  0.080817  0.117991  0  1.023207  0
H  H49  1  0.04074235  0.33164536  0.11572821  1  0.02831  0  0.080816  0.118045  0  1.023161  0
H  H50  1  0.54074207  0.33164536  0.38427004  1  0.028309  0  0.080806  0.117994  0  1.023237  0
H  H51  1  0.95925558  0.66835713  0.88426960  1  0.028353  0  0.080821  0.118  0  1.0232  0
H  H52  1  0.38814875  0.40963897  0.64749377  1  0.473964  0  0.282209  0.243158  0  1.005957  0
H  H53  1  0.11185053  0.59036128  0.14749377  1  0.473959  0  0.282214  0.243158  0  1.00594  0
H  H54  1  0.61185041  0.59036240  0.35250536  1  0.47413  0  0.282207  0.243149  0  1.005933  0
H  H55  1  0.88814986  0.40963897  0.85250536  1  0.473973  0  0.282212  0.243179  0  1.005895  0
C  C56  1  0.20238581  0.10160770  0.83165187  1  -0.039416  0  -0.034296  -0.064424  0  4.018651  0
C  C57  1  0.29761623  0.89839255  0.33165100  1  -0.039423  0  -0.034233  -0.064379  0  4.018648  0
C  C58  1  0.79761857  0.89839143  0.16834856  1  -0.039421  0  -0.034238  -0.064327  0  4.018645  0
C  C59  1  0.70238661  0.10160546  0.66834813  1  -0.039463  0  -0.034273  -0.064431  0  4.018678  0
C  C60  1  0.16621944  0.24067096  0.85838660  1  0.719073  0  0.084638  0.243361  0  4.139364  0
C  C61  1  0.33378138  0.75933041  0.35838617  1  0.719077  0  0.084633  0.243311  0  4.139431  0
C  C62  1  0.83379065  0.75932929  0.14161515  1  0.719113  0  0.084573  0.243295  0  4.139589  0
C  C63  1  0.66621422  0.24066535  0.64161383  1  0.719144  0  0.084592  0.243324  0  4.139264  0
C  C64  1  0.16801642  0.24251798  0.92115211  1  0.114583  0  -0.008372  0.028812  0  4.021389  0
C  C65  1  0.33198456  0.75748451  0.42115211  1  0.115249  0  -0.008394  0.028832  0  4.0214  0
C  C66  1  0.83198951  0.75748226  0.07884920  1  0.11491  0  -0.00834  0.028879  0  4.021242  0
C  C67  1  0.66801797  0.24251125  0.57884745  1  0.114854  0  -0.00837  0.028837  0  4.021263  0
C  C68  1  0.20432402  0.12049202  0.95469547  1  0.011855  0  -0.099893  -0.199812  0  4.023248  0
C  C69  1  0.29567573  0.87951160  0.45469328  1  0.010645  0  -0.099922  -0.199901  0  4.023421  0
C  C70  1  0.79567514  0.87950935  0.04530497  1  0.011407  0  -0.099855  -0.199778  0  4.023162  0
C  C71  1  0.70432819  0.12048416  0.54530541  1  0.011027  0  -0.099877  -0.199864  0  4.023244  0
C  C72  1  0.24100872  0.98761306  0.92669013  1  0.090475  0  -0.008316  0.127371  0  4.095841  0
C  C73  1  0.25898779  0.01238719  0.42668926  1  0.091101  0  -0.008329  0.127352  0  4.095922  0
C  C74  1  0.75899060  0.01238943  0.07331162  1  0.090723  0  -0.00842  0.127283  0  4.095757  0
C  C75  1  0.74101165  0.98760633  0.57331031  1  0.091003  0  -0.008418  0.127289  0  4.095866  0
C  C76  1  0.23838424  0.97776189  0.86642254  1  -0.059097  0  -0.096317  -0.183388  0  3.999806  0
C  C77  1  0.26162243  0.02224173  0.36642123  1  -0.058989  0  -0.096324  -0.183358  0  3.999702  0
C  C78  1  0.76161876  0.02223724  0.13358227  1  -0.059225  0  -0.096322  -0.18343  0  3.999662  0
C  C79  1  0.73838334  0.97775740  0.63357789  1  -0.05905  0  -0.096251  -0.183279  0  3.999664  0
C  C80  1  0.20913759  0.07907310  0.76924839  1  0.605595  0  0.080922  0.121371  0  3.924013  0
C  C81  1  0.29086462  0.92092827  0.26924796  1  0.605582  0  0.080936  0.12146  0  3.923967  0
C  C82  1  0.79085741  0.92092827  0.23075248  1  0.60564  0  0.080913  0.12139  0  3.923851  0
C  C83  1  0.70914008  0.07907310  0.73075204  1  0.605694  0  0.080927  0.121437  0  3.924081  0
C  C84  1  0.20678822  0.13530974  0.66787591  1  0.250832  0  -0.071527  -0.057977  0  3.915845  0
C  C85  1  0.29321399  0.86469163  0.16787504  1  0.250812  0  -0.071533  -0.057959  0  3.915934  0
C  C86  1  0.79321094  0.86469163  0.33212540  1  0.25081  0  -0.071482  -0.057877  0  3.915778  0
C  C87  1  0.70678778  0.13530861  0.83212365  1  0.250829  0  -0.071566  -0.058062  0  3.915953  0
C  C88  1  0.15700985  0.26136078  0.62820034  1  0.275636  0  -0.079538  -0.051592  0  3.906097  0
C  C89  1  0.34299097  0.73864059  0.12820034  1  0.275617  0  -0.079538  -0.051587  0  3.906177  0
C  C90  1  0.84298915  0.73863947  0.37180010  1  0.275634  0  -0.079533  -0.051631  0  3.906197  0
C  C91  1  0.65701080  0.26135966  0.87179922  1  0.275657  0  -0.079523  -0.051542  0  3.906126  0
C  C92  1  0.19070743  0.53240554  0.61202134  1  0.279047  0  -0.080336  0.024067  0  3.937438  0
C  C93  1  0.30929232  0.46759807  0.11202046  1  0.278421  0  -0.080312  0.02411  0  3.93747  0
C  C94  1  0.80928880  0.46759471  0.38797910  1  0.278682  0  -0.080332  0.024118  0  3.937471  0
C  C95  1  0.69070838  0.53240442  0.88797823  1  0.278734  0  -0.080298  0.024186  0  3.937407  0
C  C96  1  0.31152633  0.67909928  0.62444100  1  -0.034586  0  -0.252355  -0.384578  0  3.951745  0
C  C97  1  0.18846910  0.32090321  0.12443968  1  -0.03388  0  -0.252385  -0.38474  0  3.951687  0
C  C98  1  0.68846760  0.32090434  0.37555988  1  -0.033917  0  -0.252337  -0.384603  0  3.951758  0
C  C99  1  0.81152867  0.67909816  0.87555900  1  -0.034345  0  -0.252397  -0.384679  0  3.951744  0
N  N100  1  0.18786470  0.17796861  0.72922872  1  -1.19549  0  -0.357827  -0.249799  0  3.480558  0
N  N101  1  0.31213612  0.82203276  0.22922784  1  -1.195377  0  -0.357818  -0.249889  0  3.480607  0
N  N102  1  0.81213276  0.82203052  0.27077303  1  -1.195453  0  -0.357861  -0.249896  0  3.480435  0
N  N103  1  0.68786827  0.17796636  0.77077041  1  -1.195517  0  -0.357833  -0.249853  0  3.480702  0
N  N104  1  0.24466723  0.40853142  0.64858861  1  -1.116927  0  -0.487071  -0.339542  0  3.47396  0
N  N105  1  0.25533082  0.59146994  0.14858773  1  -1.1163  0  -0.487074  -0.339536  0  3.474072  0
N  N106  1  0.75533161  0.59146770  0.35141139  1  -1.116762  0  -0.487058  -0.339488  0  3.47405  0
N  N107  1  0.74466834  0.40853142  0.85141096  1  -1.116665  0  -0.487083  -0.339583  0  3.47406  0
N  N108  1  0.95346336  0.51728148  0.73892703  1  -0.399476  0  -0.31848  -0.514481  0  3.161925  0
N  N109  1  0.54653660  0.48271765  0.23892659  1  -0.399172  0  -0.318351  -0.514294  0  3.16258  0
N  N110  1  0.04653794  0.48271540  0.26107254  1  -0.399109  0  -0.318469  -0.514435  0  3.162216  0
N  N111  1  0.45346486  0.51728036  0.76107210  1  -0.399196  0  -0.318435  -0.514378  0  3.162102  0
N  N112  1  0.96389671  0.65130301  0.73023654  1  -0.281552  0  0.095506  0.426427  0  4.443677  0
N  N113  1  0.53610405  0.34871183  0.23023786  1  -0.281299  0  0.095469  0.426457  0  4.443525  0
N  N114  1  0.03610137  0.34870060  0.26976258  1  -0.281287  0  0.095485  0.426455  0  4.443503  0
N  N115  1  0.46389882  0.65129628  0.76976127  1  -0.281259  0  0.09548  0.426385  0  4.443355  0
N  N116  1  0.97171080  0.77978010  0.72233833  1  -0.017032  0  -0.158929  -0.344727  0  2.660623  0
N  N117  1  0.52828944  0.22021117  0.22233877  1  -0.01755  0  -0.159072  -0.34497  0  2.659768  0
N  N118  1  0.02828710  0.22021229  0.27766167  1  -0.017592  0  -0.158922  -0.344785  0  2.660121  0
N  N119  1  0.47171202  0.77978683  0.77765948  1  -0.017525  0  -0.158982  -0.344813  0  2.660106  0
Cl  Cl120  1  0.12771399  0.40799056  0.95506449  1  -0.213841  0  0.005651  -0.058573  0  1.689851  0
Cl  Cl121  1  0.37228560  0.59201193  0.45506493  1  -0.21454  0  0.005649  -0.058569  0  1.689807  0
Cl  Cl122  1  0.87228794  0.59201081  0.04493551  1  -0.214553  0  0.005631  -0.058599  0  1.689801  0
Cl  Cl123  1  0.62771709  0.40798495  0.54493376  1  -0.213751  0  0.005632  -0.058581  0  1.68983  0
Cl  Cl124  1  0.29349852  0.83548148  0.96812208  1  -0.239119  0  -0.011484  -0.090999  0  1.545131  0
Cl  Cl125  1  0.20650555  0.16452325  0.46812076  1  -0.239309  0  -0.011476  -0.09099  0  1.545103  0
Cl  Cl126  1  0.70649233  0.16451989  0.03188055  1  -0.239286  0  -0.01146  -0.090985  0  1.545196  0
Cl  Cl127  1  0.79350130  0.83547363  0.53187967  1  -0.239218  0  -0.011429  -0.090966  0  1.545116  0
O  O128  1  0.13033290  0.35884129  0.82958506  1  -1.169064  0  -0.333995  -0.515078  0  2.414574  0
O  O129  1  0.36966345  0.64115784  0.32958463  1  -1.169059  0  -0.334009  -0.515051  0  2.414599  0
O  O130  1  0.86967058  0.64116120  0.17041537  1  -1.169115  0  -0.333971  -0.51506  0  2.414687  0
O  O131  1  0.63033955  0.35884129  0.67041406  1  -1.169026  0  -0.334009  -0.515117  0  2.414527  0
