# generated using pymatgen
data_GdH10(CO2)5
_symmetry_space_group_name_H-M   'P 1'
_cell_length_a   6.64437133
_cell_length_b   11.45146064
_cell_length_c   12.40700000
_cell_angle_alpha   95.53681090
_cell_angle_beta   90.00000000
_cell_angle_gamma   90.00000000
_symmetry_Int_Tables_number   1
_chemical_formula_structural   GdH10(CO2)5
_chemical_formula_sum   'Gd4 H40 C20 O40'
_cell_volume   939.61638911
_cell_formula_units_Z   4
loop_
 _symmetry_equiv_pos_site_id
 _symmetry_equiv_pos_as_xyz
  1  'x, y, z'
loop_
 _atom_site_type_symbol
 _atom_site_label
 _atom_site_symmetry_multiplicity
 _atom_site_fract_x
 _atom_site_fract_y
 _atom_site_fract_z
 _atom_site_occupancy
 _atom_site_hle17_bader_spin_density
 _atom_site_hle17_ddec_charge
 _atom_site_hle17_ddec_spin_density
 _atom_site_hle17_ddec_sum_bond_order
 _atom_site_hle17_magmom
 _atom_site_hse06_10hf_bader_spin_density
 _atom_site_hse06_10hf_ddec_charge
 _atom_site_hse06_10hf_ddec_spin_density
 _atom_site_hse06_10hf_ddec_sum_bond_order
 _atom_site_hse06_10hf_magmom
 _atom_site_hse06_bader_spin_density
 _atom_site_hse06_ddec_charge
 _atom_site_hse06_ddec_spin_density
 _atom_site_hse06_ddec_sum_bond_order
 _atom_site_hse06_magmom
 _atom_site_pbe_bader_charge
 _atom_site_pbe_bader_spin_density
 _atom_site_pbe_cm5_charge
 _atom_site_pbe_ddec_charge
 _atom_site_pbe_ddec_spin_density
 _atom_site_pbe_ddec_sum_bond_order
 _atom_site_pbe_magmom
Gd  Gd0  1  0.00505089  0.16844486  0.80662321  1  0  2.196217  0  1.781916  0  0  2.102796  0  2.123252  0  0  2.147444  0  2.081735  0  2.213797  0  1.458694  2.065722  0  2.160123  0
Gd  Gd1  1  0.50504853  0.33155546  0.19337669  1  0  2.19618  0  1.781964  0  0  2.102715  0  2.123347  0  0  2.147361  0  2.081834  0  2.213821  0  1.458684  2.065641  0  2.160218  0
Gd  Gd2  1  0.99494891  0.83155665  0.19337668  1  0  2.19617  0  1.781844  0  0  2.102727  0  2.123193  0  0  2.147369  0  2.08169  0  2.213859  0  1.458683  2.065652  0  2.160062  0
Gd  Gd3  1  0.49494826  0.66844429  0.80662224  1  0  2.196161  0  1.78189  0  0  2.102747  0  2.123207  0  0  2.147391  0  2.081701  0  2.213861  0  1.458675  2.065672  0  2.160082  0
H  H4  1  0.45786123  0.02978058  0.66156883  1  0  0.106136  0  0.951063  0  0  0.112738  0  1.018434  0  0  0.115787  0  1.015529  0  0.110719  0  0.118297  0.110527  0  1.020575  0
H  H5  1  0.95786188  0.47021974  0.33843188  1  0  0.106153  0  0.951031  0  0  0.112756  0  1.018406  0  0  0.115814  0  1.015505  0  0.110743  0  0.118302  0.110545  0  1.020546  0
H  H6  1  0.54213857  0.97021917  0.33843171  1  0  0.106148  0  0.951034  0  0  0.112768  0  1.018405  0  0  0.115816  0  1.015499  0  0.110745  0  0.11831  0.110556  0  1.020543  0
H  H7  1  0.04213642  0.52978001  0.66156946  1  0  0.106153  0  0.951044  0  0  0.11276  0  1.018424  0  0  0.115814  0  1.015519  0  0.110732  0  0.118306  0.11055  0  1.020563  0
H  H8  1  0.55739209  0.14519084  0.58925372  1  0  0.101436  0  0.912573  0  0  0.111345  0  0.974168  0  0  0.113774  0  0.972154  0  0.090711  0  0.114317  0.109511  0  0.97584  0
H  H9  1  0.05738842  0.35480596  0.41074587  1  0  0.101422  0  0.912563  0  0  0.111333  0  0.974163  0  0  0.113771  0  0.972152  0  0.09066  0  0.114313  0.109499  0  0.975837  0
H  H10  1  0.44260922  0.85480627  0.41074739  1  0  0.101428  0  0.912528  0  0  0.111346  0  0.974147  0  0  0.113775  0  0.972126  0  0.090652  0  0.114306  0.10951  0  0.975821  0
H  H11  1  0.94260837  0.64519203  0.58925451  1  0  0.101412  0  0.912592  0  0  0.111331  0  0.974188  0  0  0.113763  0  0.972177  0  0.090676  0  0.114301  0.109497  0  0.97586  0
H  H12  1  0.98296132  0.19298593  0.54813247  1  0  0.426148  0  0.879673  0  0  0.394708  0  0.944626  0  0  0.405428  0  0.928992  0  0.656942  0  0.2888  0.387082  0  0.955717  0
H  H13  1  0.48296067  0.30701263  0.45186808  1  0  0.426135  0  0.87969  0  0  0.394701  0  0.944633  0  0  0.405421  0  0.928998  0  0.65694  0  0.288802  0.387074  0  0.955723  0
H  H14  1  0.01703547  0.80701469  0.45186815  1  0  0.426177  0  0.879624  0  0  0.394739  0  0.944571  0  0  0.405458  0  0.928937  0  0.656949  0  0.288819  0.387113  0  0.95566  0
H  H15  1  0.51703612  0.69298624  0.54813157  1  0  0.426171  0  0.87963  0  0  0.394732  0  0.944581  0  0  0.405451  0  0.928947  0  0.656948  0  0.288822  0.387106  0  0.95567  0
H  H16  1  0.88668885  0.33303992  0.00762753  1  0  0.441068  0  0.85689  0  0  0.411779  0  0.917312  0  0  0.423  0  0.900808  0  0.650512  0  0.30568  0.403795  0  0.929041  0
H  H17  1  0.38669272  0.16695863  0.99237141  1  0  0.441078  0  0.85689  0  0  0.411783  0  0.917322  0  0  0.423002  0  0.90082  0  0.650503  0  0.305679  0.403799  0  0.929052  0
H  H18  1  0.11330944  0.66695807  0.99237205  1  0  0.441058  0  0.856904  0  0  0.411772  0  0.917319  0  0  0.422992  0  0.900817  0  0.650494  0  0.305673  0.403789  0  0.929048  0
H  H19  1  0.61331160  0.83304024  0.00762825  1  0  0.441082  0  0.856868  0  0  0.411789  0  0.917297  0  0  0.42301  0  0.900793  0  0.650508  0  0.305686  0.403805  0  0.929025  0
H  H20  1  0.13881674  0.42266065  0.79036886  1  0  0.443844  0  0.83766  0  0  0.413686  0  0.904281  0  0  0.424016  0  0.889043  0  0.649294  0  0.31098  0.406324  0  0.915111  0
H  H21  1  0.63881439  0.07734054  0.20963032  1  0  0.443861  0  0.837653  0  0  0.413699  0  0.904271  0  0  0.424028  0  0.889034  0  0.649311  0  0.310983  0.406335  0  0.915103  0
H  H22  1  0.86118305  0.57733910  0.20963087  1  0  0.443849  0  0.837673  0  0  0.413687  0  0.904288  0  0  0.424016  0  0.889052  0  0.649294  0  0.310971  0.406324  0  0.915118  0
H  H23  1  0.36118842  0.92266096  0.79036958  1  0  0.443863  0  0.837646  0  0  0.413704  0  0.90427  0  0  0.424036  0  0.889027  0  0.649324  0  0.310989  0.406338  0  0.915106  0
H  H24  1  0.80385483  0.96926901  0.52792475  1  0  0.090244  0  0.938747  0  0  0.099473  0  1.003672  0  0  0.101454  0  1.002456  0  0.066139  0  0.11098  0.097999  0  1.00475  0
H  H25  1  0.30385719  0.53073018  0.47207803  1  0  0.090252  0  0.938692  0  0  0.099469  0  1.003639  0  0  0.101449  0  1.002427  0  0.066097  0  0.110977  0.098008  0  1.004717  0
H  H26  1  0.19614346  0.03073337  0.47207844  1  0  0.090262  0  0.938762  0  0  0.099516  0  1.003654  0  0  0.101495  0  1.002445  0  0.066109  0  0.110994  0.098048  0  1.004727  0
H  H27  1  0.69614412  0.46926606  0.52792139  1  0  0.090255  0  0.938722  0  0  0.09951  0  1.003616  0  0  0.101488  0  1.002408  0  0.066094  0  0.110984  0.098044  0  1.004692  0
H  H28  1  0.72569394  0.88249702  0.63322546  1  0  0.111395  0  0.928041  0  0  0.118709  0  0.994295  0  0  0.121931  0  0.991331  0  0.143268  0  0.118633  0.116377  0  0.996536  0
H  H29  1  0.22569178  0.61750217  0.36677652  1  0  0.111396  0  0.928046  0  0  0.118705  0  0.994312  0  0  0.121929  0  0.991345  0  0.14328  0  0.118628  0.116381  0  0.996562  0
H  H30  1  0.27431188  0.11750361  0.36677677  1  0  0.11138  0  0.928013  0  0  0.118689  0  0.994281  0  0  0.121911  0  0.991316  0  0.143242  0  0.118627  0.116358  0  0.996526  0
H  H31  1  0.77430802  0.38249583  0.63322386  1  0  0.111387  0  0.928018  0  0  0.118696  0  0.994284  0  0  0.121919  0  0.991322  0  0.143256  0  0.118632  0.11637  0  0.996529  0
H  H32  1  0.05618139  0.25224353  0.04919667  1  0  0.43966  0  0.857191  0  0  0.409593  0  0.91972  0  0  0.41998  0  0.904448  0  0.661942  0  0.308865  0.402161  0  0.930625  0
H  H33  1  0.55618204  0.24775766  0.95080412  1  0  0.439608  0  0.857263  0  0  0.409558  0  0.91976  0  0  0.419947  0  0.904484  0  0.661941  0  0.308863  0.402131  0  0.930657  0
H  H34  1  0.94381992  0.74775622  0.95080468  1  0  0.439638  0  0.857227  0  0  0.40959  0  0.91972  0  0  0.419978  0  0.904444  0  0.661959  0  0.308879  0.402162  0  0.930617  0
H  H35  1  0.44381926  0.75224296  0.04919570  1  0  0.439621  0  0.857244  0  0  0.409569  0  0.919745  0  0  0.419957  0  0.904469  0  0.661953  0  0.308868  0.40214  0  0.930644  0
H  H36  1  0.16098589  0.27127751  0.60526990  1  0  0.431813  0  0.867468  0  0  0.400365  0  0.932272  0  0  0.411616  0  0.915729  0  0.664481  0  0.291957  0.392375  0  0.943988  0
H  H37  1  0.66098503  0.22872280  0.39473000  1  0  0.431798  0  0.867485  0  0  0.400348  0  0.932292  0  0  0.4116  0  0.915749  0  0.664537  0  0.291962  0.392359  0  0.944007  0
H  H38  1  0.83901241  0.72872224  0.39473064  1  0  0.43179  0  0.867504  0  0  0.400335  0  0.932317  0  0  0.411585  0  0.915775  0  0.664532  0  0.291934  0.392346  0  0.944032  0
H  H39  1  0.33901477  0.77127870  0.60526908  1  0  0.431773  0  0.867521  0  0  0.400322  0  0.932328  0  0  0.411572  0  0.915786  0  0.664481  0  0.291938  0.392333  0  0.944043  0
H  H40  1  0.92027668  0.43797470  0.84502272  1  0  0.446476  0  0.830054  0  0  0.419327  0  0.891777  0  0  0.429969  0  0.876128  0  0.638743  0  0.310768  0.411576  0  0.903214  0
H  H41  1  0.42027603  0.06202562  0.15497718  1  0  0.446482  0  0.830041  0  0  0.419332  0  0.891767  0  0  0.429975  0  0.876119  0  0.638739  0  0.310766  0.411582  0  0.903205  0
H  H42  1  0.07972011  0.56202593  0.15497709  1  0  0.4465  0  0.830026  0  0  0.419345  0  0.891753  0  0  0.429988  0  0.876103  0  0.638748  0  0.310772  0.411588  0  0.903199  0
H  H43  1  0.57972528  0.93797501  0.84502344  1  0  0.446471  0  0.83006  0  0  0.419326  0  0.891775  0  0  0.429968  0  0.876126  0  0.638731  0  0.31076  0.411576  0  0.903211  0
C  C44  1  0.56743216  0.10186056  0.66484367  1  0  -0.082536  0  3.604833  0  0  -0.135216  0  3.862079  0  0  -0.132944  0  3.861384  0  0.38227  0  -0.061456  -0.136813  0  3.862461  0
C  C45  1  0.06743302  0.39813888  0.33515777  1  0  -0.082515  0  3.604783  0  0  -0.135206  0  3.86207  0  0  -0.132981  0  3.861429  0  0.382218  0  -0.061461  -0.136803  0  3.86245  0
C  C46  1  0.43256764  0.89813919  0.33515768  1  0  -0.08253  0  3.604786  0  0  -0.13531  0  3.86214  0  0  -0.133028  0  3.861433  0  0.382217  0  -0.061492  -0.136901  0  3.862511  0
C  C47  1  0.93256528  0.60185999  0.66484189  1  0  -0.082549  0  3.604817  0  0  -0.135278  0  3.862141  0  0  -0.133023  0  3.861465  0  0.38221  0  -0.061486  -0.136875  0  3.862517  0
C  C48  1  0.51946675  0.19088908  0.76045078  1  0  0.738549  0  3.801459  0  0  0.6898  0  4.100516  0  0  0.723956  0  4.089807  0  1.613032  0  0.24073  0.666392  0  4.10682  0
C  C49  1  0.01946309  0.30911211  0.23954921  1  0  0.738504  0  3.80153  0  0  0.689739  0  4.100617  0  0  0.723908  0  4.089909  0  1.613044  0  0.240702  0.666333  0  4.106918  0
C  C50  1  0.48053455  0.80911155  0.23955065  1  0  0.738467  0  3.801593  0  0  0.689752  0  4.100645  0  0  0.723906  0  4.089935  0  1.613132  0  0.240689  0.666348  0  4.106938  0
C  C51  1  0.98053520  0.69088851  0.76045060  1  0  0.738554  0  3.801453  0  0  0.689792  0  4.100569  0  0  0.723951  0  4.089863  0  1.61318  0  0.240711  0.66639  0  4.106864  0
C  C52  1  0.04092637  0.92829615  0.63727344  1  0  0.702401  0  3.831522  0  0  0.645615  0  4.147509  0  0  0.678834  0  4.138774  0  1.611721  0  0.22453  0.623072  0  4.1526  0
C  C53  1  0.54092401  0.57170479  0.36272628  1  0  0.702283  0  3.831618  0  0  0.645489  0  4.147627  0  0  0.678704  0  4.138894  0  1.611651  0  0.22447  0.622962  0  4.152718  0
C  C54  1  0.95907794  0.07170536  0.36272403  1  0  0.702279  0  3.831592  0  0  0.645498  0  4.147581  0  0  0.678715  0  4.138843  0  1.611653  0  0.224439  0.62296  0  4.152671  0
C  C55  1  0.45907428  0.42829496  0.63727427  1  0  0.702276  0  3.831639  0  0  0.645494  0  4.147636  0  0  0.678712  0  4.138896  0  1.611681  0  0.224465  0.62296  0  4.152727  0
C  C56  1  0.82190620  0.95650891  0.61422051  1  0  -0.078646  0  3.612075  0  0  -0.128345  0  3.867137  0  0  -0.126773  0  3.868441  0  0.360117  0  -0.064905  -0.129609  0  3.866406  0
C  C57  1  0.32190705  0.54349027  0.38578067  1  0  -0.078569  0  3.611976  0  0  -0.128261  0  3.867059  0  0  -0.12669  0  3.868361  0  0.360121  0  -0.064908  -0.129579  0  3.866398  0
C  C58  1  0.17809510  0.04349259  0.38578100  1  0  -0.078623  0  3.611993  0  0  -0.128353  0  3.867083  0  0  -0.126783  0  3.86839  0  0.360112  0  -0.064951  -0.129633  0  3.866377  0
C  C59  1  0.67809425  0.45650860  0.61421899  1  0  -0.078562  0  3.611927  0  0  -0.128288  0  3.867025  0  0  -0.126715  0  3.868327  0  0.360147  0  -0.064915  -0.129585  0  3.866341  0
C  C60  1  0.11299188  0.01347250  0.01122719  1  0  0.583017  0  3.866681  0  0  0.537711  0  4.166339  0  0  0.568321  0  4.155792  0  1.615001  0  0.23235  0.516873  0  4.172698  0
C  C61  1  0.61298802  0.48652781  0.98877272  1  0  0.583051  0  3.866543  0  0  0.537674  0  4.166233  0  0  0.568296  0  4.155692  0  1.588297  0  0.232335  0.516837  0  4.172592  0
C  C62  1  0.88701545  0.98652812  0.98877746  1  0  0.583256  0  3.866102  0  0  0.537682  0  4.166073  0  0  0.56833  0  4.155491  0  1.588673  0  0.232333  0.516845  0  4.172434  0
C  C63  1  0.38700727  0.51347369  0.01122153  1  0  0.583127  0  3.866263  0  0  0.537724  0  4.165982  0  0  0.568343  0  4.15544  0  1.615432  0  0.232315  0.516887  0  4.172344  0
O  O64  1  0.76690175  0.06018582  0.68057702  1  0  -0.337316  0  2.508485  0  0  -0.268696  0  2.755215  0  0  -0.284429  0  2.759374  0  -1.080327  0  -0.272756  -0.257129  0  2.751753  0
O  O65  1  0.26690110  0.43981273  0.31942514  1  0  -0.337368  0  2.508531  0  0  -0.268727  0  2.755221  0  0  -0.28444  0  2.75938  0  -1.080225  0  -0.272729  -0.257146  0  2.751774  0
O  O66  1  0.23309805  0.93981480  0.31942601  1  0  -0.337321  0  2.50846  0  0  -0.268631  0  2.755164  0  0  -0.284359  0  2.759307  0  -1.080196  0  -0.272673  -0.257064  0  2.751708  0
O  O67  1  0.73309720  0.56018526  0.68057443  1  0  -0.337341  0  2.508462  0  0  -0.268672  0  2.755157  0  0  -0.28439  0  2.759304  0  -1.080228  0  -0.272696  -0.257098  0  2.751709  0
O  O68  1  0.33881460  0.21593024  0.78175713  1  0  -0.694497  0  2.068463  0  0  -0.649388  0  2.323746  0  0  -0.674583  0  2.312846  0  -1.194164  0  -0.396731  -0.630929  0  2.330588  0
O  O69  1  0.83881074  0.28407182  0.21824455  1  0  -0.694432  0  2.068619  0  0  -0.64933  0  2.323913  0  0  -0.674523  0  2.313007  0  -1.194213  0  -0.396715  -0.63087  0  2.330753  0
O  O70  1  0.66118370  0.78407214  0.21824445  1  0  -0.69444  0  2.068671  0  0  -0.649305  0  2.323861  0  0  -0.674498  0  2.312961  0  -1.194265  0  -0.396697  -0.630848  0  2.330701  0
O  O71  1  0.16118455  0.71592880  0.78175446  1  0  -0.694455  0  2.068569  0  0  -0.649324  0  2.323816  0  0  -0.674516  0  2.312915  0  -1.194293  0  -0.396707  -0.630868  0  2.330654  0
O  O72  1  0.20263919  0.07198874  0.94340132  1  0  -0.659435  0  2.100629  0  0  -0.603671  0  2.32783  0  0  -0.628717  0  2.318832  0  -1.184034  0  -0.343522  -0.585924  0  2.333653  0
O  O73  1  0.70262780  0.42801421  0.05659882  1  0  -0.659377  0  2.100505  0  0  -0.603613  0  2.327739  0  0  -0.628659  0  2.318739  0  -1.184079  0  -0.343505  -0.585867  0  2.333564  0
O  O74  1  0.79737265  0.92801978  0.05659598  1  0  -0.659448  0  2.100649  0  0  -0.603612  0  2.327967  0  0  -0.628668  0  2.318956  0  -1.184128  0  -0.343531  -0.585869  0  2.333793  0
O  O75  1  0.29736749  0.57198466  0.94340164  1  0  -0.659386  0  2.100598  0  0  -0.603635  0  2.327871  0  0  -0.628683  0  2.318874  0  -1.184196  0  -0.34349  -0.585892  0  2.333699  0
O  O76  1  0.04624365  0.21904218  0.61920521  1  0  -0.932078  0  1.903831  0  0  -0.893951  0  2.101211  0  0  -0.912478  0  2.068807  0  -1.328989  0  -0.64893  -0.880136  0  2.123835  0
O  O77  1  0.54624431  0.28095813  0.38079550  1  0  -0.932045  0  1.90386  0  0  -0.893901  0  2.101207  0  0  -0.912429  0  2.068803  0  -1.32904  0  -0.648925  -0.880087  0  2.12383  0
O  O78  1  0.95375464  0.78095669  0.38079525  1  0  -0.932046  0  1.903807  0  0  -0.893916  0  2.101188  0  0  -0.912442  0  2.068786  0  -1.329023  0  -0.648904  -0.880101  0  2.12381  0
O  O79  1  0.45375399  0.71904337  0.61920439  1  0  -0.932041  0  1.903866  0  0  -0.893898  0  2.101212  0  0  -0.912424  0  2.06881  0  -1.329007  0  -0.648913  -0.880083  0  2.123834  0
O  O80  1  0.97696075  0.26607311  0.98442519  1  0  -0.925565  0  1.92133  0  0  -0.88893  0  2.122989  0  0  -0.90697  0  2.089471  0  -1.304046  0  -0.654983  -0.875298  0  2.146143  0
O  O81  1  0.47696160  0.23392633  0.01557383  1  0  -0.92551  0  1.921342  0  0  -0.888866  0  2.122998  0  0  -0.906903  0  2.089485  0  -1.304051  0  -0.654979  -0.875225  0  2.146131  0
O  O82  1  0.02304055  0.73392577  0.01557527  1  0  -0.925536  0  1.921386  0  0  -0.888902  0  2.123035  0  0  -0.906939  0  2.089521  0  -1.304069  0  -0.65498  -0.875258  0  2.14616  0
O  O83  1  0.52303970  0.76607254  0.98442502  1  0  -0.925532  0  1.92136  0  0  -0.888899  0  2.12301  0  0  -0.906936  0  2.089497  0  -1.304062  0  -0.654977  -0.875276  0  2.14618  0
O  O84  1  0.66726403  0.23616356  0.81535878  1  0  -0.692064  0  2.024646  0  0  -0.636296  0  2.256459  0  0  -0.662517  0  2.247242  0  -1.189905  0  -0.373202  -0.617206  0  2.262268  0
O  O85  1  0.16726187  0.26383588  0.18463943  1  0  -0.69211  0  2.024636  0  0  -0.636279  0  2.256405  0  0  -0.6625  0  2.247184  0  -1.189879  0  -0.373189  -0.617188  0  2.262214  0
O  O86  1  0.33273426  0.76383619  0.18464257  1  0  -0.692057  0  2.024599  0  0  -0.636295  0  2.256401  0  0  -0.662517  0  2.247186  0  -1.189886  0  -0.37319  -0.617205  0  2.262208  0
O  O87  1  0.83273492  0.73616299  0.81535942  1  0  -0.692075  0  2.024592  0  0  -0.636313  0  2.25643  0  0  -0.662533  0  2.24721  0  -1.189887  0  -0.373193  -0.617224  0  2.262236  0
O  O88  1  0.00775694  0.38458566  0.79872875  1  0  -0.878873  0  1.878696  0  0  -0.83654  0  2.07894  0  0  -0.854647  0  2.046352  0  -1.267951  0  -0.62256  -0.823134  0  2.10188  0
O  O89  1  0.50775458  0.11541465  0.20127277  1  0  -0.878883  0  1.878676  0  0  -0.836544  0  2.078908  0  0  -0.854651  0  2.046321  0  -1.267974  0  -0.622549  -0.823139  0  2.101849  0
O  O90  1  0.99224436  0.61541321  0.20127252  1  0  -0.878905  0  1.878692  0  0  -0.836566  0  2.078903  0  0  -0.854672  0  2.046315  0  -1.267975  0  -0.622557  -0.823156  0  2.101856  0
O  O91  1  0.49224672  0.88458597  0.79872865  1  0  -0.878868  0  1.878692  0  0  -0.836562  0  2.078923  0  0  -0.854671  0  2.046333  0  -1.267965  0  -0.622562  -0.823155  0  2.101865  0
O  O92  1  0.12598182  0.98465499  0.71809481  1  0  -0.703484  0  2.067746  0  0  -0.659602  0  2.322081  0  0  -0.68416  0  2.311889  0  -1.189979  0  -0.36535  -0.64188  0  2.328316  0
O  O93  1  0.62597946  0.51534594  0.28190733  1  0  -0.703393  0  2.067742  0  0  -0.659532  0  2.322106  0  0  -0.684095  0  2.311942  0  -1.18994  0  -0.365311  -0.641811  0  2.328333  0
O  O94  1  0.87402400  0.01535089  0.28190789  1  0  -0.703339  0  2.06778  0  0  -0.659493  0  2.322163  0  0  -0.684063  0  2.312014  0  -1.189937  0  -0.365291  -0.641773  0  2.328395  0
O  O95  1  0.37401883  0.48465205  0.71809064  1  0  -0.703396  0  2.067806  0  0  -0.659515  0  2.322126  0  0  -0.684093  0  2.31199  0  -1.189935  0  -0.365314  -0.641795  0  2.328358  0
O  O96  1  0.12403130  0.84898685  0.57376989  1  0  -0.636566  0  1.982467  0  0  -0.567916  0  2.197481  0  0  -0.595105  0  2.188479  0  -1.201433  0  -0.301901  -0.549128  0  2.203345  0
O  O97  1  0.62402744  0.65101584  0.42622757  1  0  -0.636537  0  1.982466  0  0  -0.567865  0  2.197469  0  0  -0.595052  0  2.188468  0  -1.201408  0  -0.301865  -0.549077  0  2.203326  0
O  O98  1  0.87597151  0.15101904  0.42623120  1  0  -0.636507  0  1.982368  0  0  -0.567859  0  2.197383  0  0  -0.595049  0  2.188383  0  -1.201392  0  -0.301824  -0.549068  0  2.203243  0
O  O99  1  0.37596935  0.34897952  0.57377016  1  0  -0.636513  0  1.982427  0  0  -0.567882  0  2.197456  0  0  -0.595072  0  2.188456  0  -1.201447  0  -0.301846  -0.549091  0  2.203314  0
O  O100  1  0.80986142  0.02313908  0.90539907  1  0  -0.637569  0  2.069651  0  0  -0.599187  0  2.306988  0  0  -0.622298  0  2.297993  0  -1.174642  0  -0.32932  -0.582696  0  2.312823  0
O  O101  1  0.30985625  0.47686299  0.09459777  1  0  -0.637522  0  2.06977  0  0  -0.599189  0  2.307022  0  0  -0.622289  0  2.298043  0  -1.174619  0  -0.329331  -0.582697  0  2.312854  0
O  O102  1  0.19013988  0.97686505  0.09459541  1  0  -0.637458  0  2.070273  0  0  -0.599149  0  2.307485  0  0  -0.622245  0  2.298508  0  -1.174704  0  -0.329331  -0.582662  0  2.313316  0
O  O103  1  0.69013903  0.52313413  0.90540254  1  0  -0.637495  0  2.070153  0  0  -0.599178  0  2.307394  0  0  -0.622274  0  2.298412  0  -1.174691  0  -0.329327  -0.582689  0  2.313227  0
