# generated using pymatgen
data_Zn2H10C16N3O8
_symmetry_space_group_name_H-M   'P 1'
_cell_length_a   14.80986642
_cell_length_b   19.37211700
_cell_length_c   19.65760297
_cell_angle_alpha   116.02594899
_cell_angle_beta   90.00008772
_cell_angle_gamma   90.00269089
_symmetry_Int_Tables_number   1
_chemical_formula_structural   Zn2H10C16N3O8
_chemical_formula_sum   'Zn12 H60 C96 N18 O48'
_cell_volume   5067.84102673
_cell_formula_units_Z   6
loop_
 _symmetry_equiv_pos_site_id
 _symmetry_equiv_pos_as_xyz
  1  'x, y, z'
loop_
 _atom_site_type_symbol
 _atom_site_label
 _atom_site_symmetry_multiplicity
 _atom_site_fract_x
 _atom_site_fract_y
 _atom_site_fract_z
 _atom_site_occupancy
 _atom_site_pbe_bader_charge
 _atom_site_pbe_bader_spin_density
 _atom_site_pbe_cm5_charge
 _atom_site_pbe_ddec_charge
 _atom_site_pbe_ddec_spin_density
 _atom_site_pbe_ddec_sum_bond_order
 _atom_site_pbe_magmom
Zn  Zn0  1  0.23683397  0.41285962  0.75154657  1  1.259843  0  0.708199  0.808104  0  2.371181  0
Zn  Zn1  1  0.73683190  0.58713733  0.24844310  1  1.259969  0  0.708292  0.808206  0  2.371328  0
Zn  Zn2  1  0.57460893  0.50846456  0.63465616  1  1.307109  0  0.709937  0.868091  0  2.351051  0
Zn  Zn3  1  0.07459621  0.49154177  0.36533334  1  1.307076  0  0.709992  0.868068  0  2.351084  0
Zn  Zn4  1  0.63785093  0.47233280  0.77870526  1  1.298164  0  0.706474  0.864827  0  2.369781  0
Zn  Zn5  1  0.13786109  0.52767349  0.22128887  1  1.298322  0  0.706377  0.864819  0  2.36967  0
Zn  Zn6  1  0.08273320  0.97331910  0.19382388  1  1.326068  0  0.719905  0.88802  0  2.350252  0
Zn  Zn7  1  0.58273340  0.02668351  0.80618691  1  1.326329  0  0.719859  0.887973  0  2.350274  0
Zn  Zn8  1  0.19762107  0.13110660  0.81865697  1  1.273765  0  0.712745  0.773196  0  2.419221  0
Zn  Zn9  1  0.69760992  0.86888054  0.18133348  1  1.273923  0  0.712794  0.773326  0  2.419046  0
Zn  Zn10  1  0.25746211  0.06614516  0.64309687  1  1.264712  0  0.718887  0.777615  0  2.458723  0
Zn  Zn11  1  0.75745599  0.93385382  0.35691100  1  1.264762  0  0.718947  0.77773  0  2.45866  0
H  H12  1  0.62359786  0.93440266  0.96922077  1  0.173369  0  0.122649  0.136905  0  0.979058  0
H  H13  1  0.12360006  0.06559200  0.03079525  1  0.174151  0  0.122605  0.136563  0  0.978973  0
H  H14  1  0.65296430  0.70145355  0.93921678  1  0.133352  0  0.11525  0.125643  0  0.993656  0
H  H15  1  0.15299580  0.29854364  0.06077800  1  0.133413  0  0.11517  0.125709  0  0.993582  0
H  H16  1  0.37362131  0.43599303  0.86470894  1  0.12136  0  0.10403  0.156888  0  1.011355  0
H  H17  1  0.87362907  0.56406007  0.13529460  1  0.122437  0  0.103989  0.156987  0  1.011271  0
H  H18  1  0.49377310  0.43995965  0.86950992  1  0.061736  0  0.105351  0.15643  0  1.003138  0
H  H19  1  0.99377992  0.56010231  0.13049048  1  0.06078  0  0.105385  0.156438  0  1.003071  0
H  H20  1  0.43869755  0.35087831  0.81517243  1  0.066032  0  0.108295  0.163201  0  0.963778  0
H  H21  1  0.93870998  0.64917420  0.18485332  1  0.06532  0  0.108493  0.163435  0  0.963756  0
H  H22  1  0.26915437  0.46215852  0.62614623  1  0.128133  0  0.108863  0.174532  0  1.002361  0
H  H23  1  0.76913261  0.53779517  0.37378856  1  0.128149  0  0.10893  0.174865  0  1.002026  0
H  H24  1  0.34442582  0.39896649  0.55596679  1  0.058637  0  0.106212  0.153546  0  0.969077  0
H  H25  1  0.84439527  0.60098076  0.44398869  1  0.058276  0  0.106367  0.153796  0  0.969282  0
H  H26  1  0.36337244  0.50025662  0.59735154  1  0.095897  0  0.101846  0.157067  0  1.036442  0
H  H27  1  0.86334365  0.49969095  0.40258375  1  0.095593  0  0.101953  0.157234  0  1.036292  0
H  H28  1  0.93432610  0.94845181  0.08094432  1  0.094202  0  0.111225  0.170047  0  0.979554  0
H  H29  1  0.43432038  0.05155396  0.91906670  1  0.094177  0  0.111217  0.170055  0  0.979448  0
H  H30  1  0.82215244  0.91177352  0.07134450  1  0.091938  0  0.104708  0.160258  0  1.014857  0
H  H31  1  0.32215575  0.08823698  0.92866998  1  0.092171  0  0.104716  0.160181  0  1.014872  0
H  H32  1  0.91700425  0.85210078  0.06541282  1  0.080514  0  0.106316  0.158516  0  0.974289  0
H  H33  1  0.41701734  0.14790250  0.93459151  1  0.080388  0  0.106334  0.158478  0  0.97425  0
H  H34  1  0.02340126  0.99373873  0.37438103  1  0.103771  0  0.110548  0.171843  0  0.9684  0
H  H35  1  0.52340660  0.00626924  0.62563914  1  0.103364  0  0.110658  0.171987  0  0.968418  0
H  H36  1  0.92515477  0.04934087  0.41600034  1  0.090168  0  0.104501  0.153141  0  0.98898  0
H  H37  1  0.42516474  0.95066506  0.58401227  1  0.090274  0  0.104517  0.153208  0  0.988984  0
H  H38  1  0.00443637  0.08056328  0.36648865  1  0.097187  0  0.110645  0.166803  0  0.967709  0
H  H39  1  0.50443530  0.91944673  0.63352628  1  0.097185  0  0.110663  0.166853  0  0.967828  0
H  H40  1  0.12641124  0.37392839  0.87876621  1  0.100664  0  0.110148  0.168344  0  0.967965  0
H  H41  1  0.62641672  0.62606183  0.12123974  1  0.098347  0  0.110104  0.168365  0  0.967989  0
H  H42  1  0.23858730  0.37849323  0.91070639  1  0.051808  0  0.104158  0.154978  0  0.984819  0
H  H43  1  0.73859176  0.62151066  0.08929851  1  0.051676  0  0.104169  0.155032  0  0.984752  0
H  H44  1  0.16465801  0.30636438  0.91228297  1  0.090929  0  0.104811  0.166639  0  1.015334  0
H  H45  1  0.66465544  0.69363216  0.08772323  1  0.091222  0  0.104787  0.166607  0  1.01555  0
H  H46  1  0.35208454  0.23253358  0.60333778  1  0.115132  0  0.10855  0.166146  0  0.969751  0
H  H47  1  0.85207970  0.76745701  0.39666503  1  0.115213  0  0.10854  0.166102  0  0.969762  0
H  H48  1  0.25313862  0.28555378  0.60352978  1  0.083266  0  0.102871  0.151956  0  1.006908  0
H  H49  1  0.75311701  0.71444501  0.39647750  1  0.082923  0  0.102821  0.151868  0  1.006981  0
H  H50  1  0.24993892  0.18341920  0.56441930  1  0.061603  0  0.105848  0.156979  0  0.985251  0
H  H51  1  0.74994326  0.81658347  0.43559017  1  0.061689  0  0.10578  0.156865  0  0.985267  0
H  H52  1  0.89561522  0.41918940  0.71137005  1  0.164324  0  0.119533  0.13365  0  0.984142  0
H  H53  1  0.39560449  0.58083014  0.28864844  1  0.164027  0  0.119584  0.133663  0  0.984088  0
H  H54  1  0.09625791  0.41314772  0.55018264  1  0.134382  0  0.117563  0.127201  0  0.98489  0
H  H55  1  0.59626971  0.58682797  0.44979967  1  0.133746  0  0.117589  0.127233  0  0.984796  0
H  H56  1  0.81273881  0.42859004  0.50566849  1  0.124974  0  0.119277  0.131419  0  0.978773  0
H  H57  1  0.31275355  0.57141714  0.49435421  1  0.124987  0  0.119212  0.131352  0  0.97896  0
H  H58  1  0.19272049  0.52599459  0.99649447  1  0.126595  0  0.11488  0.122408  0  1.00345  0
H  H59  1  0.69269745  0.47400903  0.00348432  1  0.126327  0  0.114939  0.122396  0  1.003467  0
H  H60  1  0.17257459  0.70749269  0.92622446  1  0.142451  0  0.121809  0.131925  0  0.977925  0
H  H61  1  0.67261814  0.29251230  0.07376355  1  0.143101  0  0.121843  0.132016  0  0.977786  0
H  H62  1  0.14781357  0.75889410  0.16288534  1  0.132115  0  0.118115  0.129623  0  0.98673  0
H  H63  1  0.64784394  0.24109369  0.83709924  1  0.131502  0  0.117988  0.129498  0  0.986795  0
H  H64  1  0.59429310  0.74519269  0.74704339  1  0.180882  0  0.117669  0.128612  0  0.985131  0
H  H65  1  0.09429795  0.25482254  0.25296018  1  0.180813  0  0.117638  0.128555  0  0.985392  0
H  H66  1  0.42364650  0.95142742  0.22218185  1  0.158979  0  0.122379  0.132992  0  0.976908  0
H  H67  1  0.92363111  0.04858994  0.77783115  1  0.158743  0  0.12235  0.132948  0  0.976804  0
H  H68  1  0.51670248  0.01809608  0.45000167  1  0.135278  0  0.11793  0.131121  0  0.984597  0
H  H69  1  0.01670148  0.98190012  0.55000880  1  0.135961  0  0.117953  0.131182  0  0.984678  0
H  H70  1  0.23214168  0.02489486  0.40619479  1  0.119018  0  0.116182  0.126066  0  0.990329  0
H  H71  1  0.73213653  0.97509150  0.59380402  1  0.118954  0  0.116162  0.126  0  0.990355  0
C  C72  1  0.59304277  0.90219586  0.82444578  1  1.504874  0  0.215503  0.550743  0  4.18094  0
C  C73  1  0.09305062  0.09781353  0.17557153  1  1.505381  0  0.215598  0.550663  0  4.180936  0
C  C74  1  0.60683929  0.84549484  0.85494155  1  0.013879  0  -0.010024  -0.029255  0  3.986424  0
C  C75  1  0.10684450  0.15450999  0.14507633  1  0.01384  0  -0.009867  -0.029  0  3.986105  0
C  C76  1  0.62279646  0.87282514  0.93252572  1  -0.030291  0  -0.051238  -0.071424  0  3.869564  0
C  C77  1  0.12280388  0.12718212  0.06749528  1  -0.031221  0  -0.051356  -0.071158  0  3.869491  0
C  C78  1  0.63895844  0.82095351  0.96286146  1  0.097416  0  -0.01301  -0.039371  0  4.007513  0
C  C79  1  0.13897846  0.17903383  0.03714224  1  0.097768  0  -0.013041  -0.039357  0  4.006988  0
C  C80  1  0.63955420  0.74200751  0.91582548  1  -0.155176  0  -0.057456  -0.073792  0  3.885553  0
C  C81  1  0.13957851  0.25799595  0.08418014  1  -0.154905  0  -0.057179  -0.073811  0  3.884943  0
C  C82  1  0.62338569  0.71473956  0.83815141  1  0.051181  0  -0.012902  -0.04324  0  3.970989  0
C  C83  1  0.12339562  0.28526260  0.16185363  1  0.050779  0  -0.013037  -0.043383  0  3.9715  0
C  C84  1  0.62350591  0.63002788  0.78855498  1  1.567212  0  0.227114  0.605654  0  4.167602  0
C  C85  1  0.12350092  0.36998064  0.21144062  1  1.567071  0  0.227094  0.605846  0  4.167603  0
C  C86  1  0.92071228  0.98806800  0.29579383  1  1.012785  0  0.237496  0.429623  0  3.968295  0
C  C87  1  0.42071518  0.01193142  0.70421289  1  1.012737  0  0.237486  0.429468  0  3.968245  0
C  C88  1  0.88491012  0.93678216  0.17688782  1  0.993318  0  0.235928  0.427227  0  3.961657  0
C  C89  1  0.38490696  0.06321909  0.82312322  1  0.99354  0  0.235982  0.427331  0  3.962114  0
C  C90  1  0.43599318  0.41307771  0.83251676  1  -0.05993  0  -0.227672  -0.473345  0  3.91566  0
C  C91  1  0.93600444  0.58697128  0.16749066  1  -0.05996  0  -0.227823  -0.473711  0  3.9158  0
C  C92  1  0.43796866  0.42943552  0.76544346  1  1.016549  0  0.231787  0.418138  0  3.974025  0
C  C93  1  0.93797566  0.57058428  0.23454721  1  1.017619  0  0.23181  0.418301  0  3.97414  0
C  C94  1  0.39589851  0.44736132  0.66884124  1  1.010809  0  0.236722  0.430812  0  3.964608  0
C  C95  1  0.89589852  0.55261985  0.33112344  1  1.011086  0  0.23678  0.430555  0  3.964483  0
C  C96  1  0.34006759  0.45259930  0.60863605  1  -0.061663  0  -0.229571  -0.478245  0  3.905013  0
C  C97  1  0.84004916  0.54735699  0.39130758  1  -0.060357  0  -0.229895  -0.478934  0  3.905319  0
C  C98  1  0.88949402  0.91064937  0.09379532  1  -0.059567  0  -0.227697  -0.474534  0  3.908215  0
C  C99  1  0.38949601  0.08935612  0.90621655  1  -0.059619  0  -0.227659  -0.47431  0  3.908035  0
C  C100  1  0.97107487  0.03037521  0.36748970  1  -0.079094  0  -0.225246  -0.473183  0  3.920505  0
C  C101  1  0.47108273  0.96962934  0.63252084  1  -0.078712  0  -0.225335  -0.473376  0  3.920743  0
C  C102  1  0.18357002  0.33871127  0.88070007  1  -0.035942  0  -0.228105  -0.473537  0  3.908181  0
C  C103  1  0.68357159  0.66128669  0.11930677  1  -0.033497  0  -0.22811  -0.473665  0  3.908249  0
C  C104  1  0.21137612  0.28556529  0.80257792  1  0.997135  0  0.232594  0.422059  0  3.967376  0
C  C105  1  0.71137707  0.71443335  0.19742772  1  0.996785  0  0.23262  0.422097  0  3.967184  0
C  C106  1  0.25179902  0.24065664  0.68492063  1  0.994191  0  0.229581  0.413398  0  3.981426  0
C  C107  1  0.75179149  0.75934267  0.31508585  1  0.993782  0  0.229503  0.413517  0  3.980996  0
C  C108  1  0.27830071  0.23548570  0.60988677  1  -0.085096  0  -0.227754  -0.470929  0  3.923029  0
C  C109  1  0.77829230  0.76451307  0.39011849  1  -0.08505  0  -0.227589  -0.470673  0  3.923013  0
C  C110  1  0.74872854  0.43855645  0.64052945  1  1.581794  0  0.231029  0.607012  0  4.162323  0
C  C111  1  0.24872282  0.56143983  0.35948029  1  1.581841  0  0.231054  0.606908  0  4.162836  0
C  C112  1  0.84381268  0.42494862  0.61134364  1  0.00251  0  -0.010129  -0.036823  0  3.962537  0
C  C113  1  0.34381664  0.57505769  0.38866802  1  0.002661  0  -0.010088  -0.036922  0  3.962607  0
C  C114  1  0.91239653  0.41834956  0.65709705  1  -0.051174  0  -0.047812  -0.062959  0  3.850294  0
C  C115  1  0.41239743  0.58166039  0.34291831  1  -0.051094  0  -0.047871  -0.062938  0  3.850749  0
C  C116  1  0.00301945  0.41258846  0.63453659  1  -0.044572  0  -0.004232  -0.020243  0  3.958429  0
C  C117  1  0.50302370  0.58740947  0.36545884  1  -0.044588  0  -0.004171  -0.019995  0  3.958497  0
C  C118  1  0.07401118  0.40665103  0.68588895  1  1.56085  0  0.21237  0.555945  0  4.210988  0
C  C119  1  0.57400894  0.59333171  0.31409741  1  1.559667  0  0.21207  0.555294  0  4.211958  0
C  C120  1  0.02576171  0.41427229  0.56630244  1  0.034161  0  -0.05796  -0.088047  0  3.878018  0
C  C121  1  0.52577071  0.58571976  0.43369301  1  0.034746  0  -0.058062  -0.088206  0  3.877688  0
C  C122  1  0.95694176  0.42047772  0.52022898  1  -0.071193  0  0.003579  -0.005468  0  3.93643  0
C  C123  1  0.45695900  0.57952277  0.47977367  1  -0.071279  0  0.00377  -0.005214  0  3.936329  0
C  C124  1  0.97942491  0.42789680  0.44950430  1  1.577417  0  0.217764  0.551913  0  4.23079  0
C  C125  1  0.47945668  0.57209839  0.55049149  1  1.577646  0  0.217648  0.55192  0  4.230803  0
C  C126  1  0.86589043  0.42406102  0.54183334  1  0.023811  0  -0.052025  -0.081039  0  3.865242  0
C  C127  1  0.36590066  0.57594396  0.45818337  1  0.024042  0  -0.052234  -0.081291  0  3.865193  0
C  C128  1  0.16177885  0.61483557  0.14803387  1  1.535428  0  0.207266  0.543925  0  4.222866  0
C  C129  1  0.66176412  0.38515573  0.85194666  1  1.535116  0  0.207156  0.54396  0  4.223335  0
C  C130  1  0.17008619  0.63993064  0.08614721  1  -0.004297  0  -0.010624  -0.032703  0  3.974362  0
C  C131  1  0.67009637  0.36006448  0.91383499  1  -0.004904  0  -0.010817  -0.033014  0  3.974793  0
C  C132  1  0.18370107  0.58653503  0.01063665  1  -0.038534  0  -0.053389  -0.068756  0  3.853853  0
C  C133  1  0.68369781  0.41346760  0.98934475  1  -0.037679  0  -0.053277  -0.068723  0  3.853882  0
C  C134  1  0.18527467  0.61125788  0.95323098  1  0.041203  0  -0.006529  -0.025387  0  3.951972  0
C  C135  1  0.68528224  0.38875171  0.04675447  1  0.040501  0  -0.006389  -0.024634  0  3.95125  0
C  C136  1  0.20068216  0.55451712  0.87233698  1  1.574909  0  0.21199  0.553372  0  4.213842  0
C  C137  1  0.70065422  0.44549776  0.12765332  1  1.575592  0  0.212133  0.553424  0  4.213683  0
C  C138  1  0.17238027  0.68884809  0.97111928  1  -0.021295  0  -0.054806  -0.086315  0  3.878052  0
C  C139  1  0.67241408  0.31115804  0.02887177  1  -0.023529  0  -0.054977  -0.086828  0  3.878053  0
C  C140  1  0.15822288  0.74182710  0.04660115  1  -0.076068  0  -0.001814  -0.013248  0  3.955044  0
C  C141  1  0.65826736  0.25817437  0.95338836  1  -0.074023  0  -0.00175  -0.013355  0  3.955343  0
C  C142  1  0.15832617  0.71753041  0.10412411  1  -0.023782  0  -0.056449  -0.081249  0  3.877089  0
C  C143  1  0.65835449  0.28246360  0.89586064  1  -0.023985  0  -0.056233  -0.080903  0  3.877347  0
C  C144  1  0.14053050  0.82458180  0.06811334  1  1.573912  0  0.221433  0.547218  0  4.212578  0
C  C145  1  0.64056915  0.17541998  0.93189105  1  1.574314  0  0.221515  0.547445  0  4.212603  0
C  C146  1  0.65811598  0.85114101  0.04502006  1  1.522344  0  0.209101  0.54699  0  4.204897  0
C  C147  1  0.15813591  0.14882190  0.95497712  1  1.524776  0  0.209365  0.547113  0  4.206438  0
C  C148  1  0.60689487  0.76650513  0.80748164  1  -0.088459  0  -0.052465  -0.068498  0  3.865442  0
C  C149  1  0.10690302  0.23351007  0.19253006  1  -0.088469  0  -0.052477  -0.06853  0  3.865866  0
C  C150  1  0.24580321  0.98251951  0.25595090  1  1.541159  0  0.212516  0.54271  0  4.210487  0
C  C151  1  0.74578652  0.01749161  0.74405207  1  1.541592  0  0.212704  0.54286  0  4.210036  0
C  C152  1  0.32049897  0.98989256  0.30923597  1  -0.0208  0  -0.002433  -0.016937  0  3.959377  0
C  C153  1  0.82048981  0.01011214  0.69076836  1  -0.021011  0  -0.00247  -0.017172  0  3.959498  0
C  C154  1  0.40960117  0.97255522  0.28240810  1  -0.037211  0  -0.045928  -0.062212  0  3.843807  0
C  C155  1  0.90959179  0.02745521  0.71759831  1  -0.037238  0  -0.045937  -0.062069  0  3.844027  0
C  C156  1  0.48000930  0.98182854  0.33314212  1  0.004313  0  -0.01044  -0.03869  0  3.970358  0
C  C157  1  0.98000194  0.01817469  0.66686988  1  0.004568  0  -0.010364  -0.038461  0  3.970533  0
C  C158  1  0.57460021  0.95825500  0.30591484  1  1.5858  0  0.228123  0.599222  0  4.168977  0
C  C159  1  0.07459750  0.04174207  0.69409658  1  1.586023  0  0.228253  0.599272  0  4.168773  0
C  C160  1  0.46164767  0.00965979  0.41042216  1  -0.029643  0  -0.053307  -0.075544  0  3.873645  0
C  C161  1  0.96164413  0.99034089  0.58958872  1  -0.029973  0  -0.053327  -0.07566  0  3.87375  0
C  C162  1  0.37243465  0.02426132  0.43656886  1  0.00647  0  -0.004835  -0.019101  0  3.97602  0
C  C163  1  0.87242948  0.97573306  0.56343664  1  0.00716  0  -0.004738  -0.019016  0  3.975944  0
C  C164  1  0.35365071  0.04886852  0.51840269  1  1.542596  0  0.207925  0.53994  0  4.253388  0
C  C165  1  0.85365130  0.95112558  0.48160317  1  1.541924  0  0.207784  0.539747  0  4.253294  0
C  C166  1  0.30159774  0.01458060  0.38611309  1  -0.019408  0  -0.060088  -0.088886  0  3.885697  0
C  C167  1  0.80159057  0.98541176  0.61388840  1  -0.019525  0  -0.0601  -0.0888  0  3.885685  0
N  N168  1  0.95291191  0.97317991  0.22608480  1  -1.245353  0  -0.352397  -0.443389  0  3.4014  0
N  N169  1  0.45290776  0.02682554  0.77392763  1  -1.245853  0  -0.352411  -0.443452  0  3.401659  0
N  N170  1  0.81368105  0.92873983  0.21446520  1  -0.802127  0  -0.260285  -0.270334  0  3.488136  0
N  N171  1  0.31368101  0.07125420  0.78554110  1  -0.802084  0  -0.26037  -0.270607  0  3.488304  0
N  N172  1  0.83660400  0.96118624  0.29014341  1  -0.804708  0  -0.264574  -0.277148  0  3.504492  0
N  N173  1  0.33660789  0.03880825  0.70986209  1  -0.804216  0  -0.264542  -0.276843  0  3.504196  0
N  N174  1  0.48493955  0.46005258  0.67704846  1  -0.819857  0  -0.259338  -0.289105  0  3.505007  0
N  N175  1  0.98493943  0.53993774  0.32292539  1  -0.820693  0  -0.259452  -0.289035  0  3.505273  0
N  N176  1  0.51145401  0.44830330  0.73831369  1  -0.809949  0  -0.258759  -0.276652  0  3.52244  0
N  N177  1  0.01145695  0.55171055  0.26167595  1  -0.809399  0  -0.258691  -0.276653  0  3.522673  0
N  N178  1  0.36456481  0.42814805  0.72327142  1  -1.257596  0  -0.352355  -0.441744  0  3.409904  0
N  N179  1  0.86456724  0.57185123  0.27670364  1  -1.258896  0  -0.352436  -0.441698  0  3.409291  0
N  N180  1  0.21589775  0.20932135  0.77545501  1  -0.797411  0  -0.256919  -0.269996  0  3.463597  0
N  N181  1  0.71589266  0.79067921  0.22455300  1  -0.797328  0  -0.256994  -0.269941  0  3.463392  0
N  N182  1  0.24137035  0.18079432  0.70066965  1  -0.805951  0  -0.265601  -0.277216  0  3.504087  0
N  N183  1  0.74135974  0.81920795  0.29934015  1  -0.805625  0  -0.265619  -0.277482  0  3.503992  0
N  N184  1  0.23410617  0.30701246  0.74743008  1  -1.227455  0  -0.35655  -0.446754  0  3.437199  0
N  N185  1  0.73410590  0.69298491  0.25257351  1  -1.227236  0  -0.356506  -0.446744  0  3.437296  0
O  O186  1  0.58200576  0.97362014  0.87244814  1  -1.046557  0  -0.273574  -0.469096  0  2.21484  0
O  O187  1  0.08200100  0.02638819  0.12756614  1  -1.046243  0  -0.273766  -0.469258  0  2.21462  0
O  O188  1  0.60909452  0.60845851  0.71820069  1  -1.178536  0  -0.313975  -0.545495  0  2.356022  0
O  O189  1  0.10908762  0.39155051  0.28179612  1  -1.178435  0  -0.313971  -0.545551  0  2.356192  0
O  O190  1  0.73654822  0.43879447  0.70476195  1  -1.16287  0  -0.308824  -0.535486  0  2.378342  0
O  O191  1  0.23656397  0.56117945  0.29523451  1  -1.163053  0  -0.308849  -0.535447  0  2.378445  0
O  O192  1  0.68922665  0.45058642  0.60014105  1  -1.173118  0  -0.313302  -0.534699  0  2.323775  0
O  O193  1  0.18921284  0.54942500  0.39987520  1  -1.173078  0  -0.313175  -0.534461  0  2.324158  0
O  O194  1  0.05103430  0.39481501  0.74126223  1  -1.048842  0  -0.264433  -0.445342  0  1.979135  0
O  O195  1  0.55103268  0.60513338  0.25870613  1  -1.048013  0  -0.264288  -0.445077  0  1.97956  0
O  O196  1  0.15748749  0.41368250  0.67031407  1  -1.140832  0  -0.312501  -0.535723  0  2.315252  0
O  O197  1  0.65748485  0.58631949  0.32968025  1  -1.14049  0  -0.312403  -0.535524  0  2.315411  0
O  O198  1  0.93193514  0.39236233  0.39189195  1  -1.028341  0  -0.248572  -0.421762  0  1.969844  0
O  O199  1  0.43198340  0.60762782  0.60811533  1  -1.027838  0  -0.248409  -0.42166  0  1.969754  0
O  O200  1  0.04575076  0.47278756  0.45326270  1  -1.122935  0  -0.309125  -0.507733  0  2.250301  0
O  O201  1  0.54578472  0.52721404  0.54672370  1  -1.123736  0  -0.309139  -0.507798  0  2.250314  0
O  O202  1  0.14813884  0.66369226  0.21491807  1  -1.066322  0  -0.269326  -0.451556  0  1.990978  0
O  O203  1  0.64810882  0.33629669  0.78506752  1  -1.065962  0  -0.269301  -0.451564  0  1.991559  0
O  O204  1  0.16528167  0.54171168  0.12931549  1  -1.106569  0  -0.318132  -0.520596  0  2.214124  0
O  O205  1  0.66526677  0.45828092  0.87066713  1  -1.10606  0  -0.318078  -0.520583  0  2.214114  0
O  O206  1  0.22392263  0.48554525  0.86024903  1  -1.143988  0  -0.313177  -0.539556  0  2.329266  0
O  O207  1  0.72394759  0.51446092  0.13973496  1  -1.143886  0  -0.31318  -0.539712  0  2.329114  0
O  O208  1  0.19042471  0.57475121  0.82051748  1  -1.032201  0  -0.260166  -0.429269  0  1.956252  0
O  O209  1  0.69032810  0.42527875  0.17946868  1  -1.032574  0  -0.260345  -0.429409  0  1.956749  0
O  O210  1  0.08994104  0.85974601  0.12697081  1  -1.0918  0  -0.284037  -0.494635  0  2.257477  0
O  O211  1  0.58995715  0.14025404  0.87304396  1  -1.092132  0  -0.283919  -0.494518  0  2.257652  0
O  O212  1  0.17348045  0.85726537  0.03132867  1  -0.957339  0  -0.21936  -0.360548  0  1.897074  0
O  O213  1  0.67352189  0.14274192  0.96867611  1  -0.957309  0  -0.219588  -0.360802  0  1.897003  0
O  O214  1  0.59349930  0.88481081  0.75457649  1  -1.051799  0  -0.263481  -0.451688  0  1.994668  0
O  O215  1  0.09351983  0.11520032  0.24544310  1  -1.052277  0  -0.263505  -0.451611  0  1.99457  0
O  O216  1  0.63790785  0.58679077  0.82099927  1  -1.166296  0  -0.310516  -0.533723  0  2.328063  0
O  O217  1  0.13789466  0.41321668  0.17899232  1  -1.166317  0  -0.310569  -0.533929  0  2.328052  0
O  O218  1  0.67375677  0.80234493  0.07253309  1  -1.130911  0  -0.31243  -0.514573  0  2.254979  0
O  O219  1  0.17379317  0.19761005  0.92746626  1  -1.13209  0  -0.312539  -0.514654  0  2.255793  0
O  O220  1  0.66171581  0.92226456  0.08704057  1  -1.072825  0  -0.264961  -0.447723  0  2.013926  0
O  O221  1  0.16170697  0.07772545  0.91298671  1  -1.073955  0  -0.265073  -0.447609  0  2.014919  0
O  O222  1  0.16398191  0.97617184  0.27595214  1  -1.085795  0  -0.291871  -0.493502  0  2.218768  0
O  O223  1  0.66396826  0.02383905  0.72405064  1  -1.086441  0  -0.292058  -0.493608  0  2.218542  0
O  O224  1  0.26188571  0.98357023  0.19369367  1  -1.012217  0  -0.242256  -0.413181  0  1.975479  0
O  O225  1  0.76186839  0.01643701  0.80631170  1  -1.012014  0  -0.242267  -0.41321  0  1.975516  0
O  O226  1  0.27609843  0.02884566  0.53467978  1  -1.13845  0  -0.319697  -0.512605  0  2.275746  0
O  O227  1  0.77610697  0.97115589  0.46532516  1  -1.138368  0  -0.319595  -0.512495  0  2.275857  0
O  O228  1  0.41128716  0.08708675  0.56704218  1  -1.069674  0  -0.269282  -0.464036  0  2.018176  0
O  O229  1  0.91128665  0.91289787  0.43296471  1  -1.069608  0  -0.269262  -0.463989  0  2.017909  0
O  O230  1  0.63494164  0.97533317  0.35692720  1  -1.169216  0  -0.316101  -0.529761  0  2.351105  0
O  O231  1  0.13493778  0.02467581  0.64308845  1  -1.169181  0  -0.316301  -0.529926  0  2.351136  0
O  O232  1  0.58623991  0.92181017  0.23472216  1  -1.155802  0  -0.306341  -0.513218  0  2.344168  0
O  O233  1  0.08624229  0.07817707  0.76529161  1  -1.156379  0  -0.306235  -0.51318  0  2.34411  0
