# generated using pymatgen
data_CdH30C50(N2O5)2
_symmetry_space_group_name_H-M   'P 1'
_cell_length_a   4.57996665
_cell_length_b   15.40776277
_cell_length_c   17.50288103
_cell_angle_alpha   65.87006882
_cell_angle_beta   85.83224989
_cell_angle_gamma   83.17187199
_symmetry_Int_Tables_number   1
_chemical_formula_structural   CdH30C50(N2O5)2
_chemical_formula_sum   'Cd1 H30 C50 N4 O10'
_cell_volume   1118.81208743
_cell_formula_units_Z   1
loop_
 _symmetry_equiv_pos_site_id
 _symmetry_equiv_pos_as_xyz
  1  'x, y, z'
loop_
 _atom_site_type_symbol
 _atom_site_label
 _atom_site_symmetry_multiplicity
 _atom_site_fract_x
 _atom_site_fract_y
 _atom_site_fract_z
 _atom_site_occupancy
 _atom_site_hle17_bader_spin_density
 _atom_site_hle17_ddec_charge
 _atom_site_hle17_ddec_spin_density
 _atom_site_hle17_ddec_sum_bond_order
 _atom_site_hle17_magmom
 _atom_site_hse06_10hf_bader_spin_density
 _atom_site_hse06_10hf_ddec_charge
 _atom_site_hse06_10hf_ddec_spin_density
 _atom_site_hse06_10hf_ddec_sum_bond_order
 _atom_site_hse06_10hf_magmom
 _atom_site_hse06_bader_spin_density
 _atom_site_hse06_ddec_charge
 _atom_site_hse06_ddec_spin_density
 _atom_site_hse06_ddec_sum_bond_order
 _atom_site_hse06_magmom
 _atom_site_pbe_bader_spin_density
 _atom_site_pbe_cm5_charge
 _atom_site_pbe_ddec_charge
 _atom_site_pbe_ddec_spin_density
 _atom_site_pbe_ddec_sum_bond_order
 _atom_site_pbe_magmom
Cd  Cd0  1  0.00000033  0.00000038  0.99999882  1  0  1.179784  0  1.640828  0  0  0.989573  0  2.09703  0  0  1.046241  0  2.043191  0  0  0.786336  0.94915  0  2.133997  0
H  H1  1  0.52545104  0.18450860  0.94310509  1  0  0.076526  0  0.965694  0  0  0.086982  0  1.027881  0  0  0.088685  0  1.026582  0  0  0.113374  0.085657  0  1.028882  0
H  H2  1  0.47455471  0.81548683  0.05689901  1  0  0.076499  0  0.965647  0  0  0.086956  0  1.027845  0  0  0.088646  0  1.026563  0  0  0.113344  0.08563  0  1.028845  0
H  H3  1  0.36637267  0.33145296  0.96733285  1  0  0.112925  0  0.960853  0  0  0.123475  0  1.019068  0  0  0.126451  0  1.019114  0  0  0.104703  0.121347  0  1.019199  0
H  H4  1  0.63363500  0.66854319  0.03266923  1  0  0.112987  0  0.960791  0  0  0.123531  0  1.018994  0  0  0.126506  0  1.019041  0  0  0.104755  0.121405  0  1.019121  0
H  H5  1  0.00369362  0.23303984  0.16293016  1  0  0.120536  0  0.969151  0  0  0.129572  0  1.030866  0  0  0.133172  0  1.029202  0  0  0.105036  0.126985  0  1.032216  0
H  H6  1  0.99631884  0.76696204  0.83707033  1  0  0.120576  0  0.96914  0  0  0.129634  0  1.030826  0  0  0.133233  0  1.029157  0  0  0.105061  0.127047  0  1.032176  0
H  H7  1  0.13920924  0.09054636  0.12904098  1  0  0.085554  0  0.964659  0  0  0.095123  0  1.025466  0  0  0.097779  0  1.022981  0  0  0.114176  0.093112  0  1.027351  0
H  H8  1  0.86080103  0.90945552  0.87095956  1  0  0.085527  0  0.964655  0  0  0.095135  0  1.025423  0  0  0.097795  0  1.022934  0  0  0.114196  0.093126  0  1.027308  0
H  H9  1  0.68934899  0.44309054  0.02902535  1  0  0.106914  0  0.957475  0  0  0.11994  0  1.0224  0  0  0.121964  0  1.02036  0  0  0.123108  0.11841  0  1.024025  0
H  H10  1  0.31065535  0.55690919  0.97097494  1  0  0.106901  0  0.957491  0  0  0.119933  0  1.022413  0  0  0.121956  0  1.020375  0  0  0.123094  0.118404  0  1.024036  0
H  H11  1  0.34038084  0.40337471  0.07053502  1  0  0.099732  0  0.929675  0  0  0.111879  0  0.995664  0  0  0.112747  0  0.994842  0  0  0.116369  0.111253  0  0.996279  0
H  H12  1  0.65962170  0.59662359  0.92946411  1  0  0.099739  0  0.929631  0  0  0.111903  0  0.995609  0  0  0.112774  0  0.994788  0  0  0.116362  0.111277  0  0.996224  0
H  H13  1  0.14366230  0.58399350  0.17013853  1  0  0.108708  0  0.934025  0  0  0.117518  0  0.994121  0  0  0.121504  0  0.991013  0  0  0.111853  0.114618  0  0.996398  0
H  H14  1  0.85633087  0.41600693  0.82986175  1  0  0.108714  0  0.934078  0  0  0.11754  0  0.994152  0  0  0.121525  0  0.991044  0  0  0.111863  0.11464  0  0.996431  0
H  H15  1  0.26875762  0.59248774  0.30351624  1  0  0.091179  0  0.981997  0  0  0.103004  0  1.0401  0  0  0.105258  0  1.041194  0  0  0.099559  0.101377  0  1.039472  0
H  H16  1  0.73123975  0.40751340  0.69648484  1  0  0.091182  0  0.982019  0  0  0.103014  0  1.040115  0  0  0.105278  0  1.041198  0  0  0.099555  0.101389  0  1.039488  0
H  H17  1  0.09194381  0.47609324  0.44004098  1  0  0.101125  0  0.943457  0  0  0.107743  0  1.011021  0  0  0.111985  0  1.006801  0  0  0.105567  0.104577  0  1.014189  0
H  H18  1  0.90805002  0.52390505  0.55995949  1  0  0.101129  0  0.943409  0  0  0.107751  0  1.010969  0  0  0.111993  0  1.00675  0  0  0.105561  0.104597  0  1.014125  0
H  H19  1  0.49095427  0.21476978  0.52152040  1  0  0.112855  0  0.963342  0  0  0.122899  0  1.022999  0  0  0.126375  0  1.022219  0  0  0.105204  0.120434  0  1.023683  0
H  H20  1  0.50904614  0.78522851  0.47848049  1  0  0.112807  0  0.963305  0  0  0.122863  0  1.02296  0  0  0.12634  0  1.022179  0  0  0.105195  0.120398  0  1.023643  0
H  H21  1  0.36486736  0.21101218  0.38603009  1  0  0.107855  0  0.921535  0  0  0.120258  0  0.973573  0  0  0.124135  0  0.970171  0  0  0.113161  0.117407  0  0.976068  0
H  H22  1  0.63512427  0.78898610  0.61397042  1  0  0.107871  0  0.921584  0  0  0.1202  0  0.973702  0  0  0.124106  0  0.970263  0  0  0.113157  0.117351  0  0.976198  0
H  H23  1  0.36153653  0.37954365  0.61699300  1  0  0.107616  0  0.956474  0  0  0.117056  0  1.019625  0  0  0.120171  0  1.018291  0  0  0.101476  0.114823  0  1.020675  0
H  H24  1  0.63848040  0.62045753  0.38300365  1  0  0.107599  0  0.956468  0  0  0.116998  0  1.019676  0  0  0.120112  0  1.018342  0  0  0.101446  0.114764  0  1.020727  0
H  H25  1  0.20407306  0.27060523  0.76248373  1  0  0.10232  0  0.95029  0  0  0.112067  0  1.010835  0  0  0.115328  0  1.009116  0  0  0.104382  0.109753  0  1.012053  0
H  H26  1  0.79593009  0.72939808  0.23751302  1  0  0.102324  0  0.950308  0  0  0.112111  0  1.01081  0  0  0.115371  0  1.009092  0  0  0.104414  0.109797  0  1.012029  0
H  H27  1  0.91081783  0.06083703  0.76481438  1  0  0.104821  0  0.940879  0  0  0.114888  0  0.999216  0  0  0.118097  0  0.99711  0  0  0.10956  0.112562  0  1.000788  0
H  H28  1  0.08917753  0.93916340  0.23518585  1  0  0.104842  0  0.94085  0  0  0.114892  0  0.999212  0  0  0.118101  0  0.997106  0  0  0.109549  0.112565  0  1.000783  0
H  H29  1  0.06355722  0.16690049  0.61841595  1  0  0.109513  0  0.940919  0  0  0.123281  0  0.99404  0  0  0.126259  0  0.993346  0  0  0.106531  0.12116  0  0.994654  0
H  H30  1  0.93645173  0.83309853  0.38158508  1  0  0.109593  0  0.94086  0  0  0.123306  0  0.994034  0  0  0.126284  0  0.993341  0  0  0.106538  0.121183  0  0.994648  0
C  C31  1  0.62931827  0.19816886  0.99057533  1  0  0.135161  0  3.724105  0  0  0.105853  0  3.974005  0  0  0.113349  0  3.993006  0  0  0.043623  0.101006  0  3.961118  0
C  C32  1  0.37068435  0.80182943  0.00942609  1  0  0.135184  0  3.724092  0  0  0.10586  0  3.973999  0  0  0.113365  0  3.993004  0  0  0.043606  0.101015  0  3.961109  0
C  C33  1  0.54017906  0.27988217  0.00454524  1  0  -0.182593  0  3.716467  0  0  -0.199056  0  3.962582  0  0  -0.208226  0  3.985122  0  0  -0.090341  -0.193123  0  3.947465  0
C  C34  1  0.45982574  0.72011613  0.99545613  1  0  -0.182712  0  3.716494  0  0  -0.199158  0  3.962608  0  0  -0.208328  0  3.985144  0  0  -0.090361  -0.193224  0  3.947488  0
C  C35  1  0.67122897  0.29439751  0.06771268  1  0  0.149031  0  3.715893  0  0  0.162347  0  3.958986  0  0  0.167374  0  3.980017  0  0  0.013246  0.159213  0  3.94462  0
C  C36  1  0.32877273  0.70560364  0.93228716  1  0  0.149131  0  3.715825  0  0  0.162442  0  3.958916  0  0  0.167467  0  3.979948  0  0  0.013251  0.159308  0  3.944551  0
C  C37  1  0.88909975  0.22526712  0.11396234  1  0  -0.176118  0  3.706291  0  0  -0.196327  0  3.953831  0  0  -0.204897  0  3.975534  0  0  -0.092254  -0.19078  0  3.939212  0
C  C38  1  0.11091049  0.77473476  0.88603705  1  0  -0.176163  0  3.706413  0  0  -0.196388  0  3.953954  0  0  -0.204956  0  3.975654  0  0  -0.092236  -0.190844  0  3.939344  0
C  C39  1  0.96616440  0.14544938  0.09567445  1  0  0.128335  0  3.715167  0  0  0.100523  0  3.964087  0  0  0.107598  0  3.983253  0  0  0.04376  0.096016  0  3.950943  0
C  C40  1  0.03384896  0.85454964  0.90432705  1  0  0.128422  0  3.715217  0  0  0.100574  0  3.964149  0  0  0.107646  0  3.983319  0  0  0.043739  0.096068  0  3.951008  0
C  C41  1  0.57870330  0.38575167  0.07844750  1  0  -0.048389  0  3.644364  0  0  -0.117105  0  3.897898  0  0  -0.111712  0  3.905622  0  0  -0.05604  -0.120686  0  3.892616  0
C  C42  1  0.42129861  0.61424877  0.92155202  1  0  -0.048415  0  3.644361  0  0  -0.117168  0  3.897915  0  0  -0.111778  0  3.905639  0  0  -0.056029  -0.12075  0  3.892638  0
C  C43  1  0.83101933  0.45910861  0.15248707  1  0  0.503772  0  3.797586  0  0  0.45607  0  4.086009  0  0  0.486203  0  4.085259  0  0  0.24609  0.435794  0  4.086013  0
C  C44  1  0.16898258  0.54089183  0.84751245  1  0  0.503731  0  3.797676  0  0  0.456015  0  4.08609  0  0  0.486151  0  4.085338  0  0  0.24609  0.435749  0  4.086075  0
C  C45  1  0.89621190  0.46359165  0.23202044  1  0  -0.105386  0  3.788695  0  0  -0.092775  0  4.033049  0  0  -0.103575  0  4.057119  0  0  -0.015739  -0.085934  0  4.016914  0
C  C46  1  0.10378389  0.53640735  0.76797972  1  0  -0.105246  0  3.788646  0  0  -0.092611  0  4.032943  0  0  -0.10341  0  4.057007  0  0  -0.01568  -0.085771  0  4.0168  0
C  C47  1  0.06568183  0.53329660  0.23045785  1  0  -0.032625  0  3.687118  0  0  -0.060619  0  3.939328  0  0  -0.05569  0  3.954616  0  0  -0.067323  -0.063511  0  3.92881  0
C  C48  1  0.93430938  0.46670311  0.76954273  1  0  -0.032668  0  3.687147  0  0  -0.060692  0  3.939355  0  0  -0.055762  0  3.954643  0  0  -0.067362  -0.063585  0  3.928839  0
C  C49  1  0.13541882  0.53761218  0.30558539  1  0  -0.071579  0  3.751792  0  0  -0.084061  0  4.007709  0  0  -0.089602  0  4.029374  0  0  -0.087963  -0.080515  0  3.993005  0
C  C50  1  0.86457001  0.46238824  0.69441613  1  0  -0.071516  0  3.751859  0  0  -0.08402  0  4.007796  0  0  -0.089569  0  4.029456  0  0  -0.08792  -0.080479  0  3.993097  0
C  C51  1  0.03544312  0.47296151  0.38185235  1  0  -0.06187  0  3.6988  0  0  -0.091208  0  3.961463  0  0  -0.087973  0  3.977759  0  0  -0.07608  -0.093066  0  3.950464  0
C  C52  1  0.96454614  0.52703748  0.61814910  1  0  -0.061921  0  3.698909  0  0  -0.091275  0  3.961563  0  0  -0.088043  0  3.97787  0  0  -0.076075  -0.093142  0  3.950557  0
C  C53  1  0.85974909  0.40183106  0.38522845  1  0  -0.047993  0  3.776328  0  0  -0.03523  0  4.011569  0  0  -0.042147  0  4.036608  0  0  -0.012773  -0.030894  0  3.99481  0
C  C54  1  0.14023967  0.59816936  0.61477078  1  0  -0.047935  0  3.776282  0  0  -0.03513  0  4.011411  0  0  -0.042045  0  4.036447  0  0  -0.012795  -0.030793  0  3.994647  0
C  C55  1  0.74731390  0.33389972  0.46197730  1  0  0.267744  0  3.757641  0  0  0.249708  0  4.02329  0  0  0.264247  0  4.037023  0  0  0.103097  0.239863  0  4.013843  0
C  C56  1  0.25267944  0.66610000  0.53802152  1  0  0.267616  0  3.75754  0  0  0.249586  0  4.023138  0  0  0.264127  0  4.036869  0  0  0.103055  0.239743  0  4.013683  0
C  C57  1  0.57448799  0.26549975  0.46228006  1  0  -0.215252  0  3.770526  0  0  -0.238976  0  4.032962  0  0  -0.248758  0  4.053173  0  0  -0.11066  -0.232549  0  4.019274  0
C  C58  1  0.42550762  0.73449996  0.53772099  1  0  -0.215127  0  3.770425  0  0  -0.238864  0  4.032834  0  0  -0.248647  0  4.053054  0  0  -0.110596  -0.232437  0  4.01914  0
C  C59  1  0.50486415  0.26330671  0.38641408  1  0  -0.002508  0  3.726044  0  0  -0.027165  0  3.977853  0  0  -0.020561  0  3.993809  0  0  -0.065737  -0.031172  0  3.966782  0
C  C60  1  0.49512203  0.73669514  0.61358641  1  0  -0.002526  0  3.726094  0  0  -0.027153  0  3.977923  0  0  -0.02057  0  3.993873  0  0  -0.06578  -0.031164  0  3.966852  0
C  C61  1  0.60951130  0.32759831  0.31028335  1  0  -0.12607  0  3.806985  0  0  -0.120192  0  4.059815  0  0  -0.131791  0  4.084094  0  0  -0.026171  -0.112747  0  4.043419  0
C  C62  1  0.39047952  0.67240282  0.68971844  1  0  -0.12606  0  3.80695  0  0  -0.120145  0  4.059707  0  0  -0.131753  0  4.084004  0  0  -0.02614  -0.112699  0  4.043305  0
C  C63  1  0.52675521  0.32532680  0.23167482  1  0  0.501518  0  3.81811  0  0  0.455586  0  4.109145  0  0  0.485163  0  4.109257  0  0  0.240615  0.435698  0  4.108537  0
C  C64  1  0.47323557  0.67467433  0.76832583  1  0  0.501472  0  3.818289  0  0  0.455498  0  4.109361  0  0  0.485076  0  4.109476  0  0  0.240581  0.435613  0  4.108751  0
C  C65  1  0.78906639  0.39696421  0.30908066  1  0  0.051777  0  3.79666  0  0  0.05164  0  4.026526  0  0  0.055712  0  4.052255  0  0  0.004524  0.049261  0  4.009109  0
C  C66  1  0.21092436  0.60303693  0.69091885  1  0  0.051577  0  3.796699  0  0  0.051448  0  4.026486  0  0  0.055521  0  4.052215  0  0  0.004444  0.04907  0  4.009057  0
C  C67  1  0.71973349  0.27829729  0.61088453  1  0  0.25297  0  3.796611  0  0  0.243148  0  4.062848  0  0  0.252982  0  4.07947  0  0  0.075089  0.236494  0  4.051444  0
C  C68  1  0.28027760  0.72170173  0.38911474  1  0  0.252868  0  3.796625  0  0  0.243021  0  4.06288  0  0  0.252855  0  4.079499  0  0  0.075054  0.236369  0  4.051468  0
C  C69  1  0.47875683  0.30927975  0.64970248  1  0  -0.185773  0  3.778273  0  0  -0.208251  0  4.037599  0  0  -0.213149  0  4.056501  0  0  -0.104343  -0.205008  0  4.024828  0
C  C70  1  0.52125617  0.69071999  0.35029477  1  0  -0.185604  0  3.77816  0  0  -0.208037  0  4.037465  0  0  -0.212938  0  4.056379  0  0  -0.104223  -0.204793  0  4.024686  0
C  C71  1  0.39276057  0.24910885  0.73035006  1  0  -0.049817  0  3.744708  0  0  -0.072664  0  3.992322  0  0  -0.0718  0  4.012806  0  0  -0.081529  -0.07298  0  3.978403  0
C  C72  1  0.60724062  0.75089374  0.26964699  1  0  -0.049955  0  3.744854  0  0  -0.072858  0  3.992492  0  0  -0.071994  0  4.012974  0  0  -0.081653  -0.073174  0  3.978572  0
C  C73  1  0.54709651  0.15939698  0.77180454  1  0  -0.059767  0  3.729545  0  0  -0.038009  0  3.96158  0  0  -0.04635  0  3.984384  0  0  -0.016484  -0.032749  0  3.946354  0
C  C74  1  0.45289858  0.84060417  0.22819372  1  0  -0.059678  0  3.729608  0  0  -0.037887  0  3.961589  0  0  -0.046227  0  3.984395  0  0  -0.016443  -0.032631  0  3.946357  0
C  C75  1  0.78861471  0.12993138  0.73135030  1  0  -0.033446  0  3.724444  0  0  -0.056682  0  3.971781  0  0  -0.054889  0  3.991344  0  0  -0.075109  -0.05763  0  3.958465  0
C  C76  1  0.21138497  0.87006906  0.26864812  1  0  -0.033489  0  3.724619  0  0  -0.056725  0  3.971943  0  0  -0.054932  0  3.991505  0  0  -0.075084  -0.057674  0  3.958621  0
C  C77  1  0.87480805  0.18881298  0.65029910  1  0  -0.182714  0  3.775255  0  0  -0.203261  0  4.030015  0  0  -0.209315  0  4.050989  0  0  -0.098487  -0.19923  0  4.015763  0
C  C78  1  0.12520263  0.81118746  0.34970081  1  0  -0.182785  0  3.77533  0  0  -0.203273  0  4.030085  0  0  -0.209325  0  4.051056  0  0  -0.098527  -0.199242  0  4.015827  0
C  C79  1  0.45041260  0.09479571  0.85891239  1  0  0.641553  0  3.940487  0  0  0.590931  0  4.237916  0  0  0.626027  0  4.229765  0  0  0.199884  0.567107  0  4.242611  0
C  C80  1  0.54958222  0.90520616  0.14108448  1  0  0.641348  0  3.940683  0  0  0.59072  0  4.23812  0  0  0.625816  0  4.229972  0  0  0.199813  0.566903  0  4.2428  0
N  N81  1  0.83954613  0.13144571  0.03524802  1  0  -0.328679  0  3.240888  0  0  -0.252875  0  3.503256  0  0  -0.273093  0  3.522024  0  0  -0.325207  -0.23908  0  3.49018  0
N  N82  1  0.16046311  0.86855258  0.96475497  1  0  -0.328736  0  3.240831  0  0  -0.252926  0  3.503218  0  0  -0.273144  0  3.521982  0  0  -0.325203  -0.239133  0  3.490144  0
N  N83  1  0.65700467  0.38802456  0.15723956  1  0  -0.2617  0  3.348334  0  0  -0.180067  0  3.581028  0  0  -0.204871  0  3.598145  0  0  -0.241091  -0.163232  0  3.568868  0
N  N84  1  0.34299312  0.61197515  0.84276145  1  0  -0.261663  0  3.348401  0  0  -0.180021  0  3.581125  0  0  -0.204826  0  3.598241  0  0  -0.241134  -0.163195  0  3.568972  0
O  O85  1  0.19458458  0.11753886  0.88327378  1  0  -0.642391  0  2.013213  0  0  -0.584342  0  2.269256  0  0  -0.6137  0  2.259838  0  0  -0.329574  -0.56365  0  2.274923  0
O  O86  1  0.80540779  0.88246372  0.11672174  1  0  -0.642266  0  2.013254  0  0  -0.584183  0  2.269252  0  0  -0.61354  0  2.259835  0  0  -0.329497  -0.563493  0  2.274911  0
O  O87  1  0.62344825  0.02317935  0.90109681  1  0  -0.658095  0  2.045441  0  0  -0.603871  0  2.31008  0  0  -0.630096  0  2.297336  0  0  -0.33014  -0.585369  0  2.318202  0
O  O88  1  0.37654702  0.97682109  0.09890056  1  0  -0.658014  0  2.045576  0  0  -0.603809  0  2.310239  0  0  -0.630033  0  2.297495  0  0  -0.330141  -0.585311  0  2.318358  0
O  O89  1  0.81920821  0.34263333  0.53260308  1  0  -0.293667  0  2.366875  0  0  -0.224714  0  2.596839  0  0  -0.243808  0  2.599402  0  0  -0.147497  -0.211041  0  2.594408  0
O  O90  1  0.18080112  0.65736426  0.46739616  1  0  -0.293548  0  2.366842  0  0  -0.224574  0  2.596778  0  0  -0.24367  0  2.599345  0  0  -0.147445  -0.210909  0  2.594351  0
O  O91  1  0.35029209  0.27228026  0.22836072  1  0  -0.503185  0  1.922617  0  0  -0.468737  0  2.140006  0  0  -0.48713  0  2.134827  0  0  -0.277031  -0.456124  0  2.143247  0
O  O92  1  0.64969275  0.72771873  0.77163911  1  0  -0.50316  0  1.922783  0  0  -0.468689  0  2.140166  0  0  -0.487082  0  2.134991  0  0  -0.276995  -0.456079  0  2.143412  0
O  O93  1  0.92362565  0.51581791  0.08417758  1  0  -0.500316  0  1.951749  0  0  -0.460101  0  2.174008  0  0  -0.47856  0  2.167683  0  0  -0.269572  -0.447436  0  2.178087  0
O  O94  1  0.07637957  0.48417896  0.91582315  1  0  -0.50034  0  1.951745  0  0  -0.460121  0  2.173991  0  0  -0.478585  0  2.167669  0  0  -0.269578  -0.447458  0  2.178062  0
