# generated using pymatgen
data_K2H8C12N4O11
_symmetry_space_group_name_H-M   'P 1'
_cell_length_a   7.22183190
_cell_length_b   12.07199588
_cell_length_c   12.07193044
_cell_angle_alpha   60.55742845
_cell_angle_beta   73.41417027
_cell_angle_gamma   73.41368713
_symmetry_Int_Tables_number   1
_chemical_formula_structural   K2H8C12N4O11
_chemical_formula_sum   'K4 H16 C24 N8 O22'
_cell_volume   865.00971100
_cell_formula_units_Z   2
loop_
 _symmetry_equiv_pos_site_id
 _symmetry_equiv_pos_as_xyz
  1  'x, y, z'
loop_
 _atom_site_type_symbol
 _atom_site_label
 _atom_site_symmetry_multiplicity
 _atom_site_fract_x
 _atom_site_fract_y
 _atom_site_fract_z
 _atom_site_occupancy
 _atom_site_hle17_bader_spin_density
 _atom_site_hle17_ddec_charge
 _atom_site_hle17_ddec_spin_density
 _atom_site_hle17_ddec_sum_bond_order
 _atom_site_hle17_magmom
 _atom_site_hse06_10hf_bader_spin_density
 _atom_site_hse06_10hf_ddec_charge
 _atom_site_hse06_10hf_ddec_spin_density
 _atom_site_hse06_10hf_ddec_sum_bond_order
 _atom_site_hse06_10hf_magmom
 _atom_site_hse06_bader_spin_density
 _atom_site_hse06_ddec_charge
 _atom_site_hse06_ddec_spin_density
 _atom_site_hse06_ddec_sum_bond_order
 _atom_site_hse06_magmom
 _atom_site_pbe_bader_spin_density
 _atom_site_pbe_cm5_charge
 _atom_site_pbe_ddec_charge
 _atom_site_pbe_ddec_spin_density
 _atom_site_pbe_ddec_sum_bond_order
 _atom_site_pbe_magmom
K  K0  1  0.25000030  0.37365404  0.62635858  1  0  0.931834  0  0.435875  0  0  0.874561  0  0.626311  0  0  0.890781  0  0.601213  0  0  0.791508  0.86198  0  0.644721  0
K  K1  1  0.74999194  0.62635357  0.37364775  1  0  0.931842  0  0.435905  0  0  0.874567  0  0.626338  0  0  0.890786  0  0.601236  0  0  0.791543  0.861987  0  0.644748  0
K  K2  1  0.75001478  0.14666975  0.85332989  1  0  0.916899  0  0.456869  0  0  0.859597  0  0.644362  0  0  0.874832  0  0.619679  0  0  0.786127  0.848438  0  0.661693  0
K  K3  1  0.24995322  0.85333116  0.14666645  1  0  0.916867  0  0.456947  0  0  0.859573  0  0.644419  0  0  0.874785  0  0.619782  0  0  0.78614  0.848413  0  0.661748  0
H  H4  1  0.59666442  0.68191249  0.81710351  1  0  0.13086  0  0.952314  0  0  0.136767  0  1.017258  0  0  0.140648  0  1.012945  0  0  0.122938  0.133963  0  1.020309  0
H  H5  1  0.90333892  0.18290136  0.31808251  1  0  0.130931  0  0.952232  0  0  0.136778  0  1.017213  0  0  0.140662  0  1.012897  0  0  0.122942  0.133973  0  1.02025  0
H  H6  1  0.40333406  0.31808263  0.18289954  1  0  0.130864  0  0.952166  0  0  0.13675  0  1.017133  0  0  0.140637  0  1.012811  0  0  0.122921  0.133943  0  1.020183  0
H  H7  1  0.09667954  0.81710541  0.68191062  1  0  0.130915  0  0.952227  0  0  0.1368  0  1.017201  0  0  0.140682  0  1.012886  0  0  0.122946  0.134002  0  1.02023  0
H  H8  1  0.80142632  0.41755912  0.17647172  1  0  0.117608  0  0.975286  0  0  0.120348  0  1.045641  0  0  0.124058  0  1.042047  0  0  0.1103  0.117621  0  1.048295  0
H  H9  1  0.69857037  0.82353557  0.58243725  1  0  0.117597  0  0.975224  0  0  0.120335  0  1.045652  0  0  0.124043  0  1.042056  0  0  0.110283  0.117608  0  1.048305  0
H  H10  1  0.19857536  0.58244563  0.82353107  1  0  0.117605  0  0.975108  0  0  0.120332  0  1.045555  0  0  0.12404  0  1.041961  0  0  0.110257  0.117604  0  1.048215  0
H  H11  1  0.30144342  0.17646160  0.41755058  1  0  0.117663  0  0.975114  0  0  0.12036  0  1.045558  0  0  0.124067  0  1.041966  0  0  0.110284  0.117632  0  1.048209  0
H  H12  1  0.96589360  0.25774099  0.08845242  1  0  0.130391  0  0.937431  0  0  0.139638  0  0.994971  0  0  0.143859  0  0.993208  0  0  0.113032  0.136586  0  0.99655  0
H  H13  1  0.53412007  0.91155410  0.74225675  1  0  0.130469  0  0.937405  0  0  0.139709  0  0.994943  0  0  0.14393  0  0.993185  0  0  0.113038  0.136658  0  0.996524  0
H  H14  1  0.03410966  0.74225793  0.91155707  1  0  0.130458  0  0.937381  0  0  0.139715  0  0.994916  0  0  0.14393  0  0.993162  0  0  0.113078  0.136667  0  0.996501  0
H  H15  1  0.46589069  0.08843822  0.25773561  1  0  0.130478  0  0.937346  0  0  0.139719  0  0.99491  0  0  0.143939  0  0.993146  0  0  0.113052  0.136668  0  0.996489  0
H  H16  1  0.65494765  0.91620374  0.14870563  1  0  0.411598  0  0.894148  0  0  0.382505  0  0.956266  0  0  0.393394  0  0.940109  0  0  0.286194  0.374833  0  0.967617  0
H  H17  1  0.84502328  0.85128951  0.08379685  1  0  0.411518  0  0.894249  0  0  0.382416  0  0.956386  0  0  0.393306  0  0.940229  0  0  0.286147  0.374744  0  0.967738  0
H  H18  1  0.34503755  0.08379236  0.85129342  1  0  0.411628  0  0.894111  0  0  0.382539  0  0.956221  0  0  0.393426  0  0.940067  0  0  0.286217  0.374867  0  0.967572  0
H  H19  1  0.15496838  0.14870946  0.91620550  1  0  0.411514  0  0.894246  0  0  0.382418  0  0.956376  0  0  0.393306  0  0.940219  0  0  0.286147  0.374746  0  0.967726  0
C  C20  1  0.88721576  0.37810782  0.89928571  1  0  0.389898  0  3.844045  0  0  0.367852  0  4.121086  0  0  0.39107  0  4.130854  0  0  0.115828  0.35253  0  4.113955  0
C  C21  1  0.61279467  0.10071833  0.62189153  1  0  0.390238  0  3.842888  0  0  0.368124  0  4.120777  0  0  0.391342  0  4.130544  0  0  0.115899  0.352802  0  4.113646  0
C  C22  1  0.11277108  0.62189302  0.10072318  1  0  0.389881  0  3.844166  0  0  0.367974  0  4.12092  0  0  0.391199  0  4.13068  0  0  0.115826  0.35265  0  4.113798  0
C  C23  1  0.38721439  0.89927494  0.37810149  1  0  0.389769  0  3.844173  0  0  0.367982  0  4.120787  0  0  0.391204  0  4.130548  0  0  0.115732  0.352658  0  4.113661  0
C  C24  1  0.77374939  0.50290445  0.82471484  1  0  -0.054892  0  3.598279  0  0  -0.063124  0  3.857858  0  0  -0.077157  0  3.879324  0  0  0.067635  -0.054319  0  3.84341  0
C  C25  1  0.72625691  0.17528549  0.49709920  1  0  -0.045374  0  3.604496  0  0  -0.063218  0  3.858089  0  0  -0.077254  0  3.879562  0  0  0.067653  -0.054402  0  3.84362  0
C  C26  1  0.22625108  0.49709936  0.17528446  1  0  -0.054904  0  3.598402  0  0  -0.063135  0  3.857817  0  0  -0.07717  0  3.879286  0  0  0.067672  -0.054325  0  3.843356  0
C  C27  1  0.27374826  0.82471159  0.50289926  1  0  -0.054958  0  3.598656  0  0  -0.063177  0  3.85806  0  0  -0.077213  0  3.879531  0  0  0.06772  -0.054361  0  3.843592  0
C  C28  1  0.68128787  0.59067710  0.87500517  1  0  -0.093628  0  3.727464  0  0  -0.132381  0  3.992306  0  0  -0.122577  0  4.008348  0  0  -0.066382  -0.138045  0  3.981064  0
C  C29  1  0.81870800  0.12499907  0.40932148  1  0  -0.092986  0  3.72509  0  0  -0.132255  0  3.992224  0  0  -0.12246  0  4.008273  0  0  -0.066271  -0.137914  0  3.980977  0
C  C30  1  0.31870300  0.40932478  0.12499341  1  0  -0.093534  0  3.727515  0  0  -0.13233  0  3.992274  0  0  -0.122536  0  4.008327  0  0  -0.066337  -0.137991  0  3.981025  0
C  C31  1  0.18130571  0.87500385  0.59067020  1  0  -0.093531  0  3.727539  0  0  -0.132364  0  3.992279  0  0  -0.122572  0  4.008338  0  0  -0.066399  -0.138024  0  3.981038  0
C  C32  1  0.69399370  0.56027666  0.99962759  1  0  0.034268  0  3.754747  0  0  0.023761  0  4.017111  0  0  0.011393  0  4.044529  0  0  0.06422  0.031411  0  3.998479  0
C  C33  1  0.80600235  0.00037609  0.43972172  1  0  0.03425  0  3.755007  0  0  0.023812  0  4.017157  0  0  0.011443  0  4.044577  0  0  0.064173  0.031462  0  3.998525  0
C  C34  1  0.30599702  0.43972039  0.00037253  1  0  0.034097  0  3.755132  0  0  0.023793  0  4.017233  0  0  0.011424  0  4.044653  0  0  0.064226  0.031445  0  3.998598  0
C  C35  1  0.19402132  0.99962202  0.56027141  1  0  0.034163  0  3.75488  0  0  0.023923  0  4.016848  0  0  0.011557  0  4.044267  0  0  0.064312  0.031571  0  3.99822  0
C  C36  1  0.79536236  0.43880925  0.07869825  1  0  -0.059306  0  3.740001  0  0  -0.084292  0  4.001149  0  0  -0.078502  0  4.020934  0  0  -0.076056  -0.087347  0  3.987327  0
C  C37  1  0.70463334  0.92130717  0.56119106  1  0  -0.059246  0  3.739998  0  0  -0.084258  0  4.001066  0  0  -0.078463  0  4.02085  0  0  -0.075959  -0.087309  0  3.987245  0
C  C38  1  0.20462752  0.56119642  0.92130860  1  0  -0.0592  0  3.739874  0  0  -0.08423  0  4.001035  0  0  -0.078436  0  4.020819  0  0  -0.075915  -0.087286  0  3.987218  0
C  C39  1  0.29537785  0.07868899  0.43880268  1  0  -0.059282  0  3.739878  0  0  -0.084314  0  4.001001  0  0  -0.078521  0  4.020786  0  0  -0.07597  -0.087364  0  3.987175  0
C  C40  1  0.88657787  0.35190533  0.02987922  1  0  -0.183965  0  3.657793  0  0  -0.204728  0  3.917489  0  0  -0.217631  0  3.938133  0  0  -0.096824  -0.196531  0  3.903671  0
C  C41  1  0.61342528  0.97013199  0.64809190  1  0  -0.18413  0  3.65798  0  0  -0.204962  0  3.917519  0  0  -0.217856  0  3.938133  0  0  -0.096924  -0.196766  0  3.903711  0
C  C42  1  0.11340860  0.64809159  0.97013827  1  0  -0.184109  0  3.657919  0  0  -0.204949  0  3.917647  0  0  -0.217842  0  3.938268  0  0  -0.096969  -0.196758  0  3.90384  0
C  C43  1  0.38658590  0.02986417  0.35190101  1  0  -0.184055  0  3.657696  0  0  -0.204941  0  3.917401  0  0  -0.217833  0  3.938022  0  0  -0.096934  -0.196743  0  3.903581  0
N  N44  1  0.74620736  0.54071532  0.69657362  1  0  0.531482  0  3.895037  0  0  0.558654  0  4.194922  0  0  0.582331  0  4.202701  0  0  0.035887  0.542872  0  4.189571  0
N  N45  1  0.75379409  0.30342836  0.45928906  1  0  0.49827  0  3.946202  0  0  0.558591  0  4.194824  0  0  0.582266  0  4.202602  0  0  0.035836  0.542808  0  4.189472  0
N  N46  1  0.25378591  0.45928845  0.30343109  1  0  0.531503  0  3.89489  0  0  0.558665  0  4.194695  0  0  0.582338  0  4.202474  0  0  0.035875  0.542884  0  4.189343  0
N  N47  1  0.24620689  0.69657353  0.54070944  1  0  0.531464  0  3.895016  0  0  0.558623  0  4.194888  0  0  0.582299  0  4.202667  0  0  0.035838  0.542842  0  4.189538  0
N  N48  1  0.59671561  0.65220261  0.04877318  1  0  0.492565  0  3.931022  0  0  0.526229  0  4.225514  0  0  0.547973  0  4.236872  0  0  0.025128  0.511771  0  4.217852  0
N  N49  1  0.90327185  0.95123374  0.34779474  1  0  0.492492  0  3.931506  0  0  0.526139  0  4.225961  0  0  0.547882  0  4.237319  0  0  0.025077  0.511676  0  4.218299  0
N  N50  1  0.40327764  0.34780118  0.95122738  1  0  0.492649  0  3.93096  0  0  0.52625  0  4.225455  0  0  0.547992  0  4.236813  0  0  0.025126  0.51179  0  4.217795  0
N  N51  1  0.09673896  0.04876917  0.65219744  1  0  0.492645  0  3.93095  0  0  0.526248  0  4.225337  0  0  0.547992  0  4.236693  0  0  0.02515  0.511788  0  4.21768  0
O  O52  1  0.97710184  0.29549016  0.85713246  1  0  -0.631323  0  2.042108  0  0  -0.589482  0  2.276091  0  0  -0.615132  0  2.271461  0  0  -0.410392  -0.571478  0  2.278632  0
O  O53  1  0.52291064  0.14287192  0.70451134  1  0  -0.631386  0  2.041686  0  0  -0.589665  0  2.275667  0  0  -0.615323  0  2.271051  0  0  -0.410495  -0.57166  0  2.278209  0
O  O54  1  0.02288369  0.70450484  0.14288446  1  0  -0.631321  0  2.042032  0  0  -0.58954  0  2.275967  0  0  -0.615176  0  2.271296  0  0  -0.410475  -0.571535  0  2.27851  0
O  O55  1  0.47709171  0.85711944  0.29548045  1  0  -0.631272  0  2.041972  0  0  -0.589534  0  2.275828  0  0  -0.615185  0  2.2712  0  0  -0.410346  -0.571527  0  2.278371  0
O  O56  1  0.85019307  0.47894059  0.63576519  1  0  -0.434784  0  1.80672  0  0  -0.42336  0  2.037584  0  0  -0.433968  0  2.030185  0  0  -0.210468  -0.415885  0  2.042786  0
O  O57  1  0.64981140  0.36424060  0.52105447  1  0  -0.42336  0  1.822359  0  0  -0.4233  0  2.037586  0  0  -0.4339  0  2.030185  0  0  -0.210425  -0.41583  0  2.04279  0
O  O58  1  0.14980319  0.52104672  0.36425031  1  0  -0.434781  0  1.806732  0  0  -0.423355  0  2.03759  0  0  -0.433959  0  2.030188  0  0  -0.210483  -0.415884  0  2.042791  0
O  O59  1  0.35019602  0.63575353  0.47895250  1  0  -0.434753  0  1.806692  0  0  -0.423329  0  2.037577  0  0  -0.433935  0  2.030178  0  0  -0.21046  -0.415843  0  2.042748  0
O  O60  1  0.61633185  0.63575915  0.64884741  1  0  -0.411324  0  1.775795  0  0  -0.392003  0  1.997992  0  0  -0.406965  0  1.995228  0  0  -0.153054  -0.381864  0  2.000077  0
O  O61  1  0.88367064  0.35115419  0.36424125  1  0  -0.400046  0  1.791181  0  0  -0.39202  0  1.997903  0  0  -0.406983  0  1.995141  0  0  -0.153056  -0.381881  0  1.999986  0
O  O62  1  0.38366534  0.36424078  0.35115600  1  0  -0.411267  0  1.775335  0  0  -0.392029  0  1.997842  0  0  -0.406992  0  1.995079  0  0  -0.153033  -0.38189  0  1.999925  0
O  O63  1  0.11632615  0.64885253  0.63575562  1  0  -0.411291  0  1.775689  0  0  -0.392038  0  1.997969  0  0  -0.406999  0  1.995205  0  0  -0.153073  -0.3819  0  2.000054  0
O  O64  1  0.50851393  0.75909934  0.97654208  1  0  -0.418994  0  1.75601  0  0  -0.393736  0  1.964353  0  0  -0.40597  0  1.960064  0  0  -0.187291  -0.385575  0  1.967385  0
O  O65  1  0.99148340  0.02346094  0.24090162  1  0  -0.419001  0  1.756108  0  0  -0.39376  0  1.964465  0  0  -0.406001  0  1.960195  0  0  -0.187334  -0.3856  0  1.967504  0
O  O66  1  0.49148942  0.24090450  0.02345424  1  0  -0.419036  0  1.755843  0  0  -0.393774  0  1.96419  0  0  -0.40601  0  1.959904  0  0  -0.18733  -0.385619  0  1.967241  0
O  O67  1  0.00852349  0.97654583  0.75908935  1  0  -0.419074  0  1.75594  0  0  -0.393863  0  1.964342  0  0  -0.406092  0  1.960037  0  0  -0.187381  -0.385703  0  1.967379  0
O  O68  1  0.59934278  0.62224973  0.16385897  1  0  -0.426069  0  1.738075  0  0  -0.41272  0  1.956501  0  0  -0.424102  0  1.952242  0  0  -0.180393  -0.405033  0  1.959698  0
O  O69  1  0.90062829  0.83615426  0.37774205  1  0  -0.426022  0  1.738335  0  0  -0.412667  0  1.956758  0  0  -0.424038  0  1.952482  0  0  -0.180339  -0.404996  0  1.959999  0
O  O70  1  0.40064655  0.37775789  0.83614370  1  0  -0.42606  0  1.738092  0  0  -0.412716  0  1.956551  0  0  -0.424091  0  1.95228  0  0  -0.180373  -0.405028  0  1.95975  0
O  O71  1  0.09937568  0.16385256  0.62224194  1  0  -0.425986  0  1.737912  0  0  -0.412677  0  1.956529  0  0  -0.42405  0  1.952251  0  0  -0.180364  -0.405001  0  1.959753  0
O  O72  1  0.75000354  0.93237465  0.06763345  1  0  -0.897459  0  1.738218  0  0  -0.853904  0  1.887477  0  0  -0.870957  0  1.854136  0  0  -0.698187  -0.84133  0  1.910512  0
O  O73  1  0.24999798  0.06762529  0.93236922  1  0  -0.897461  0  1.738187  0  0  -0.853917  0  1.88744  0  0  -0.870967  0  1.854106  0  0  -0.698211  -0.841345  0  1.910474  0
