# generated using pymatgen
data_Zn2H20C25N8
_symmetry_space_group_name_H-M   'P 1'
_cell_length_a   14.77963444
_cell_length_b   14.80675401
_cell_length_c   14.91742727
_cell_angle_alpha   102.82941772
_cell_angle_beta   112.70085108
_cell_angle_gamma   112.36829003
_symmetry_Int_Tables_number   1
_chemical_formula_structural   Zn2H20C25N8
_chemical_formula_sum   'Zn4 H40 C50 N16'
_cell_volume   2511.15161325
_cell_formula_units_Z   2
loop_
 _symmetry_equiv_pos_site_id
 _symmetry_equiv_pos_as_xyz
  1  'x, y, z'
loop_
 _atom_site_type_symbol
 _atom_site_label
 _atom_site_symmetry_multiplicity
 _atom_site_fract_x
 _atom_site_fract_y
 _atom_site_fract_z
 _atom_site_occupancy
 _atom_site_pbe_bader_charge
 _atom_site_pbe_bader_spin_density
 _atom_site_pbe_cm5_charge
 _atom_site_pbe_ddec_charge
 _atom_site_pbe_ddec_spin_density
 _atom_site_pbe_ddec_sum_bond_order
 _atom_site_pbe_magmom
C  C0  1  0.09339696  0.79614623  0.18041959  1  0.353075  0  0.002945  -0.061789  0  4.003997  0
C  C1  1  0.90870810  0.03654843  0.20064394  1  0.380536  0  0.006749  -0.049813  0  3.962061  0
C  C2  1  0.00268773  0.15299549  0.69356349  1  -0.043108  0  -0.039788  -0.042377  0  4.102685  0
C  C3  1  0.99442019  0.30114073  0.09982206  1  0.023931  0  -0.036241  -0.039998  0  4.071674  0
C  C4  1  0.79883850  0.70380593  0.70197017  1  -0.034501  0  -0.034692  -0.02898  0  4.062631  0
C  C5  1  0.44991121  0.31570635  0.31127806  1  0.037036  0  -0.037646  -0.029268  0  4.089731  0
C  C6  1  0.20127582  0.89551607  0.90198317  1  0.013849  0  -0.039842  0.022576  0  4.104741  0
C  C7  1  0.53436904  0.83962057  0.83739761  1  0.030639  0  -0.042475  0.022498  0  4.130254  0
C  C8  1  0.35042549  0.74921059  0.83626212  1  0.001609  0  -0.020934  0.102466  0  3.956603  0
C  C9  1  0.25759160  0.76072094  0.84256441  1  -0.029105  0  -0.021666  0.097128  0  3.977013  0
C  C10  1  0.42217331  0.81876447  0.81511114  1  -0.013921  0  -0.110879  -0.214643  0  4.027636  0
C  C11  1  0.26853184  0.85983112  0.87111380  1  -0.062858  0  -0.104689  -0.201357  0  4.001338  0
C  C12  1  0.10803823  0.20613986  0.59993849  1  -0.05884  0  -0.09992  -0.13534  0  4.01714  0
C  C13  1  0.89040367  0.40091769  0.08012710  1  -0.038904  0  -0.098973  -0.137378  0  4.012643  0
C  C14  1  0.10855824  0.19715914  0.50548768  1  -0.05007  0  -0.098304  -0.135127  0  4.007809  0
C  C15  1  0.89125458  0.49677910  0.09030705  1  -0.074885  0  -0.099602  -0.134127  0  4.016338  0
C  C16  1  0.00578792  0.14569282  0.40525209  1  0.054341  0  -0.012428  0.084219  0  4.048604  0
C  C17  1  0.99446803  0.59782331  0.15294468  1  0.016444  0  -0.017702  0.074935  0  4.062983  0
C  C18  1  0.90400771  0.11536400  0.40683391  1  -0.07624  0  -0.098732  -0.137565  0  4.009164  0
C  C19  1  0.09504249  0.59838902  0.21373753  1  -0.033187  0  -0.099662  -0.137615  0  4.01163  0
C  C20  1  0.90352062  0.12439907  0.50147622  1  -0.080926  0  -0.099908  -0.13694  0  4.016195  0
C  C21  1  0.09418368  0.50230506  0.20353875  1  -0.068841  0  -0.09764  -0.133431  0  4.005287  0
C  C22  1  0.90723437  0.09322501  0.70017393  1  0.442511  0  0.002248  -0.06073  0  4.003723  0
C  C23  1  0.09030178  0.29111095  0.11822094  1  0.359666  0  0.005925  -0.049415  0  3.961112  0
C  C24  1  0.00482777  0.16438338  0.59945315  1  0.037299  0  -0.018335  0.07335  0  4.065682  0
C  C25  1  0.99274247  0.40094255  0.13188060  1  -0.040912  0  -0.013169  0.082423  0  4.051332  0
C  C26  1  0.54986936  0.51067435  0.42345505  1  -0.034478  0  -0.10741  -0.14863  0  4.078876  0
C  C27  1  0.63482407  0.60417024  0.51733809  1  -0.076388  0  -0.105132  -0.143346  0  4.066841  0
C  C28  1  0.72471687  0.60533806  0.59927475  1  0.058571  0  -0.013799  0.02571  0  4.015069  0
C  C29  1  0.55093444  0.41391166  0.40665757  1  -0.033567  0  -0.018093  0.019116  0  4.033219  0
C  C30  1  0.73140116  0.51092378  0.58071826  1  -0.103117  0  -0.013161  0.062629  0  3.910839  0
C  C31  1  0.64499515  0.41538040  0.48422330  1  0.064624  0  -0.01406  0.060848  0  3.904092  0
C  C32  1  0.82677926  0.71345435  0.80655219  1  0.394121  0  0.006057  -0.054146  0  3.965205  0
C  C33  1  0.38601667  0.21189669  0.30214039  1  0.342708  0  0.002486  -0.064396  0  4.005555  0
C  C34  1  0.18355751  0.97982160  0.88834770  1  0.421205  0  0.004785  -0.060051  0  3.962387  0
C  C35  1  0.60167062  0.90321139  0.80430766  1  0.386989  0  0.000916  -0.071498  0  3.993652  0
C  C36  1  0.83331916  0.81032940  0.71345680  1  0.404145  0  0.00421  -0.055213  0  3.968872  0
C  C37  1  0.38428172  0.30851833  0.20934599  1  0.393118  0  0.000606  -0.067929  0  4.013175  0
C  C38  1  0.16273476  0.87451605  0.97219026  1  0.377708  0  0.005073  -0.058044  0  3.948335  0
C  C39  1  0.61020646  0.81729957  0.90779602  1  0.387562  0  0.002872  -0.065658  0  3.987609  0
C  C40  1  0.09600926  0.18664460  0.79532072  1  0.436776  0  0.001834  -0.063055  0  4.010484  0
C  C41  1  0.90077888  0.19601189  0.02458063  1  0.398812  0  0.005458  -0.051408  0  3.965748  0
C  C42  1  0.90455195  0.70736669  0.08963334  1  0.405892  0  0.002009  -0.061946  0  4.010786  0
C  C43  1  0.09830044  0.12878916  0.29203624  1  0.414611  0  0.00596  -0.049228  0  3.958782  0
C  C44  1  0.99749067  0.69554791  0.14571688  1  0.018598  0  -0.040001  -0.042726  0  4.102502  0
C  C45  1  0.00429646  0.11201243  0.30456735  1  0.014414  0  -0.037399  -0.043086  0  4.072206  0
C  C46  1  0.83063620  0.51094963  0.66270957  1  -0.034215  0  -0.239951  -0.39882  0  3.99489  0
C  C47  1  0.65527264  0.31629332  0.46525849  1  -0.061786  0  -0.241057  -0.395877  0  3.998  0
C  C48  1  0.36761975  0.66202713  0.86224424  1  -0.111575  0  -0.240516  -0.396466  0  3.983562  0
C  C49  1  0.15689344  0.66337757  0.82536717  1  -0.089431  0  -0.239992  -0.397247  0  3.985222  0
H  H50  1  0.18406037  0.82394935  0.22575787  1  0.112667  0  0.114758  0.100898  0  1.004065  0
H  H51  1  0.81770722  0.99930275  0.17136926  1  0.085493  0  0.115371  0.101659  0  1.00936  0
H  H52  1  0.39750870  0.87161277  0.78490179  1  0.033461  0  0.092955  0.094635  0  1.024495  0
H  H53  1  0.34390994  0.92628269  0.88177268  1  0.052592  0  0.092327  0.094106  0  1.031594  0
H  H54  1  0.18919647  0.24145668  0.67488850  1  0.026872  0  0.095343  0.093062  0  1.011408  0
H  H55  1  0.80934743  0.32411722  0.02596684  1  0.053995  0  0.097034  0.096774  0  1.008773  0
H  H56  1  0.19005141  0.22536813  0.50881404  1  0.055189  0  0.097883  0.097758  0  1.007012  0
H  H57  1  0.81070792  0.49277521  0.04430358  1  0.060012  0  0.095309  0.092641  0  1.011192  0
H  H58  1  0.82287755  0.07991708  0.33182827  1  0.059509  0  0.097926  0.098229  0  1.004735  0
H  H59  1  0.17609610  0.67541929  0.26729094  1  0.065588  0  0.096034  0.09463  0  1.007247  0
H  H60  1  0.82212894  0.09616871  0.49849532  1  0.048552  0  0.095009  0.093372  0  1.008618  0
H  H61  1  0.17472904  0.50612464  0.24912090  1  0.076643  0  0.097365  0.096788  0  1.004919  0
H  H62  1  0.47729511  0.51008096  0.36418584  1  0.045641  0  0.092266  0.091993  0  1.016229  0
H  H63  1  0.62872564  0.67655929  0.53163193  1  0.034896  0  0.094004  0.095181  0  1.012381  0
H  H64  1  0.81641513  0.05018716  0.63985558  1  0.069136  0  0.114149  0.099948  0  1.004247  0
H  H65  1  0.18115962  0.35150890  0.17022660  1  0.121681  0  0.114199  0.099455  0  1.01555  0
H  H66  1  0.81496306  0.65162200  0.83607130  1  0.097462  0  0.116045  0.105602  0  1.002461  0
H  H67  1  0.40311075  0.18053246  0.36212903  1  0.081294  0  0.116758  0.105528  0  0.997375  0
H  H68  1  0.19905980  0.02054993  0.83901402  1  0.07573  0  0.114965  0.104061  0  1.001351  0
H  H69  1  0.57852549  0.93965596  0.75014911  1  0.074533  0  0.114878  0.104268  0  0.997719  0
H  H70  1  0.83020346  0.84184230  0.65383746  1  0.106115  0  0.115714  0.104164  0  1.002161  0
H  H71  1  0.40216880  0.36974309  0.17935102  1  0.100038  0  0.115621  0.103583  0  0.999715  0
H  H72  1  0.16189998  0.81709159  0.00670280  1  0.095985  0  0.115664  0.10567  0  1.006574  0
H  H73  1  0.59745500  0.77315772  0.95516160  1  0.077293  0  0.115047  0.10174  0  1.016563  0
H  H74  1  0.18740299  0.23484181  0.82724838  1  0.056976  0  0.114583  0.100661  0  1.005753  0
H  H75  1  0.80925999  0.16423456  0.98706509  1  0.076114  0  0.115497  0.101951  0  1.009935  0
H  H76  1  0.81309284  0.65016310  0.04875804  1  0.068974  0  0.115319  0.101256  0  1.00494  0
H  H77  1  0.18973227  0.18116624  0.35018558  1  0.085913  0  0.114666  0.100391  0  1.013793  0
H  H78  1  0.89429688  0.59190748  0.72896239  1  0.022082  0  0.088059  0.120029  0  1.044491  0
H  H79  1  0.80303455  0.45464683  0.69694784  1  0.041708  0  0.089363  0.121339  0  0.993877  0
H  H80  1  0.87372181  0.48496531  0.62621164  1  0.023432  0  0.093046  0.126051  0  0.999596  0
H  H81  1  0.63969186  0.27828816  0.51762152  1  0.028814  0  0.086798  0.114512  0  1.000964  0
H  H82  1  0.59441483  0.25513786  0.38146952  1  0.030748  0  0.087525  0.120154  0  1.027678  0
H  H83  1  0.74199397  0.33695874  0.48315788  1  0.043577  0  0.092194  0.125755  0  1.000724  0
H  H84  1  0.28516203  0.58673584  0.82519786  1  0.058797  0  0.092008  0.126186  0  1.008712  0
H  H85  1  0.41855923  0.64331957  0.83249041  1  0.049618  0  0.088602  0.121753  0  1.017725  0
H  H86  1  0.41128517  0.68573124  0.94980024  1  0.028392  0  0.086451  0.114631  0  0.996102  0
H  H87  1  0.12068206  0.59279771  0.75090313  1  0.044703  0  0.091947  0.124923  0  0.99231  0
H  H88  1  0.18027660  0.63904406  0.89154542  1  0.040839  0  0.089884  0.121455  0  0.994918  0
H  H89  1  0.08923170  0.68027919  0.81907744  1  0.043807  0  0.08952  0.125166  0  1.031345  0
N  N90  1  0.05989171  0.86154608  0.14742449  1  -0.760608  0  -0.269717  -0.170882  0  3.541417  0
N  N91  1  0.94414953  0.00974990  0.13370539  1  -0.775898  0  -0.281224  -0.177021  0  3.632056  0
N  N92  1  0.94128112  0.09161525  0.79728131  1  -0.837359  0  -0.270567  -0.172319  0  3.547405  0
N  N93  1  0.05544865  0.18918337  0.05667425  1  -0.760744  0  -0.281036  -0.176556  0  3.631377  0
N  N94  1  0.87120833  0.81696948  0.87302917  1  -0.781393  0  -0.282574  -0.182196  0  3.636132  0
N  N95  1  0.29045403  0.14884523  0.20324741  1  -0.825896  0  -0.272156  -0.177138  0  3.543743  0
N  N96  1  0.13957396  0.00651474  0.94657282  1  -0.789523  0  -0.283513  -0.177432  0  3.64816  0
N  N97  1  0.70707633  0.91676693  0.85044223  1  -0.803421  0  -0.270804  -0.175108  0  3.549021  0
N  N98  1  0.87567764  0.87667979  0.81594743  1  -0.795789  0  -0.286766  -0.1865  0  3.632555  0
N  N99  1  0.28959849  0.20914387  0.14533530  1  -0.755568  0  -0.271835  -0.17748  0  3.546859  0
N  N100  1  0.12810827  0.94289766  0.99929572  1  -0.786373  0  -0.284903  -0.187656  0  3.635121  0
N  N101  1  0.71210195  0.86329446  0.91505508  1  -0.790246  0  -0.27154  -0.17403  0  3.562852  0
N  N102  1  0.05907358  0.14986887  0.85661109  1  -0.748146  0  -0.269263  -0.171296  0  3.540037  0
N  N103  1  0.93901576  0.13076758  0.99922362  1  -0.805993  0  -0.284602  -0.182028  0  3.646211  0
N  N104  1  0.94214508  0.80605854  0.09077048  1  -0.821076  0  -0.271945  -0.175097  0  3.54988  0
N  N105  1  0.06060644  0.06636858  0.18986607  1  -0.789787  0  -0.282238  -0.179414  0  3.62989  0
Zn  Zn106  1  0.14187545  0.00491899  0.14088026  1  1.187399  0  0.739957  0.603999  0  2.452143  0
Zn  Zn107  1  0.86237132  0.87025139  0.00355805  1  1.189526  0  0.743041  0.61127  0  2.447335  0
Zn  Zn108  1  0.85823060  0.00415572  0.85819260  1  1.186951  0  0.741352  0.600659  0  2.474273  0
Zn  Zn109  1  0.14124978  0.14352463  0.99985536  1  1.189131  0  0.741908  0.611031  0  2.440027  0
