# generated using pymatgen
data_Y2H20C12O13
_symmetry_space_group_name_H-M   'P 1'
_cell_length_a   8.32158251
_cell_length_b   11.38155932
_cell_length_c   11.38154919
_cell_angle_alpha   91.75196669
_cell_angle_beta   107.56920296
_cell_angle_gamma   107.56939371
_symmetry_Int_Tables_number   1
_chemical_formula_structural   Y2H20C12O13
_chemical_formula_sum   'Y4 H40 C24 O26'
_cell_volume   970.93022549
_cell_formula_units_Z   2
loop_
 _symmetry_equiv_pos_site_id
 _symmetry_equiv_pos_as_xyz
  1  'x, y, z'
loop_
 _atom_site_type_symbol
 _atom_site_label
 _atom_site_symmetry_multiplicity
 _atom_site_fract_x
 _atom_site_fract_y
 _atom_site_fract_z
 _atom_site_occupancy
 _atom_site_hle17_bader_spin_density
 _atom_site_hle17_ddec_charge
 _atom_site_hle17_ddec_spin_density
 _atom_site_hle17_ddec_sum_bond_order
 _atom_site_hle17_magmom
 _atom_site_hse06_10hf_bader_spin_density
 _atom_site_hse06_10hf_ddec_charge
 _atom_site_hse06_10hf_ddec_spin_density
 _atom_site_hse06_10hf_ddec_sum_bond_order
 _atom_site_hse06_10hf_magmom
 _atom_site_hse06_bader_spin_density
 _atom_site_hse06_ddec_charge
 _atom_site_hse06_ddec_spin_density
 _atom_site_hse06_ddec_sum_bond_order
 _atom_site_hse06_magmom
 _atom_site_pbe_bader_spin_density
 _atom_site_pbe_cm5_charge
 _atom_site_pbe_ddec_charge
 _atom_site_pbe_ddec_spin_density
 _atom_site_pbe_ddec_sum_bond_order
 _atom_site_pbe_magmom
Y  Y0  1  0.49837735  0.04673942  0.76064401  1  0  2.066368  0  1.85067  0  0  1.865379  0  2.341232  0  0  1.941912  0  2.270831  0  0  1.299569  1.810873  0  2.388438  0
Y  Y1  1  0.99837830  0.76064425  0.04673991  1  0  2.066402  0  1.850581  0  0  1.865424  0  2.341151  0  0  1.941949  0  2.270759  0  0  1.299584  1.810956  0  2.388286  0
Y  Y2  1  0.76070508  0.39680155  0.91516083  1  0  2.016556  0  1.921371  0  0  1.822104  0  2.410095  0  0  1.895525  0  2.345983  0  0  1.32064  1.769134  0  2.454454  0
Y  Y3  1  0.26070439  0.91516159  0.39680130  1  0  2.016546  0  1.921401  0  0  1.822098  0  2.410102  0  0  1.895469  0  2.346074  0  0  1.320637  1.769127  0  2.454453  0
H  H4  1  0.16515909  0.29030709  0.60849490  1  0  0.138612  0  0.935997  0  0  0.160177  0  0.993606  0  0  0.161988  0  0.993501  0  0  0.105308  0.158884  0  0.993701  0
H  H5  1  0.66515909  0.60849630  0.29030834  1  0  0.138659  0  0.935917  0  0  0.160219  0  0.993545  0  0  0.162029  0  0.993441  0  0  0.105336  0.158928  0  0.993641  0
H  H6  1  0.28434411  0.24487810  0.52149802  1  0  0.162426  0  0.932778  0  0  0.180231  0  0.990691  0  0  0.183878  0  0.988354  0  0  0.113126  0.177603  0  0.992432  0
H  H7  1  0.78434297  0.52149756  0.24487928  1  0  0.162372  0  0.932829  0  0  0.180204  0  0.990721  0  0  0.183851  0  0.988384  0  0  0.113106  0.177585  0  0.992453  0
H  H8  1  0.29906788  0.40626143  0.54382162  1  0  0.134357  0  0.942214  0  0  0.154183  0  0.999344  0  0  0.156182  0  0.99881  0  0  0.100129  0.152715  0  0.999791  0
H  H9  1  0.79906734  0.54382149  0.40626286  1  0  0.134469  0  0.942272  0  0  0.154303  0  0.99937  0  0  0.156301  0  0.998836  0  0  0.100188  0.152834  0  0.999819  0
H  H10  1  0.85714158  0.85689422  0.54740567  1  0  0.150692  0  0.932875  0  0  0.170953  0  0.990775  0  0  0.173072  0  0.990402  0  0  0.110461  0.169417  0  0.99109  0
H  H11  1  0.35714326  0.54740741  0.85689648  1  0  0.150695  0  0.93287  0  0  0.170962  0  0.990772  0  0  0.173076  0  0.990405  0  0  0.110464  0.169427  0  0.991091  0
H  H12  1  0.89962408  0.99157645  0.47050284  1  0  0.143052  0  0.940909  0  0  0.161416  0  1.000348  0  0  0.163863  0  0.999569  0  0  0.105299  0.15961  0  1.000986  0
H  H13  1  0.39962608  0.47050193  0.99157724  1  0  0.143071  0  0.940846  0  0  0.161434  0  1.000292  0  0  0.163881  0  0.999512  0  0  0.10532  0.159631  0  1.000929  0
H  H14  1  0.86970307  0.00006619  0.62097850  1  0  0.159028  0  0.940557  0  0  0.175415  0  1.000547  0  0  0.178257  0  0.999923  0  0  0.108981  0.173344  0  1.001095  0
H  H15  1  0.36970581  0.62097841  0.00006945  1  0  0.159044  0  0.940554  0  0  0.175441  0  1.000534  0  0  0.178283  0  0.999905  0  0  0.108995  0.173374  0  1.00108  0
H  H16  1  0.58600044  0.64411362  0.57974441  1  0  0.135256  0  0.934337  0  0  0.153786  0  0.992605  0  0  0.156287  0  0.991239  0  0  0.098849  0.151954  0  0.993654  0
H  H17  1  0.08600925  0.57974740  0.64411543  1  0  0.135274  0  0.934324  0  0  0.153819  0  0.992568  0  0  0.156317  0  0.991197  0  0  0.098871  0.151986  0  0.993621  0
H  H18  1  0.68869412  0.77149230  0.70398846  1  0  0.154034  0  0.949006  0  0  0.171648  0  1.011405  0  0  0.175079  0  1.009467  0  0  0.109309  0.169167  0  1.012848  0
H  H19  1  0.18870138  0.70399003  0.77149576  1  0  0.153995  0  0.948992  0  0  0.171614  0  1.011393  0  0  0.175043  0  1.009453  0  0  0.109298  0.169136  0  1.012838  0
H  H20  1  0.47622241  0.66654798  0.68640525  1  0  0.149085  0  0.932238  0  0  0.168721  0  0.991396  0  0  0.171447  0  0.990151  0  0  0.108425  0.166732  0  0.99237  0
H  H21  1  0.97622929  0.68640559  0.66654884  1  0  0.149094  0  0.932233  0  0  0.168722  0  0.991399  0  0  0.171451  0  0.990153  0  0  0.108433  0.166738  0  0.992365  0
H  H22  1  0.14318858  0.13889604  0.87274832  1  0  0.153181  0  0.953943  0  0  0.1681  0  1.016108  0  0  0.171076  0  1.015138  0  0  0.106409  0.165948  0  1.016866  0
H  H23  1  0.64318838  0.87274730  0.13889470  1  0  0.153219  0  0.954003  0  0  0.168147  0  1.016143  0  0  0.171123  0  1.015172  0  0  0.106432  0.165995  0  1.016896  0
H  H24  1  0.13514175  0.26221510  0.97263199  1  0  0.147076  0  0.943872  0  0  0.165597  0  1.004554  0  0  0.167831  0  1.004179  0  0  0.108828  0.163937  0  1.004935  0
H  H25  1  0.63514348  0.97263243  0.26221454  1  0  0.147064  0  0.943872  0  0  0.165585  0  1.004552  0  0  0.167819  0  1.004177  0  0  0.108825  0.163927  0  1.004931  0
H  H26  1  0.08282152  0.26907966  0.81180802  1  0  0.155287  0  0.924408  0  0  0.17463  0  0.982754  0  0  0.177192  0  0.981653  0  0  0.112436  0.172796  0  0.983566  0
H  H27  1  0.58282120  0.81180838  0.26907847  1  0  0.155296  0  0.924406  0  0  0.174627  0  0.982764  0  0  0.177191  0  0.981664  0  0  0.112445  0.172795  0  0.983576  0
H  H28  1  0.50085853  0.14483542  0.21499016  1  0  0.145171  0  0.953958  0  0  0.162663  0  1.016931  0  0  0.165492  0  1.01594  0  0  0.10318  0.160596  0  1.017712  0
H  H29  1  0.00085777  0.21498859  0.14483539  1  0  0.145191  0  0.953949  0  0  0.162694  0  1.016916  0  0  0.165527  0  1.01592  0  0  0.103194  0.160617  0  1.017711  0
H  H30  1  0.28729843  0.09143751  0.10070051  1  0  0.14445  0  0.957062  0  0  0.160959  0  1.01812  0  0  0.163783  0  1.017466  0  0  0.103193  0.158893  0  1.01872  0
H  H31  1  0.78729735  0.10070079  0.09143607  1  0  0.14445  0  0.957021  0  0  0.160982  0  1.01806  0  0  0.163798  0  1.017416  0  0  0.103196  0.158919  0  1.018656  0
H  H32  1  0.39217920  0.25387307  0.16178881  1  0  0.122457  0  0.953801  0  0  0.140553  0  1.016252  0  0  0.142807  0  1.015093  0  0  0.092306  0.138908  0  1.017125  0
H  H33  1  0.89217879  0.16178810  0.25387218  1  0  0.122448  0  0.953804  0  0  0.140552  0  1.016253  0  0  0.142806  0  1.015095  0  0  0.092303  0.138908  0  1.017122  0
H  H34  1  0.85748092  0.32196135  0.56620184  1  0  0.146156  0  0.964441  0  0  0.159159  0  1.03113  0  0  0.16296  0  1.028451  0  0  0.095782  0.156389  0  1.03312  0
H  H35  1  0.35748246  0.56620049  0.32196205  1  0  0.146174  0  0.964441  0  0  0.159175  0  1.031131  0  0  0.162977  0  1.028452  0  0  0.095779  0.156406  0  1.033119  0
H  H36  1  0.84274645  0.22047400  0.43548003  1  0  0.12835  0  0.952258  0  0  0.147051  0  1.014404  0  0  0.149181  0  1.013644  0  0  0.097371  0.145508  0  1.014995  0
H  H37  1  0.34274701  0.43547915  0.22047413  1  0  0.128339  0  0.952248  0  0  0.147056  0  1.014369  0  0  0.149187  0  1.013608  0  0  0.097373  0.145514  0  1.014961  0
H  H38  1  0.69923075  0.31017645  0.41501069  1  0  0.134887  0  0.938408  0  0  0.157001  0  0.992771  0  0  0.158922  0  0.99253  0  0  0.10163  0.155621  0  0.99297  0
H  H39  1  0.19922985  0.41500942  0.31017586  1  0  0.134895  0  0.938363  0  0  0.157007  0  0.992732  0  0  0.15893  0  0.992488  0  0  0.101626  0.155629  0  0.99293  0
H  H40  1  0.41168295  0.86116736  0.92550576  1  0  0.437287  0  0.863575  0  0  0.40543  0  0.92839  0  0  0.416763  0  0.911986  0  0  0.303556  0.397395  0  0.940026  0
H  H41  1  0.91168028  0.92550645  0.86116679  1  0  0.437346  0  0.863489  0  0  0.405481  0  0.928314  0  0  0.416813  0  0.91191  0  0  0.303584  0.39745  0  0.939942  0
H  H42  1  0.56255027  0.82513302  0.89366071  1  0  0.441711  0  0.854446  0  0  0.410915  0  0.916299  0  0  0.422355  0  0.899813  0  0  0.304936  0.402775  0  0.928036  0
H  H43  1  0.06255006  0.89366067  0.82513345  1  0  0.441725  0  0.854429  0  0  0.410919  0  0.916296  0  0  0.42236  0  0.899808  0  0  0.304932  0.402779  0  0.928033  0
C  C44  1  0.47468753  0.79291054  0.55263263  1  0  0.777434  0  3.798347  0  0  0.738973  0  4.08597  0  0  0.773763  0  4.077861  0  0  0.223058  0.71519  0  4.090786  0
C  C45  1  0.97469131  0.55263283  0.79290966  1  0  0.777503  0  3.798401  0  0  0.739074  0  4.085979  0  0  0.773871  0  4.077865  0  0  0.22312  0.71528  0  4.090813  0
C  C46  1  0.44433801  0.34201488  0.70427057  1  0  0.780809  0  3.792292  0  0  0.742921  0  4.080088  0  0  0.777992  0  4.07143  0  0  0.226512  0.719009  0  4.085193  0
C  C47  1  0.94433746  0.70427054  0.34201524  1  0  0.780867  0  3.792265  0  0  0.74299  0  4.080042  0  0  0.778062  0  4.071379  0  0  0.226562  0.719074  0  4.085149  0
C  C48  1  0.29005805  0.32054226  0.58639044  1  0  -0.453608  0  3.637329  0  0  -0.529648  0  3.863916  0  0  -0.536365  0  3.864892  0  0  -0.235474  -0.52491  0  3.863258  0
C  C49  1  0.79005786  0.58639070  0.32054493  1  0  -0.453735  0  3.6374  0  0  -0.529813  0  3.863984  0  0  -0.536529  0  3.864958  0  0  -0.235531  -0.525082  0  3.863324  0
C  C50  1  0.92464199  0.95782747  0.56113331  1  0  -0.463053  0  3.617036  0  0  -0.540009  0  3.850245  0  0  -0.547181  0  3.851663  0  0  -0.235424  -0.534893  0  3.84928  0
C  C51  1  0.42464392  0.56113317  0.95782864  1  0  -0.463092  0  3.616968  0  0  -0.540055  0  3.850182  0  0  -0.54722  0  3.851612  0  0  -0.235452  -0.534936  0  3.849216  0
C  C52  1  0.12053730  0.98339951  0.62350035  1  0  0.786216  0  3.778425  0  0  0.740633  0  4.072092  0  0  0.775879  0  4.063402  0  0  0.235449  0.71655  0  4.077314  0
C  C53  1  0.62053793  0.62350218  0.98340049  1  0  0.786171  0  3.778531  0  0  0.740592  0  4.072205  0  0  0.775833  0  4.063519  0  0  0.235394  0.716499  0  4.077442  0
C  C54  1  0.87996595  0.14109020  0.86007650  1  0  0.806446  0  3.756408  0  0  0.759172  0  4.048456  0  0  0.795332  0  4.038057  0  0  0.238532  0.734426  0  4.054942  0
C  C55  1  0.37996739  0.86007721  0.14109019  1  0  0.806542  0  3.756363  0  0  0.759218  0  4.048479  0  0  0.79538  0  4.038077  0  0  0.238572  0.734475  0  4.05497  0
C  C56  1  0.62978273  0.15379124  0.51139557  1  0  0.797959  0  3.79981  0  0  0.761646  0  4.086458  0  0  0.796732  0  4.076672  0  0  0.238309  0.73762  0  4.092491  0
C  C57  1  0.12978341  0.51139471  0.15379066  1  0  0.797947  0  3.799886  0  0  0.761639  0  4.086514  0  0  0.796727  0  4.076728  0  0  0.238311  0.737616  0  4.092549  0
C  C58  1  0.56281078  0.71427084  0.63439899  1  0  -0.453974  0  3.64112  0  0  -0.532286  0  3.875832  0  0  -0.539029  0  3.875987  0  0  -0.237784  -0.527485  0  3.875783  0
C  C59  1  0.06281761  0.63440010  0.71427242  1  0  -0.453999  0  3.641057  0  0  -0.532326  0  3.875737  0  0  -0.539066  0  3.875886  0  0  -0.23781  -0.527525  0  3.875689  0
C  C60  1  0.50026963  0.18894836  0.03277145  1  0  0.796014  0  3.807263  0  0  0.757229  0  4.097602  0  0  0.79228  0  4.087782  0  0  0.232449  0.733215  0  4.103699  0
C  C61  1  0.00026837  0.03277015  0.18894895  1  0  0.796035  0  3.807253  0  0  0.75723  0  4.097625  0  0  0.792307  0  4.087763  0  0  0.232458  0.733221  0  4.103715  0
C  C62  1  0.07380729  0.20461363  0.88148674  1  0  -0.464135  0  3.607889  0  0  -0.540304  0  3.838872  0  0  -0.547642  0  3.839935  0  0  -0.23381  -0.535089  0  3.838153  0
C  C63  1  0.57380682  0.88148781  0.20461244  1  0  -0.464173  0  3.607982  0  0  -0.540317  0  3.83899  0  0  -0.547654  0  3.840049  0  0  -0.233818  -0.535106  0  3.838265  0
C  C64  1  0.41316942  0.16860965  0.13241514  1  0  -0.464359  0  3.646108  0  0  -0.541299  0  3.879501  0  0  -0.54875  0  3.881236  0  0  -0.245829  -0.535927  0  3.878298  0
C  C65  1  0.91316970  0.13241465  0.16860907  1  0  -0.464371  0  3.646034  0  0  -0.541351  0  3.879438  0  0  -0.548806  0  3.88117  0  0  -0.245844  -0.535978  0  3.878243  0
C  C66  1  0.76759687  0.25887147  0.48171250  1  0  -0.463217  0  3.654294  0  0  -0.53891  0  3.882381  0  0  -0.545875  0  3.883394  0  0  -0.243943  -0.533931  0  3.881696  0
C  C67  1  0.26759700  0.48171162  0.25887138  1  0  -0.46325  0  3.654239  0  0  -0.538955  0  3.882319  0  0  -0.545925  0  3.883328  0  0  -0.243951  -0.53398  0  3.881636  0
O  O68  1  0.46866138  0.09662863  0.95388480  1  0  -0.710203  0  2.00256  0  0  -0.650908  0  2.252361  0  0  -0.67962  0  2.241555  0  0  -0.364976  -0.630861  0  2.259235  0
O  O69  1  0.96866092  0.95388426  0.09662796  1  0  -0.71023  0  2.002503  0  0  -0.650944  0  2.252324  0  0  -0.679665  0  2.241507  0  0  -0.364995  -0.630905  0  2.259196  0
O  O70  1  0.46995002  0.24962037  0.76069663  1  0  -0.766436  0  2.058275  0  0  -0.697531  0  2.307377  0  0  -0.730288  0  2.299271  0  0  -0.383726  -0.674498  0  2.312102  0
O  O71  1  0.96994994  0.76069505  0.24962096  1  0  -0.766439  0  2.058226  0  0  -0.697537  0  2.307325  0  0  -0.730287  0  2.299217  0  0  -0.38377  -0.674512  0  2.312057  0
O  O72  1  0.80146724  0.02674418  0.81633466  1  0  -0.674602  0  1.984871  0  0  -0.604459  0  2.205864  0  0  -0.633227  0  2.196247  0  0  -0.320919  -0.584629  0  2.212144  0
O  O73  1  0.30146792  0.81633584  0.02674387  1  0  -0.674649  0  1.984906  0  0  -0.604487  0  2.205908  0  0  -0.633264  0  2.196298  0  0  -0.320946  -0.584655  0  2.212173  0
O  O74  1  0.78504324  0.20431428  0.88149659  1  0  -0.771392  0  2.12846  0  0  -0.69758  0  2.390502  0  0  -0.731486  0  2.380404  0  0  -0.409081  -0.673754  0  2.396714  0
O  O75  1  0.28504411  0.88149692  0.20431440  1  0  -0.771438  0  2.128384  0  0  -0.697606  0  2.390442  0  0  -0.731502  0  2.380345  0  0  -0.409113  -0.673783  0  2.396654  0
O  O76  1  0.54907978  0.45169376  0.75042985  1  0  -0.682982  0  1.91708  0  0  -0.622527  0  2.138909  0  0  -0.651513  0  2.131803  0  0  -0.35339  -0.602314  0  2.143121  0
O  O77  1  0.04907903  0.75043103  0.45169467  1  0  -0.683011  0  1.91705  0  0  -0.622557  0  2.138868  0  0  -0.651539  0  2.131765  0  0  -0.353411  -0.602342  0  2.143079  0
O  O78  1  0.42212802  0.76857249  0.43470859  1  0  -0.676524  0  1.912021  0  0  -0.620673  0  2.137617  0  0  -0.648523  0  2.129266  0  0  -0.35008  -0.601332  0  2.142854  0
O  O79  1  0.92213139  0.43471047  0.76857208  1  0  -0.676494  0  1.911989  0  0  -0.62067  0  2.137598  0  0  -0.648527  0  2.129238  0  0  -0.350104  -0.601316  0  2.142826  0
O  O80  1  0.44624677  0.88547332  0.60150237  1  0  -0.778828  0  2.073085  0  0  -0.707891  0  2.326015  0  0  -0.741264  0  2.317172  0  0  -0.398893  -0.684372  0  2.33117  0
O  O81  1  0.94625051  0.60150305  0.88547345  1  0  -0.778908  0  2.073226  0  0  -0.707976  0  2.326121  0  0  -0.741354  0  2.317269  0  0  -0.398917  -0.684459  0  2.33128  0
O  O82  1  0.23119985  0.02486320  0.56444938  1  0  -0.755729  0  2.062593  0  0  -0.686978  0  2.316119  0  0  -0.719135  0  2.306727  0  0  -0.382107  -0.664413  0  2.32189  0
O  O83  1  0.73120252  0.56445210  0.02486399  1  0  -0.755725  0  2.062637  0  0  -0.68694  0  2.316105  0  0  -0.719104  0  2.306718  0  0  -0.382096  -0.664373  0  2.321881  0
O  O84  1  0.51387954  0.07441408  0.41977919  1  0  -0.729828  0  1.981287  0  0  -0.665264  0  2.226149  0  0  -0.695581  0  2.214977  0  0  -0.392081  -0.643938  0  2.233254  0
O  O85  1  0.01388083  0.41977993  0.07441336  1  0  -0.729815  0  1.98137  0  0  -0.665256  0  2.226244  0  0  -0.695581  0  2.21507  0  0  -0.392074  -0.643929  0  2.233347  0
O  O86  1  0.60360595  0.29889585  0.03548722  1  0  -0.729224  0  1.971355  0  0  -0.669311  0  2.218331  0  0  -0.698795  0  2.206394  0  0  -0.399088  -0.648592  0  2.225985  0
O  O87  1  0.10360238  0.03548614  0.29889611  1  0  -0.729234  0  1.971428  0  0  -0.669295  0  2.218398  0  0  -0.698779  0  2.206451  0  0  -0.399092  -0.648575  0  2.226046  0
O  O88  1  0.18214552  0.96624983  0.73616828  1  0  -0.672109  0  1.99494  0  0  -0.601103  0  2.218316  0  0  -0.630346  0  2.209096  0  0  -0.327316  -0.580845  0  2.22423  0
O  O89  1  0.68214436  0.73616919  0.96625062  1  0  -0.672056  0  1.994981  0  0  -0.601102  0  2.218409  0  0  -0.630341  0  2.20919  0  0  -0.32726  -0.580841  0  2.224324  0
O  O90  1  0.63530646  0.14995572  0.62329442  1  0  -0.705006  0  2.045766  0  0  -0.647289  0  2.291094  0  0  -0.67684  0  2.282861  0  0  -0.356027  -0.626622  0  2.29603  0
O  O91  1  0.13530994  0.62329494  0.14995648  1  0  -0.70499  0  2.045736  0  0  -0.647292  0  2.291089  0  0  -0.676843  0  2.282852  0  0  -0.356036  -0.626631  0  2.296025  0
O  O92  1  0.47672055  0.87121675  0.86388124  1  0  -0.895151  0  1.869774  0  0  -0.842671  0  2.079411  0  0  -0.866347  0  2.04531  0  0  -0.634092  -0.825818  0  2.102998  0
O  O93  1  0.97672114  0.86388184  0.87121749  1  0  -0.89522  0  1.869677  0  0  -0.84273  0  2.079345  0  0  -0.866406  0  2.045242  0  0  -0.634113  -0.825883  0  2.102915  0
