# generated using pymatgen
data_Zn3H18C20(NO2)4
_symmetry_space_group_name_H-M   'P 1'
_cell_length_a   9.01144110
_cell_length_b   11.20239791
_cell_length_c   16.69120000
_cell_angle_alpha   108.20522229
_cell_angle_beta   90.00000000
_cell_angle_gamma   113.71634929
_symmetry_Int_Tables_number   1
_chemical_formula_structural   Zn3H18C20(NO2)4
_chemical_formula_sum   'Zn6 H36 C40 N8 O16'
_cell_volume   1450.07586538
_cell_formula_units_Z   2
loop_
 _symmetry_equiv_pos_site_id
 _symmetry_equiv_pos_as_xyz
  1  'x, y, z'
loop_
 _atom_site_type_symbol
 _atom_site_label
 _atom_site_symmetry_multiplicity
 _atom_site_fract_x
 _atom_site_fract_y
 _atom_site_fract_z
 _atom_site_occupancy
 _atom_site_hle17_bader_spin_density
 _atom_site_hle17_ddec_charge
 _atom_site_hle17_ddec_spin_density
 _atom_site_hle17_ddec_sum_bond_order
 _atom_site_hle17_magmom
 _atom_site_hse06_10hf_bader_spin_density
 _atom_site_hse06_10hf_ddec_charge
 _atom_site_hse06_10hf_ddec_spin_density
 _atom_site_hse06_10hf_ddec_sum_bond_order
 _atom_site_hse06_10hf_magmom
 _atom_site_hse06_bader_spin_density
 _atom_site_hse06_ddec_charge
 _atom_site_hse06_ddec_spin_density
 _atom_site_hse06_ddec_sum_bond_order
 _atom_site_hse06_magmom
 _atom_site_pbe_bader_charge
 _atom_site_pbe_bader_spin_density
 _atom_site_pbe_cm5_charge
 _atom_site_pbe_ddec_charge
 _atom_site_pbe_ddec_spin_density
 _atom_site_pbe_ddec_sum_bond_order
 _atom_site_pbe_magmom
Zn  Zn0  1  0.84872895  0.32319930  0.77104555  1  0  1.04277  0  1.921884  0  0  0.858167  0  2.415005  0  0  0.901122  0  2.360277  0  1.256226  0  0.68684  0.828012  0  2.452808  0
Zn  Zn1  1  0.52548296  0.67663290  0.72894023  1  0  1.043497  0  1.919864  0  0  0.859167  0  2.412974  0  0  0.902156  0  2.35824  0  1.255524  0  0.686706  0.829005  0  2.450816  0
Zn  Zn2  1  0.15126895  0.67679990  0.22895428  1  0  1.042747  0  1.92187  0  0  0.858143  0  2.414979  0  0  0.901099  0  2.360256  0  1.256214  0  0.686828  0.827987  0  2.45278  0
Zn  Zn3  1  0.47451494  0.32336630  0.27106080  1  0  1.043507  0  1.919839  0  0  0.859189  0  2.412937  0  0  0.902174  0  2.358202  0  1.255517  0  0.686719  0.829028  0  2.450779  0
Zn  Zn4  1  0.75199510  0.99991207  0.74998336  1  0  1.193852  0  1.837857  0  0  1.031952  0  2.328974  0  0  1.078609  0  2.259713  0  1.318478  0  0.661698  0.998694  0  2.377142  0
Zn  Zn5  1  0.24800161  0.00008921  0.25001751  1  0  1.193879  0  1.837859  0  0  1.031984  0  2.328981  0  0  1.078641  0  2.259716  0  1.31873  0  0.661723  0.998725  0  2.377152  0
H  H6  1  0.45696305  0.57143004  0.37156051  1  0  0.040791  0  0.943022  0  0  0.05107  0  1.008634  0  0  0.051818  0  1.007569  0  0.063448  0  0.105403  0.050428  0  1.009666  0
H  H7  1  0.88556101  0.42861895  0.12839344  1  0  0.040832  0  0.943049  0  0  0.050678  0  1.008704  0  0  0.051431  0  1.007635  0  0.050259  0  0.105544  0.050105  0  1.009581  0
H  H8  1  0.54303862  0.42857227  0.62843877  1  0  0.040764  0  0.943043  0  0  0.051045  0  1.00864  0  0  0.051793  0  1.007576  0  0.063454  0  0.105397  0.050403  0  1.009672  0
H  H9  1  0.11443526  0.57137922  0.87160498  1  0  0.040805  0  0.943089  0  0  0.050632  0  1.00877  0  0  0.051383  0  1.007703  0  0.050439  0  0.105544  0.050059  0  1.009647  0
H  H10  1  0.07954559  0.47435418  0.02960051  1  0  0.117249  0  0.976259  0  0  0.124165  0  1.044476  0  0  0.128167  0  1.040413  0  0.100124  0  0.104113  0.121272  0  1.04743  0
H  H11  1  0.60545895  0.52562635  0.47039302  1  0  0.116522  0  0.97629  0  0  0.124097  0  1.043639  0  0  0.128111  0  1.039596  0  0.116441  0  0.104016  0.12115  0  1.04669  0
H  H12  1  0.92045446  0.52564710  0.97040036  1  0  0.117245  0  0.976193  0  0  0.124156  0  1.044417  0  0  0.128159  0  1.040354  0  0.100184  0  0.104104  0.121262  0  1.047374  0
H  H13  1  0.39454235  0.47437078  0.52960938  1  0  0.116528  0  0.976296  0  0  0.1241  0  1.04365  0  0  0.128117  0  1.039604  0  0.116485  0  0.104042  0.121154  0  1.0467  0
H  H14  1  0.10639207  0.07857722  0.94254158  1  0  0.104303  0  0.949308  0  0  0.114908  0  1.008517  0  0  0.118089  0  1.006889  0  0.11993  0  0.102609  0.112543  0  1.00981  0
H  H15  1  0.02791919  0.92149874  0.55749352  1  0  0.103553  0  0.950226  0  0  0.114056  0  1.009564  0  0  0.117218  0  1.007946  0  0.079966  0  0.102533  0.111735  0  1.010804  0
H  H16  1  0.89360784  0.92142821  0.05746016  1  0  0.104302  0  0.949268  0  0  0.114917  0  1.008473  0  0  0.118099  0  1.006847  0  0.11982  0  0.102605  0.112565  0  1.009752  0
H  H17  1  0.97207981  0.07850046  0.44250632  1  0  0.10353  0  0.950246  0  0  0.114029  0  1.009582  0  0  0.117191  0  1.007964  0  0.079959  0  0.102518  0.1117  0  1.010833  0
H  H18  1  0.27367216  0.13651591  0.07997795  1  0  0.103171  0  0.960991  0  0  0.113251  0  1.021399  0  0  0.116775  0  1.019183  0  0.084838  0  0.102632  0.110754  0  1.023039  0
H  H19  1  0.13719223  0.86369593  0.42003292  1  0  0.103681  0  0.961718  0  0  0.113861  0  1.021809  0  0  0.11738  0  1.019608  0  0.076996  0  0.102665  0.111299  0  1.023585  0
H  H20  1  0.72632189  0.86348225  0.92002167  1  0  0.10318  0  0.960965  0  0  0.113256  0  1.021381  0  0  0.116778  0  1.019165  0  0.084808  0  0.102638  0.110757  0  1.023022  0
H  H21  1  0.86280411  0.13630016  0.57996686  1  0  0.103675  0  0.961753  0  0  0.113873  0  1.02182  0  0  0.117393  0  1.019617  0  0.076949  0  0.102669  0.111299  0  1.023609  0
H  H22  1  0.54953950  0.80573234  0.29649866  1  0  0.123185  0  0.943514  0  0  0.143787  0  1.001522  0  0  0.145763  0  1.000844  0  0.062312  0  0.095503  0.142279  0  1.002152  0
H  H23  1  0.74435185  0.19439859  0.20355276  1  0  0.123366  0  0.942845  0  0  0.144396  0  1.000557  0  0  0.146393  0  0.999827  0  0.068237  0  0.095652  0.142877  0  1.001122  0
H  H24  1  0.45046335  0.19426790  0.70349959  1  0  0.123237  0  0.943463  0  0  0.143805  0  1.001512  0  0  0.145781  0  1.000835  0  0.062503  0  0.095532  0.142299  0  1.002142  0
H  H25  1  0.25565056  0.80559854  0.79644364  1  0  0.123346  0  0.942849  0  0  0.144377  0  1.000561  0  0  0.146377  0  0.999826  0  0.068424  0  0.095615  0.142858  0  1.001126  0
H  H26  1  0.66294337  0.70550215  0.29157375  1  0  0.116334  0  0.940996  0  0  0.137387  0  0.998671  0  0  0.138172  0  1.000069  0  0.070322  0  0.093512  0.13687  0  0.997633  0
H  H27  1  0.95793112  0.29482172  0.20841687  1  0  0.116692  0  0.940937  0  0  0.137943  0  0.998501  0  0  0.138673  0  0.999974  0  0.063392  0  0.09367  0.137431  0  0.997442  0
H  H28  1  0.33705949  0.29449809  0.70842510  1  0  0.116231  0  0.940996  0  0  0.137312  0  0.998651  0  0  0.138097  0  1.00005  0  0.070384  0  0.093492  0.136795  0  0.997614  0
H  H29  1  0.04207010  0.70517749  0.79157997  1  0  0.116669  0  0.940962  0  0  0.137932  0  0.998519  0  0  0.138663  0  0.999992  0  0.063391  0  0.093668  0.13742  0  0.99746  0
H  H30  1  0.64732158  0.81230344  0.39255754  1  0  0.115889  0  0.935959  0  0  0.137386  0  0.993039  0  0  0.138741  0  0.993688  0  0.059847  0  0.093298  0.13644  0  0.992573  0
H  H31  1  0.83543379  0.18786899  0.10746843  1  0  0.116154  0  0.936036  0  0  0.137765  0  0.993084  0  0  0.139058  0  0.993834  0  0.054442  0  0.093592  0.136817  0  0.992619  0
H  H32  1  0.35268180  0.18769784  0.60744093  1  0  0.1159  0  0.935939  0  0  0.137412  0  0.993003  0  0  0.138769  0  0.993649  0  0.059835  0  0.093303  0.136466  0  0.992537  0
H  H33  1  0.16456914  0.81212918  0.89252879  1  0  0.116136  0  0.936085  0  0  0.137766  0  0.993114  0  0  0.139055  0  0.99387  0  0.054555  0  0.0936  0.13682  0  0.992649  0
H  H34  1  0.65472407  0.10871712  0.65818670  1  0  0.414468  0  0.865479  0  0  0.399009  0  0.905758  0  0  0.406899  0  0.894447  0  0.62493  0  0.298905  0.393253  0  0.914033  0
H  H35  1  0.54588028  0.89106529  0.84173293  1  0  0.414984  0  0.864647  0  0  0.399337  0  0.905427  0  0  0.407264  0  0.894054  0  0.623831  0  0.299012  0.393705  0  0.913502  0
H  H36  1  0.34527546  0.89128312  0.34181216  1  0  0.414385  0  0.86563  0  0  0.398922  0  0.90588  0  0  0.406816  0  0.894565  0  0.624956  0  0.298838  0.393166  0  0.914156  0
H  H37  1  0.45411814  0.10893495  0.15826772  1  0  0.414995  0  0.864641  0  0  0.39932  0  0.905458  0  0  0.407255  0  0.894074  0  0.623835  0  0.298981  0.393676  0  0.913547  0
H  H38  1  0.23605090  0.61859982  0.39579233  1  0  0.368931  0  0.839646  0  0  0.360656  0  0.886861  0  0  0.36774  0  0.879574  0  0.604294  0  0.324815  0.35579  0  0.891881  0
H  H39  1  0.61748406  0.38116808  0.10409490  1  0  0.369577  0  0.8397  0  0  0.361079  0  0.887069  0  0  0.368182  0  0.879756  0  0.590322  0  0.325478  0.356096  0  0.892273  0
H  H40  1  0.76395344  0.38140561  0.60420821  1  0  0.368992  0  0.839575  0  0  0.360706  0  0.886803  0  0  0.367794  0  0.879512  0  0.60434  0  0.324825  0.355838  0  0.891826  0
H  H41  1  0.38251170  0.61882905  0.89590510  1  0  0.369542  0  0.839713  0  0  0.361043  0  0.887086  0  0  0.368146  0  0.879774  0  0.58955  0  0.325458  0.356061  0  0.892291  0
C  C42  1  0.42629178  0.62573622  0.33404521  1  0  0.204527  0  3.654295  0  0  0.180812  0  3.917994  0  0  0.186282  0  3.925723  0  0.471375  0  0.002707  0.176904  0  3.912912  0
C  C43  1  0.80067887  0.37430551  0.16594736  1  0  0.204609  0  3.654023  0  0  0.181853  0  3.915944  0  0  0.187354  0  3.923587  0  0.493993  0  0.002747  0.177881  0  3.910838  0
C  C44  1  0.57370930  0.37426713  0.66595429  1  0  0.204587  0  3.654278  0  0  0.180911  0  3.91791  0  0  0.18638  0  3.925645  0  0.471325  0  0.002746  0.177001  0  3.912829  0
C  C45  1  0.19932177  0.62569473  0.83405269  1  0  0.204609  0  3.654025  0  0  0.181874  0  3.915943  0  0  0.187375  0  3.923587  0  0.49374  0  0.002769  0.177902  0  3.910837  0
C  C46  1  0.34273524  0.52185796  0.24697236  1  0  0.328185  0  3.71716  0  0  0.300349  0  3.988215  0  0  0.31772  0  4.001944  0  0.989114  0  0.212228  0.288883  0  3.978483  0
C  C47  1  0.82098047  0.47824186  0.25300364  1  0  0.327757  0  3.719716  0  0  0.300296  0  3.989704  0  0  0.317691  0  4.003446  0  1.00183  0  0.212058  0.288875  0  3.9799  0
C  C48  1  0.65726592  0.47814332  0.75302851  1  0  0.328049  0  3.717372  0  0  0.300197  0  3.988428  0  0  0.317567  0  4.002158  0  0.989434  0  0.212151  0.28873  0  3.978695  0
C  C49  1  0.17901647  0.52175319  0.74699772  1  0  0.327897  0  3.719455  0  0  0.300395  0  3.989473  0  0  0.317796  0  4.003215  0  1.00201  0  0.212106  0.288974  0  3.97967  0
C  C50  1  0.21116410  0.43218819  0.11795152  1  0  0.144739  0  3.844664  0  0  0.145268  0  4.088543  0  0  0.147055  0  4.113134  0  0.305353  0  0.078531  0.143836  0  4.072002  0
C  C51  1  0.77921375  0.56792408  0.38204685  1  0  0.145553  0  3.845918  0  0  0.145866  0  4.089949  0  0  0.147614  0  4.114626  0  0.344727  0  0.078708  0.144495  0  4.073352  0
C  C52  1  0.78883543  0.56781205  0.88204793  1  0  0.144799  0  3.844619  0  0  0.145285  0  4.088588  0  0  0.147074  0  4.113178  0  0.305287  0  0.078538  0.143855  0  4.072045  0
C  C53  1  0.22078985  0.43207098  0.61795570  1  0  0.145715  0  3.845965  0  0  0.145998  0  4.089962  0  0  0.147752  0  4.114641  0  0.346083  0  0.078807  0.144625  0  4.073366  0
C  C54  1  0.27017847  0.33926036  0.13202389  1  0  0.159525  0  3.829678  0  0  0.153056  0  4.077035  0  0  0.158483  0  4.100495  0  0.411157  0  0.082809  0.149443  0  4.061257  0
C  C55  1  0.93115770  0.66084049  0.36797149  1  0  0.159214  0  3.831047  0  0  0.152878  0  4.078341  0  0  0.158365  0  4.101744  0  0.359551  0  0.082529  0.14923  0  4.062511  0
C  C56  1  0.72982046  0.66074091  0.86797757  1  0  0.159505  0  3.829712  0  0  0.152976  0  4.077192  0  0  0.158401  0  4.100655  0  0.41123  0  0.082748  0.149363  0  4.061412  0
C  C57  1  0.06884360  0.33915664  0.63203030  1  0  0.158983  0  3.831263  0  0  0.15272  0  4.078483  0  0  0.158205  0  4.101886  0  0.359893  0  0.082458  0.149073  0  4.062651  0
C  C58  1  0.12177956  0.40156181  0.04039039  1  0  -0.148849  0  3.7238  0  0  -0.179974  0  3.974447  0  0  -0.179278  0  3.992739  0  0.031121  0  -0.092521  -0.18017  0  3.962059  0
C  C59  1  0.72051585  0.59844258  0.45962431  1  0  -0.148995  0  3.723848  0  0  -0.179909  0  3.974584  0  0  -0.179322  0  3.992961  0  -0.021983  0  -0.092726  -0.180079  0  3.962189  0
C  C60  1  0.87822048  0.59843947  0.95960988  1  0  -0.148863  0  3.723686  0  0  -0.179943  0  3.974325  0  0  -0.179251  0  3.992612  0  0.031161  0  -0.092484  -0.180139  0  3.961937  0
C  C61  1  0.27948493  0.40155351  0.54037607  1  0  -0.149041  0  3.72388  0  0  -0.179952  0  3.974625  0  0  -0.179367  0  3.992998  0  -0.022284  0  -0.092755  -0.180122  0  3.96223  0
C  C62  1  0.14034271  0.17848482  0.99269577  1  0  -0.078645  0  3.762599  0  0  -0.108203  0  4.018457  0  0  -0.108131  0  4.041197  0  -0.023248  0  -0.095243  -0.10796  0  4.003059  0
C  C63  1  0.96205817  0.82158284  0.50734657  1  0  -0.076518  0  3.760542  0  0  -0.10531  0  4.016485  0  0  -0.105229  0  4.039118  0  -0.016273  0  -0.094361  -0.10509  0  4.00103  0
C  C64  1  0.85965896  0.82151749  0.00730471  1  0  -0.078688  0  3.762542  0  0  -0.108248  0  4.018398  0  0  -0.108181  0  4.041136  0  -0.023205  0  -0.09528  -0.108015  0  4.002995  0
C  C65  1  0.03794143  0.17841533  0.49265544  1  0  -0.076481  0  3.760729  0  0  -0.105263  0  4.016666  0  0  -0.105184  0  4.039301  0  -0.016645  0  -0.094301  -0.105035  0  4.001212  0
C  C66  1  0.98301897  0.23245804  0.89524438  1  0  0.672128  0  3.886299  0  0  0.623532  0  4.169757  0  0  0.659461  0  4.161886  0  1.538283  0  0.217468  0.599083  0  4.174425  0
C  C67  1  0.75068460  0.76734927  0.60477573  1  0  0.670668  0  3.888425  0  0  0.624063  0  4.170086  0  0  0.65998  0  4.162147  0  1.556298  0  0.217117  0.599577  0  4.174788  0
C  C68  1  0.01698212  0.76754531  0.10475453  1  0  0.671964  0  3.886381  0  0  0.623361  0  4.169871  0  0  0.659286  0  4.162005  0  1.538349  0  0.217417  0.598913  0  4.174538  0
C  C69  1  0.24931611  0.23264890  0.39522508  1  0  0.670675  0  3.888354  0  0  0.624051  0  4.170044  0  0  0.659966  0  4.162107  0  1.556295  0  0.217133  0.599566  0  4.174744  0
C  C70  1  0.08563360  0.27290113  0.97770433  1  0  -0.089936  0  3.799808  0  0  -0.068058  0  4.039601  0  0  -0.078975  0  4.066487  0  -0.034355  0  -0.033589  -0.060975  0  4.021555  0
C  C71  1  0.81299344  0.72707422  0.52234263  1  0  -0.088348  0  3.798985  0  0  -0.068343  0  4.040308  0  0  -0.079111  0  4.066946  0  -0.012941  0  -0.033466  -0.061294  0  4.022312  0
C  C72  1  0.91436748  0.72710222  0.02229518  1  0  -0.089856  0  3.799724  0  0  -0.067989  0  4.039521  0  0  -0.078894  0  4.066388  0  -0.034302  0  -0.033587  -0.06091  0  4.021483  0
C  C73  1  0.18700682  0.27292084  0.47765813  1  0  -0.088418  0  3.799086  0  0  -0.06842  0  4.040423  0  0  -0.079188  0  4.067061  0  -0.01253  0  -0.033561  -0.061372  0  4.022425  0
C  C74  1  0.23374625  0.21045550  0.06895531  1  0  -0.149224  0  3.763903  0  0  -0.165559  0  4.018696  0  0  -0.170184  0  4.039412  0  -0.072553  0  -0.097092  -0.162643  0  4.004758  0
C  C75  1  0.02341266  0.78967024  0.43105668  1  0  -0.152066  0  3.766393  0  0  -0.168671  0  4.021324  0  0  -0.173334  0  4.042033  0  -0.009234  0  -0.098128  -0.165646  0  4.007328  0
C  C76  1  0.76625268  0.78954577  0.93104615  1  0  -0.149215  0  3.763887  0  0  -0.165522  0  4.018693  0  0  -0.170146  0  4.039411  0  -0.072638  0  -0.097023  -0.162605  0  4.004756  0
C  C77  1  0.97658643  0.21032688  0.56894452  1  0  -0.151917  0  3.766429  0  0  -0.168563  0  4.021319  0  0  -0.173226  0  4.04203  0  -0.009044  0  -0.098087  -0.165527  0  4.007323  0
C  C78  1  0.58140304  0.74507290  0.32828366  1  0  -0.338087  0  3.658725  0  0  -0.415972  0  3.895532  0  0  -0.419683  0  3.905281  0  -0.10389  0  -0.242689  -0.413135  0  3.888686  0
C  C79  1  0.83674994  0.25510160  0.17174334  1  0  -0.339197  0  3.657033  0  0  -0.418006  0  3.893802  0  0  -0.421638  0  3.903592  0  -0.096829  0  -0.243529  -0.415177  0  3.886998  0
C  C80  1  0.41860034  0.25492838  0.67171481  1  0  -0.338057  0  3.658644  0  0  -0.415965  0  3.895459  0  0  -0.419674  0  3.905208  0  -0.104066  0  -0.242715  -0.413128  0  3.888613  0
C  C81  1  0.16325240  0.74489760  0.82825410  1  0  -0.339104  0  3.657077  0  0  -0.417946  0  3.893834  0  0  -0.421577  0  3.903627  0  -0.097075  0  -0.243479  -0.415119  0  3.88703  0
N  N82  1  0.25674094  0.54582922  0.19246377  1  0  -0.497532  0  3.209209  0  0  -0.422988  0  3.499567  0  0  -0.445804  0  3.509247  0  -1.230322  0  -0.371871  -0.407379  0  3.49275  0
N  N83  1  0.71105154  0.45428823  0.30753210  1  0  -0.49782  0  3.210089  0  0  -0.423597  0  3.500427  0  0  -0.446429  0  3.510142  0  -1.248292  0  -0.372016  -0.408068  0  3.493655  0
N  N84  1  0.74325969  0.45417102  0.80753568  1  0  -0.497457  0  3.209263  0  0  -0.422899  0  3.499635  0  0  -0.445714  0  3.509313  0  -1.230311  0  -0.371833  -0.40729  0  3.492818  0
N  N85  1  0.28894702  0.54570786  0.69247008  1  0  -0.497942  0  3.209956  0  0  -0.423684  0  3.50028  0  0  -0.446532  0  3.510007  0  -1.250221  0  -0.372107  -0.408148  0  3.493502  0
N  N86  1  0.35453340  0.39950387  0.21422196  1  0  -0.518119  0  3.224802  0  0  -0.44631  0  3.526515  0  0  -0.469896  0  3.53557  0  -1.249618  0  -0.369615  -0.430235  0  3.520102  0
N  N87  1  0.95516812  0.60058765  0.28574690  1  0  -0.516966  0  3.226729  0  0  -0.445364  0  3.528196  0  0  -0.468983  0  3.537264  0  -1.251342  0  -0.368972  -0.429272  0  3.521634  0
N  N88  1  0.64546450  0.60049534  0.78577787  1  0  -0.51809  0  3.22477  0  0  -0.446244  0  3.526483  0  0  -0.469832  0  3.53554  0  -1.249918  0  -0.3696  -0.430169  0  3.520068  0
N  N89  1  0.04482881  0.39940740  0.71425386  1  0  -0.516986  0  3.226665  0  0  -0.445404  0  3.528126  0  0  -0.469017  0  3.537181  0  -1.251203  0  -0.369009  -0.429314  0  3.521567  0
O  O90  1  0.93411361  0.10678677  0.84552577  1  0  -0.65391  0  2.064021  0  0  -0.582576  0  2.329522  0  0  -0.610055  0  2.310163  0  -1.186269  0  -0.322116  -0.563401  0  2.342213  0
O  O91  1  0.82736915  0.89300291  0.65452838  1  0  -0.654172  0  2.064763  0  0  -0.583147  0  2.329474  0  0  -0.610622  0  2.310107  0  -1.18655  0  -0.322148  -0.563924  0  2.342198  0
O  O92  1  0.06588526  0.89321659  0.15447493  1  0  -0.653879  0  2.064065  0  0  -0.582543  0  2.329571  0  0  -0.610021  0  2.310214  0  -1.18635  0  -0.322104  -0.563368  0  2.342263  0
O  O93  1  0.17262927  0.10699733  0.34547227  1  0  -0.654152  0  2.064819  0  0  -0.583117  0  2.32953  0  0  -0.610593  0  2.310166  0  -1.186589  0  -0.322137  -0.563894  0  2.342252  0
O  O94  1  0.94948549  0.32492635  0.88045976  1  0  -0.646965  0  2.074746  0  0  -0.573292  0  2.342476  0  0  -0.600987  0  2.326595  0  -1.185615  0  -0.321637  -0.554027  0  2.352741  0
O  O95  1  0.62474927  0.67481353  0.61956238  1  0  -0.646057  0  2.074908  0  0  -0.573909  0  2.342864  0  0  -0.601623  0  2.326934  0  -1.201196  0  -0.321311  -0.554616  0  2.353267  0
O  O96  1  0.05051005  0.67507700  0.11954034  1  0  -0.646865  0  2.074751  0  0  -0.573198  0  2.342488  0  0  -0.600893  0  2.326613  0  -1.185581  0  -0.321613  -0.553934  0  2.352751  0
O  O97  1  0.37525130  0.32518878  0.38043990  1  0  -0.64607  0  2.07481  0  0  -0.573918  0  2.342784  0  0  -0.601636  0  2.326861  0  -1.201144  0  -0.32133  -0.554626  0  2.353186  0
O  O98  1  0.69698289  0.13001743  0.71679412  1  0  -0.975938  0  1.894831  0  0  -0.883334  0  2.185156  0  0  -0.912033  0  2.143637  0  -1.254398  0  -0.594157  -0.863006  0  2.214008  0
O  O99  1  0.56679194  0.86982204  0.78311590  1  0  -0.97702  0  1.894111  0  0  -0.884514  0  2.184769  0  0  -0.913166  0  2.143117  0  -1.248942  0  -0.594229  -0.8639  0  2.213211  0
O  O100  1  0.30301434  0.86998489  0.28320516  1  0  -0.975837  0  1.894939  0  0  -0.883242  0  2.185245  0  0  -0.911939  0  2.143716  0  -1.254661  0  -0.594092  -0.862914  0  2.214098  0
O  O101  1  0.43320648  0.13017820  0.21688475  1  0  -0.977064  0  1.894093  0  0  -0.884528  0  2.184743  0  0  -0.913188  0  2.14308  0  -1.248939  0  -0.594219  -0.863899  0  2.213214  0
O  O102  1  0.32157628  0.68671722  0.37712513  1  0  -0.555907  0  2.013742  0  0  -0.512365  0  2.222785  0  0  -0.526434  0  2.210727  0  -1.111731  0  -0.391558  -0.502173  0  2.23085  0
O  O103  1  0.63492845  0.31317410  0.12288923  1  0  -0.556432  0  2.014807  0  0  -0.512677  0  2.223508  0  0  -0.526835  0  2.211404  0  -1.101402  0  -0.392101  -0.502584  0  2.231764  0
O  O104  1  0.67842865  0.31328717  0.62287459  1  0  -0.555988  0  2.013644  0  0  -0.512453  0  2.222665  0  0  -0.526525  0  2.21061  0  -1.111772  0  -0.391581  -0.502257  0  2.230731  0
O  O105  1  0.36507388  0.68682510  0.87711001  1  0  -0.556413  0  2.0148  0  0  -0.512658  0  2.223493  0  0  -0.526815  0  2.211389  0  -1.100634  0  -0.392098  -0.502564  0  2.231749  0
