# generated using pymatgen
data_ZnH8C30N2(Cl2O11)2
_symmetry_space_group_name_H-M   'P 1'
_cell_length_a   10.12530503
_cell_length_b   10.84343516
_cell_length_c   23.62002124
_cell_angle_alpha   87.75919051
_cell_angle_beta   87.97806244
_cell_angle_gamma   85.85393657
_symmetry_Int_Tables_number   1
_chemical_formula_structural   ZnH8C30N2(Cl2O11)2
_chemical_formula_sum   'Zn2 H16 C60 N4 Cl8 O44'
_cell_volume   2583.17963831
_cell_formula_units_Z   2
loop_
 _symmetry_equiv_pos_site_id
 _symmetry_equiv_pos_as_xyz
  1  'x, y, z'
loop_
 _atom_site_type_symbol
 _atom_site_label
 _atom_site_symmetry_multiplicity
 _atom_site_fract_x
 _atom_site_fract_y
 _atom_site_fract_z
 _atom_site_occupancy
 _atom_site_pbe_bader_charge
 _atom_site_pbe_bader_spin_density
 _atom_site_pbe_cm5_charge
 _atom_site_pbe_ddec_charge
 _atom_site_pbe_ddec_spin_density
 _atom_site_pbe_ddec_sum_bond_order
 _atom_site_pbe_magmom
Zn  Zn0  1  0.65265511  0.47919900  0.49876940  1  1.31906  0  0.680557  0.894101  0  2.201035  0
Zn  Zn1  1  0.34803999  0.49061682  0.50778058  1  1.319359  0  0.684883  0.889399  0  2.204438  0
H  H2  1  0.00596293  0.52022635  0.06346150  1  0.653751  0  0.321531  0.388975  0  0.908496  0
H  H3  1  0.60767039  0.92610643  0.95301792  1  0.612627  0  0.359507  0.392922  0  0.832446  0
H  H4  1  0.81505709  0.35596154  0.35375325  1  0.632842  0  0.315768  0.357552  0  0.927043  0
H  H5  1  0.18911840  0.77054632  0.58111012  1  0.673897  0  0.327946  0.404717  0  0.900357  0
H  H6  1  0.79676388  0.21473137  0.61189946  1  0.659143  0  0.358237  0.416658  0  0.812311  0
H  H7  1  0.23230340  0.71464509  0.39321582  1  0.661505  0  0.313626  0.374892  0  0.964664  0
H  H8  1  0.95440008  0.64952647  0.94389317  1  0.658459  0  0.314052  0.376859  0  0.954842  0
H  H9  1  0.83329123  0.87071744  0.08720966  1  0.640117  0  0.364389  0.405631  0  0.814044  0
H  H10  1  0.84077997  0.51489112  0.84813406  1  0.64589  0  0.335888  0.387148  0  0.864438  0
H  H11  1  0.79057035  0.27373544  0.17656477  1  0.611865  0  0.357105  0.399472  0  0.824968  0
H  H12  1  0.18893770  0.58191759  0.69058397  1  0.615651  0  0.350883  0.391127  0  0.836481  0
H  H13  1  0.53197633  0.79890187  0.25949202  1  0.617608  0  0.339671  0.383146  0  0.861622  0
H  H14  1  0.70790094  0.75651501  0.36111125  1  0.638969  0  0.354977  0.391046  0  0.826729  0
H  H15  1  0.38740643  0.21345518  0.65011113  1  0.660113  0  0.31205  0.376237  0  0.947932  0
H  H16  1  0.82268013  0.01934641  0.43286521  1  0.650236  0  0.306761  0.363086  0  0.960663  0
H  H17  1  0.07057510  0.99376287  0.46093715  1  0.633583  0  0.325723  0.382704  0  0.895583  0
C  C18  1  0.52289269  0.24907514  0.49887276  1  1.643493  0  0.218303  0.616066  0  4.161319  0
C  C19  1  0.49405193  0.72047466  0.50183090  1  1.642908  0  0.216356  0.608193  0  4.165653  0
C  C20  1  0.60510964  0.57511846  0.76230411  1  0.012801  0  -0.010246  -0.151583  0  3.860432  0
C  C21  1  0.53679789  0.41581005  0.23522872  1  0.051016  0  0.00431  -0.107077  0  3.908322  0
C  C22  1  0.60993634  0.55789295  0.70318785  1  0.138069  0  0.031791  0.116141  0  3.996  0
C  C23  1  0.53896221  0.41480228  0.29449166  1  0.109006  0  0.029134  0.106408  0  3.968814  0
C  C24  1  0.50361941  0.50972318  0.67585500  1  0.036346  0  -0.011948  -0.09141  0  3.902285  0
C  C25  1  0.48536459  0.51548355  0.32575790  1  0.062498  0  0.01234  -0.032044  0  3.819373  0
C  C26  1  0.39604632  0.47385023  0.70997639  1  0.049472  0  -0.014019  -0.118576  0  4.019873  0
C  C27  1  0.43143166  0.62064321  0.29504530  1  0.003838  0  -0.010536  -0.127906  0  3.960368  0
C  C28  1  0.39173300  0.48694308  0.76879086  1  0.083781  0  0.012174  0.0183  0  4.021109  0
C  C29  1  0.41356872  0.61470257  0.23650380  1  0.123494  0  0.022918  0.046105  0  4.041177  0
C  C30  1  0.48718975  0.55354989  0.79449244  1  0.423637  0  0.108985  0.165665  0  3.939447  0
C  C31  1  0.46798192  0.51367336  0.20662599  1  0.440739  0  0.092996  0.126004  0  4.022805  0
C  C32  1  0.64047138  0.00804469  0.50429926  1  0.004115  0  -0.000542  -0.098661  0  3.620819  0
C  C33  1  0.37530816  0.96180467  0.49760945  1  0.007971  0  0.007809  -0.074214  0  3.570393  0
C  C34  1  0.57842686  0.93498011  0.45615294  1  0.008014  0  -0.002115  -0.095624  0  3.659047  0
C  C35  1  0.43813891  0.03409540  0.54590890  1  -0.003651  0  0.006092  -0.067946  0  3.613877  0
C  C36  1  0.49474952  0.85940138  0.50078497  1  0.013432  0  0.00824  -0.049371  0  3.568955  0
C  C37  1  0.52086197  0.11001121  0.50128191  1  0.014237  0  0.006516  -0.058314  0  3.577983  0
C  C38  1  0.55622114  0.93210125  0.54886652  1  0.184322  0  0.036198  0.121748  0  3.706486  0
C  C39  1  0.45896947  0.03753155  0.45303725  1  0.177802  0  0.040553  0.12985  0  3.679016  0
C  C40  1  0.50098933  0.48888775  0.61278311  1  1.632701  0  0.218064  0.606317  0  4.157892  0
C  C41  1  0.48938995  0.50711022  0.39085438  1  1.68671  0  0.208993  0.584679  0  4.229669  0
C  C42  1  0.05416134  0.36437417  0.51615782  1  0.397175  0  0.121343  0.173112  0  3.732173  0
C  C43  1  0.94929618  0.59072279  0.49584386  1  0.385738  0  0.119434  0.175974  0  3.738601  0
C  C44  1  0.97298752  0.40569059  0.46351762  1  0.204064  0  0.096346  0.018488  0  3.587055  0
C  C45  1  0.03106377  0.54913921  0.54879509  1  0.216521  0  0.097082  0.017396  0  3.576979  0
C  C46  1  0.94877810  0.43461513  0.55494723  1  0.198791  0  0.097475  0.021112  0  3.576678  0
C  C47  1  0.05291198  0.52113487  0.45715505  1  0.219307  0  0.091152  0.010796  0  3.623253  0
C  C48  1  0.56527072  0.59300781  0.12022353  1  1.345071  0  0.244385  0.444546  0  4.099497  0
C  C49  1  0.33593404  0.59641155  0.87932705  1  1.292545  0  0.248699  0.43524  0  4.064538  0
C  C50  1  0.35828791  0.47683103  0.11924417  1  1.351495  0  0.249804  0.448693  0  4.080337  0
C  C51  1  0.54827881  0.66940351  0.87787911  1  1.334853  0  0.247794  0.433741  0  4.076696  0
C  C52  1  0.35482132  0.49942792  0.05715685  1  0.024839  0  0.003603  -0.077371  0  3.939211  0
C  C53  1  0.55072235  0.65200448  0.94045103  1  0.083649  0  0.008166  -0.060233  0  3.968046  0
C  C54  1  0.45824240  0.56174084  0.02867277  1  0.014697  0  0.01177  0.04928  0  3.990018  0
C  C55  1  0.45429665  0.58273402  0.96924427  1  0.016596  0  0.010925  0.045567  0  3.993119  0
C  C56  1  0.56265962  0.60851491  0.05798513  1  0.006684  0  0.005303  -0.069981  0  3.941047  0
C  C57  1  0.34076517  0.55547737  0.93999776  1  0.037788  0  0.009245  -0.064938  0  3.946446  0
C  C58  1  0.24553163  0.46890180  0.02746900  1  0.009555  0  0.026279  -0.036001  0  3.851547  0
C  C59  1  0.64627528  0.70580178  0.97040591  1  -0.040561  0  0.005462  -0.096754  0  3.948962  0
C  C60  1  0.23423728  0.50694566  0.96926379  1  0.010748  0  0.025015  -0.01244  0  3.839343  0
C  C61  1  0.65597413  0.67907293  0.02949095  1  0.05135  0  0.017714  -0.02852  0  3.869768  0
C  C62  1  0.14441011  0.38412974  0.05305565  1  1.60509  0  0.232474  0.580532  0  4.157227  0
C  C63  1  0.73924788  0.79219907  0.94057627  1  1.580329  0  0.25055  0.590669  0  4.131433  0
C  C64  1  0.93661212  0.33308289  0.41431337  1  1.631735  0  0.23865  0.58269  0  4.12194  0
C  C65  1  0.05843096  0.64900534  0.58810456  1  1.631177  0  0.232097  0.569177  0  4.169595  0
C  C66  1  0.89572658  0.36092184  0.60511295  1  1.653402  0  0.229085  0.553012  0  4.191132  0
C  C67  1  0.11530962  0.57915661  0.40490273  1  1.631211  0  0.224023  0.572909  0  4.173789  0
C  C68  1  0.09902554  0.51573689  0.94277801  1  1.620402  0  0.231919  0.580707  0  4.163324  0
C  C69  1  0.77151418  0.72429453  0.05979209  1  1.578505  0  0.242839  0.593555  0  4.138991  0
C  C70  1  0.73388399  0.59384533  0.79026008  1  1.550852  0  0.225442  0.589044  0  4.114674  0
C  C71  1  0.61248526  0.31809849  0.20085147  1  1.561639  0  0.231193  0.584898  0  4.154549  0
C  C72  1  0.27728060  0.41968639  0.68621434  1  1.588442  0  0.241592  0.603287  0  4.125094  0
C  C73  1  0.41500201  0.74601087  0.32057879  1  1.555575  0  0.250322  0.599016  0  4.077543  0
C  C74  1  0.65913904  0.89330082  0.40615718  1  1.523093  0  0.234463  0.587628  0  4.124976  0
C  C75  1  0.37292427  0.08252851  0.59931612  1  1.601714  0  0.217059  0.570034  0  4.170463  0
C  C76  1  0.78252096  0.02992418  0.51427892  1  1.553358  0  0.227716  0.583009  0  4.107779  0
C  C77  1  0.23007380  0.94228206  0.49828623  1  1.571887  0  0.242586  0.610827  0  4.075335  0
N  N78  1  0.46897137  0.52013544  0.14590087  1  -1.214345  0  -0.236802  -0.233521  0  3.626142  0
N  N79  1  0.46786650  0.58710826  0.85152787  1  -1.106663  0  -0.232206  -0.230529  0  3.524523  0
N  N80  1  0.86547486  0.47618799  0.50203469  1  -0.752379  0  -0.262762  -0.207126  0  2.873245  0
N  N81  1  0.13743575  0.48033372  0.50932555  1  -0.760973  0  -0.265828  -0.206995  0  2.886918  0
Cl  Cl82  1  0.12377786  0.22311044  0.53512981  1  -0.08239  0  0.087143  0.060491  0  1.690663  0
Cl  Cl83  1  0.88469258  0.73750298  0.48281944  1  -0.11926  0  0.061329  0.020328  0  1.703723  0
Cl  Cl84  1  0.74497927  0.60304686  0.66491220  1  -0.085907  0  0.05509  0.040326  0  1.875803  0
Cl  Cl85  1  0.61374224  0.28546120  0.32826324  1  -0.161699  0  0.058623  -0.013537  0  1.688664  0
Cl  Cl86  1  0.27697504  0.40620507  0.80791746  1  -0.139446  0  0.049384  0.009375  0  1.643214  0
Cl  Cl87  1  0.32832009  0.73437596  0.19981881  1  -0.168924  0  0.030358  -0.028254  0  1.518614  0
Cl  Cl88  1  0.61250032  0.86418241  0.61103893  1  -0.139436  0  0.015142  -0.036353  0  1.585063  0
Cl  Cl89  1  0.40150883  0.10424237  0.39046639  1  -0.15507  0  0.004139  -0.040194  0  1.561202  0
O  O90  1  0.63338090  0.29531514  0.48810361  1  -1.150306  0  -0.311021  -0.531658  0  2.312058  0
O  O91  1  0.38445053  0.67379820  0.49641963  1  -1.151586  0  -0.300399  -0.517976  0  2.378675  0
O  O92  1  0.41046169  0.30618094  0.50624187  1  -1.158797  0  -0.308792  -0.560144  0  2.415577  0
O  O93  1  0.60711163  0.66451318  0.50843071  1  -1.151566  0  -0.313655  -0.55845  0  2.430164  0
O  O94  1  0.60895331  0.46655227  0.58554065  1  -1.166453  0  -0.30726  -0.546087  0  2.424076  0
O  O95  1  0.38075319  0.48622914  0.41590707  1  -1.146879  0  -0.297531  -0.523522  0  2.306717  0
O  O96  1  0.38540030  0.49276858  0.59277956  1  -1.138318  0  -0.302944  -0.531041  0  2.37585  0
O  O97  1  0.60081647  0.51775705  0.41178096  1  -1.148086  0  -0.307265  -0.540967  0  2.358497  0
O  O98  1  0.64406092  0.64273301  0.14891506  1  -1.096112  0  -0.261203  -0.423406  0  2.117833  0
O  O99  1  0.23765511  0.63913266  0.85562162  1  -1.046049  0  -0.215226  -0.340704  0  2.136712  0
O  O100  1  0.27145331  0.42911487  0.14786040  1  -1.065751  0  -0.238515  -0.378405  0  2.091493  0
O  O101  1  0.60934274  0.74868219  0.85221536  1  -1.054226  0  -0.216493  -0.361514  0  2.166957  0
O  O102  1  0.17445393  0.27336661  0.05411262  1  -1.08635  0  -0.272291  -0.429107  0  2.008517  0
O  O103  1  0.02278499  0.42986899  0.06875206  1  -1.13198  0  -0.328521  -0.474273  0  2.255972  0
O  O104  1  0.85044421  0.75896353  0.92291569  1  -1.11521  0  -0.237656  -0.412577  0  2.183219  0
O  O105  1  0.69899184  0.91280228  0.93852513  1  -1.057767  0  -0.301367  -0.426772  0  2.218408  0
O  O106  1  0.98173303  0.22907511  0.40429312  1  -1.103456  0  -0.266977  -0.44124  0  2.10587  0
O  O107  1  0.84973872  0.40429764  0.38363250  1  -1.129296  0  -0.32443  -0.45725  0  2.348585  0
O  O108  1  0.96647344  0.70270895  0.61380148  1  -1.086735  0  -0.256144  -0.428206  0  2.157447  0
O  O109  1  0.18382018  0.67787349  0.58411673  1  -1.150228  0  -0.326053  -0.48405  0  2.371686  0
O  O110  1  0.93574173  0.36320876  0.65274160  1  -1.086683  0  -0.259971  -0.427622  0  2.1411  0
O  O111  1  0.81441846  0.28280281  0.58467932  1  -1.12969  0  -0.314567  -0.457939  0  2.380489  0
O  O112  1  0.11599677  0.53738852  0.35769481  1  -1.099687  0  -0.28962  -0.461253  0  2.063606  0
O  O113  1  0.16311617  0.68254059  0.42092169  1  -1.151946  0  -0.329959  -0.485129  0  2.382261  0
O  O114  1  0.05616682  0.44563338  0.91007006  1  -1.110372  0  -0.276465  -0.458957  0  2.083881  0
O  O115  1  0.03697878  0.61748459  0.96396267  1  -1.155304  0  -0.33562  -0.501658  0  2.344775  0
O  O116  1  0.87439643  0.66170908  0.06814951  1  -1.134066  0  -0.263785  -0.467803  0  2.164283  0
O  O117  1  0.75246786  0.84562107  0.07041463  1  -1.121376  0  -0.319959  -0.469827  0  2.2167  0
O  O118  1  0.81663769  0.66481879  0.77566230  1  -1.091928  0  -0.264007  -0.433334  0  2.109848  0
O  O119  1  0.75122131  0.50773606  0.83424875  1  -1.129149  0  -0.347254  -0.502933  0  2.202203  0
O  O120  1  0.56324793  0.23871424  0.17531652  1  -1.108938  0  -0.278986  -0.455355  0  2.046239  0
O  O121  1  0.74368149  0.33589401  0.20049901  1  -1.078652  0  -0.324129  -0.470683  0  2.207828  0
O  O122  1  0.27165761  0.31065730  0.67602716  1  -1.121497  0  -0.252235  -0.441922  0  2.208509  0
O  O123  1  0.16849797  0.49767693  0.68245570  1  -1.085809  0  -0.305935  -0.434755  0  2.299351  0
O  O124  1  0.35086584  0.77572215  0.36321561  1  -1.119354  0  -0.235129  -0.401767  0  2.224242  0
O  O125  1  0.48689683  0.83219512  0.29355625  1  -1.08716  0  -0.318344  -0.462749  0  2.266178  0
O  O126  1  0.73863086  0.95968612  0.38121231  1  -1.143888  0  -0.289222  -0.499745  0  2.135915  0
O  O127  1  0.64256998  0.77798890  0.39144040  1  -1.121915  0  -0.304747  -0.438318  0  2.381442  0
O  O128  1  0.27211437  0.04400439  0.62106842  1  -1.108273  0  -0.286973  -0.462915  0  2.103687  0
O  O129  1  0.44393956  0.16904769  0.62014971  1  -1.156251  0  -0.341745  -0.482794  0  2.267568  0
O  O130  1  0.81930631  0.04497690  0.56178483  1  -1.103069  0  -0.261413  -0.439773  0  2.15795  0
O  O131  1  0.86906774  0.02784867  0.46916256  1  -1.145569  0  -0.329917  -0.48735  0  2.341697  0
O  O132  1  0.17163184  0.89118106  0.53794597  1  -1.128862  0  -0.264122  -0.477404  0  2.258539  0
O  O133  1  0.16764239  0.99431783  0.45350719  1  -1.109663  0  -0.320687  -0.471803  0  2.329715  0
