# generated using pymatgen
data_CoH16(C12N5)2
_symmetry_space_group_name_H-M   'P 1'
_cell_length_a   9.35097082
_cell_length_b   16.48776585
_cell_length_c   16.48806468
_cell_angle_alpha   116.48670527
_cell_angle_beta   100.89361788
_cell_angle_gamma   100.90868830
_symmetry_Int_Tables_number   1
_chemical_formula_structural   CoH16(C12N5)2
_chemical_formula_sum   'Co3 H48 C72 N30'
_cell_volume   2123.29748438
_cell_formula_units_Z   3
loop_
 _symmetry_equiv_pos_site_id
 _symmetry_equiv_pos_as_xyz
  1  'x, y, z'
loop_
 _atom_site_type_symbol
 _atom_site_label
 _atom_site_symmetry_multiplicity
 _atom_site_fract_x
 _atom_site_fract_y
 _atom_site_fract_z
 _atom_site_occupancy
 _atom_site_pbe_bader_charge
 _atom_site_pbe_bader_spin_density
 _atom_site_pbe_cm5_charge
 _atom_site_pbe_ddec_charge
 _atom_site_pbe_ddec_spin_density
 _atom_site_pbe_ddec_sum_bond_order
 _atom_site_pbe_magmom
Co  Co0  1  0.99999994  0.49999903  0.50000017  1  1.071597  0.921012  0.698381  0.386043  1.016315  3.273742  0.913
Co  Co1  1  0.50000297  0.50000133  0.00000032  1  1.068848  0.920814  0.700101  0.388503  1.015978  3.273016  0.913
Co  Co2  1  0.50000332  0.00000099  0.50000239  1  1.063374  0.92106  0.697322  0.384588  1.015899  3.273271  0.913
H  H3  1  0.92056237  0.28075936  0.42224399  1  0.160043  0.000354  0.116061  0.081637  -3.4e-05  1.076121  0.0
H  H4  1  0.49851049  0.57771140  0.85857043  1  0.161004  0.000352  0.115036  0.080262  -3.4e-05  1.076546  0.0
H  H5  1  0.63948083  0.14141301  0.71911534  1  0.164939  0.000351  0.115501  0.080239  -3.6e-05  1.07781  0.0
H  H6  1  0.07943810  0.71923701  0.57775361  1  0.160053  0.000354  0.11604  0.081588  -3.4e-05  1.076214  0.0
H  H7  1  0.50148884  0.42228925  0.14142836  1  0.161026  0.000352  0.115034  0.080234  -3.5e-05  1.076539  0.0
H  H8  1  0.36052322  0.85858834  0.28088670  1  0.164957  0.000351  0.115522  0.080266  -3.6e-05  1.077821  0.0
H  H9  1  0.67639410  0.14361106  0.33270973  1  0.08383  0.000238  0.102343  0.107297  0.000126  1.016901  0.0
H  H10  1  0.34391197  0.66715330  0.81076833  1  0.07323  0.000235  0.103215  0.107968  0.000125  1.01691  0.0
H  H11  1  0.53223471  0.18908538  0.85616367  1  0.058599  0.000222  0.103073  0.108113  0.000116  1.016514  0.0
H  H12  1  0.32360346  0.85638602  0.66728788  1  0.083922  0.000238  0.10236  0.107317  0.000126  1.016903  0.0
H  H13  1  0.65609244  0.33284877  0.18923042  1  0.073167  0.000235  0.10326  0.108032  0.000125  1.016838  0.0
H  H14  1  0.46776789  0.81091527  0.14383911  1  0.058641  0.000222  0.103035  0.108049  0.000116  1.016619  0.0
H  H15  1  0.42924248  0.17497545  0.28494670  1  0.064846  -0.000213  0.107619  0.103163  -0.000236  0.984001  0.0
H  H16  1  0.14437078  0.71486965  0.88971364  1  0.057295  -0.000215  0.10824  0.10338  -0.000237  0.984509  0.0
H  H17  1  0.25375540  0.11003129  0.82478685  1  0.060094  -0.000216  0.107196  0.103117  -0.000234  0.984849  0.0
H  H18  1  0.57075688  0.82502306  0.71505599  1  0.064878  -0.000212  0.107657  0.103212  -0.000236  0.984004  0.0
H  H19  1  0.85563219  0.28513171  0.11028404  1  0.057306  -0.000215  0.1082  0.103302  -0.000237  0.98443  0.0
H  H20  1  0.74624609  0.88997150  0.17521555  1  0.06009  -0.000216  0.107158  0.103099  -0.000234  0.984974  0.0
H  H21  1  0.43919453  0.34489537  0.33119154  1  0.102063  0.000238  0.113244  0.126371  0.000153  0.98814  0.0
H  H22  1  0.10797711  0.66879673  0.01354417  1  0.105895  0.000236  0.112716  0.126961  0.000152  0.987203  0.0
H  H23  1  0.09374287  0.98638825  0.65482327  1  0.098219  0.000236  0.112923  0.126594  0.000152  0.98696  0.0
H  H24  1  0.56080194  0.65510170  0.66881324  1  0.102135  0.000238  0.113256  0.126367  0.000153  0.988128  0.0
H  H25  1  0.89202548  0.33120605  0.98645350  1  0.105952  0.000236  0.11271  0.126981  0.000152  0.987171  0.0
H  H26  1  0.90625645  0.01361454  0.34517889  1  0.098293  0.000236  0.112946  0.126646  0.000152  0.987055  0.0
H  H27  1  0.41951764  0.63445228  0.38435005  1  0.09362  0.000949  0.105771  0.117992  0.000367  1.028465  0.001
H  H28  1  0.03580055  0.61580516  0.25033928  1  0.096192  0.000952  0.10651  0.119215  0.000367  1.026752  0.001
H  H29  1  0.78519100  0.74988716  0.36542677  1  0.095247  0.000952  0.1062  0.118083  0.000365  1.028496  0.001
H  H30  1  0.58048496  0.36554836  0.61565272  1  0.0936  0.000949  0.105761  0.118051  0.000367  1.028429  0.001
H  H31  1  0.96419191  0.38419263  0.74965810  1  0.096226  0.000952  0.106526  0.119177  0.000367  1.026759  0.001
H  H32  1  0.21480689  0.25011277  0.63457094  1  0.0953  0.000952  0.106154  0.118058  0.000365  1.028451  0.001
H  H33  1  0.34514057  0.77833827  0.40399585  1  0.110115  0.001878  0.11459  0.084691  0.0006  1.022393  0.001
H  H34  1  0.94196435  0.59619102  0.37467830  1  0.088949  0.001869  0.113409  0.08259  0.0006  1.023768  0.001
H  H35  1  0.56705882  0.62543171  0.22160446  1  0.096609  0.001875  0.114276  0.084175  0.000598  1.024339  0.001
H  H36  1  0.65486459  0.22166095  0.59600414  1  0.110073  0.001879  0.114579  0.084663  0.0006  1.022403  0.001
H  H37  1  0.05803101  0.40380820  0.62532003  1  0.089174  0.00187  0.113408  0.082589  0.0006  1.023768  0.001
H  H38  1  0.43294123  0.37457036  0.77839322  1  0.096659  0.001875  0.114283  0.084172  0.000598  1.024325  0.001
H  H39  1  0.76034500  0.96063825  0.61099314  1  0.081484  0.002  0.112162  0.081204  0.000667  1.021095  0.001
H  H40  1  0.14889203  0.38850119  0.34939849  1  0.083943  0.002  0.113122  0.081355  0.000671  1.021518  0.001
H  H41  1  0.79932000  0.65057347  0.03914792  1  0.081946  0.001996  0.113607  0.081712  0.000668  1.021592  0.001
H  H42  1  0.23966054  0.03935954  0.38900625  1  0.08147  0.002  0.112143  0.081172  0.000667  1.021115  0.001
H  H43  1  0.85110659  0.61149803  0.65059958  1  0.083959  0.002  0.113127  0.081331  0.00067  1.021576  0.001
H  H44  1  0.20067861  0.34942789  0.96085171  1  0.081969  0.001996  0.113614  0.081733  0.000668  1.021582  0.001
H  H45  1  0.85540371  0.82418400  0.59513829  1  0.095057  0.001129  0.106203  0.111999  0.000479  1.013222  0.0
H  H46  1  0.25937062  0.40418221  0.22849498  1  0.080032  0.001141  0.105757  0.112106  0.000482  1.014214  0.0
H  H47  1  0.03068269  0.77149940  0.17555388  1  0.085408  0.001133  0.106864  0.112877  0.00048  1.012154  0.0
H  H48  1  0.14460107  0.17581664  0.40486290  1  0.095103  0.001129  0.106226  0.112088  0.000479  1.013238  0.0
H  H49  1  0.74062508  0.59581986  0.77150406  1  0.080294  0.001141  0.105788  0.112165  0.000482  1.01411  0.0
H  H50  1  0.96931811  0.22849982  0.82444625  1  0.085435  0.001134  0.106869  0.112875  0.00048  1.012083  0.0
C  C51  1  0.81079527  0.29080044  0.39985438  1  0.433836  -0.006698  0.044716  0.086812  -0.007038  3.905222  -0.004
C  C52  1  0.41114621  0.60012695  0.89096830  1  0.430483  -0.006687  0.046505  0.090122  -0.007029  3.904113  -0.004
C  C53  1  0.51965727  0.10901650  0.70904293  1  0.414422  -0.00673  0.046904  0.091478  -0.007053  3.90503  -0.004
C  C54  1  0.18919975  0.70919592  0.60014446  1  0.433632  -0.006699  0.044746  0.086843  -0.007039  3.90515  -0.004
C  C55  1  0.58885675  0.39987441  0.10902937  1  0.432061  -0.006687  0.046452  0.090006  -0.007028  3.904307  -0.004
C  C56  1  0.48034280  0.89098343  0.29095925  1  0.414443  -0.006731  0.046917  0.091489  -0.007054  3.904871  -0.004
C  C57  1  0.67435740  0.21515988  0.34959172  1  -0.042038  0.001075  -0.091838  -0.137313  0.000255  3.991231  0.001
C  C58  1  0.32498224  0.65035671  0.86550180  1  -0.015013  0.001058  -0.094245  -0.140659  0.000241  3.993496  0.001
C  C59  1  0.45871856  0.13438763  0.78462848  1  0.031969  0.001018  -0.095276  -0.141866  0.000214  3.991968  0.001
C  C60  1  0.32564413  0.78483863  0.65040938  1  -0.042194  0.001076  -0.091753  -0.137213  0.000255  3.991137  0.001
C  C61  1  0.67502108  0.34964536  0.13449562  1  -0.016322  0.001058  -0.094307  -0.140715  0.000241  3.993526  0.001
C  C62  1  0.54128296  0.86561301  0.21537297  1  0.032001  0.001017  -0.09524  -0.141752  0.000214  3.991939  0.001
C  C63  1  0.53759805  0.23268332  0.32301449  1  -0.037196  -0.009002  -0.075759  -0.043205  -0.009391  4.01908  -0.005
C  C64  1  0.21470203  0.67689709  0.90949661  1  -0.004743  -0.00896  -0.075037  -0.0406  -0.009363  4.020126  -0.005
C  C65  1  0.30440257  0.09032644  0.76708574  1  -0.020609  -0.008976  -0.074215  -0.041114  -0.009388  4.018509  -0.005
C  C66  1  0.46239950  0.76731376  0.67698676  1  -0.037093  -0.009  -0.075937  -0.043435  -0.009389  4.019406  -0.005
C  C67  1  0.78529873  0.32310641  0.09050117  1  -0.004708  -0.008959  -0.074916  -0.040385  -0.009362  4.020119  -0.005
C  C68  1  0.69560003  0.90967420  0.23291340  1  -0.02058  -0.008977  -0.07421  -0.041202  -0.009389  4.018468  -0.005
C  C69  1  0.54173741  0.32577381  0.34787564  1  0.003898  0.001348  -0.080979  -0.152761  0.000432  3.954869  0.001
C  C70  1  0.19391609  0.65211646  0.97779890  1  -0.070657  0.001318  -0.080962  -0.155571  0.00043  3.953451  0.001
C  C71  1  0.21547179  0.02214380  0.67399107  1  -0.029218  0.001284  -0.082936  -0.156235  0.000406  3.953157  0.001
C  C72  1  0.45826012  0.67422541  0.65212717  1  0.003664  0.001347  -0.080938  -0.152679  0.000432  3.954923  0.001
C  C73  1  0.80608469  0.34788489  0.02219976  1  -0.070221  0.001319  -0.081006  -0.155706  0.000429  3.953565  0.001
C  C74  1  0.78453477  0.97786041  0.32601251  1  -0.029859  0.001283  -0.082913  -0.156214  0.000406  3.953029  0.001
C  C75  1  0.68209228  0.39818905  0.39845415  1  0.456429  -0.006762  0.122484  0.155993  -0.007258  3.997573  -0.004
C  C76  1  0.28368795  0.60158062  0.99974689  1  0.461591  -0.006785  0.122776  0.15923  -0.007265  3.996726  -0.004
C  C77  1  0.28352611  0.00031143  0.60162621  1  0.502441  -0.00676  0.122999  0.160412  -0.007287  3.997847  -0.004
C  C78  1  0.31790525  0.60181016  0.60154866  1  0.456764  -0.00676  0.122513  0.156052  -0.007257  3.997468  -0.004
C  C79  1  0.71631357  0.39842003  0.00025031  1  0.460924  -0.006786  0.122802  0.159306  -0.007266  3.996597  -0.004
C  C80  1  0.71647721  0.99969063  0.39837728  1  0.502814  -0.006759  0.122979  0.160454  -0.007286  3.997893  -0.004
C  C81  1  0.70256014  0.49773894  0.43215784  1  0.968544  -0.003686  0.199427  0.207068  -0.004296  4.108625  -0.003
C  C82  1  0.27036552  0.56783278  0.06557110  1  0.972321  -0.003688  0.196998  0.202328  -0.004296  4.110247  -0.003
C  C83  1  0.20454847  0.93453610  0.50209354  1  0.93232  -0.003788  0.198697  0.202758  -0.00436  4.107478  -0.003
C  C84  1  0.29743668  0.50225885  0.56784487  1  0.968541  -0.003685  0.199436  0.207072  -0.004294  4.108581  -0.003
C  C85  1  0.72963018  0.43216929  0.93442794  1  0.971662  -0.003689  0.196981  0.202266  -0.004296  4.110161  -0.003
C  C86  1  0.79545089  0.06546241  0.49790490  1  0.93227  -0.00379  0.19873  0.202708  -0.004363  4.107481  -0.003
C  C87  1  0.69518244  0.63648843  0.47555248  1  0.900384  -0.001432  0.19466  0.234455  -0.001872  4.098406  -0.001
C  C88  1  0.21937670  0.52422849  0.16079144  1  0.935261  -0.00141  0.193125  0.231293  -0.001863  4.099123  -0.001
C  C89  1  0.05844914  0.83932068  0.36331632  1  0.948827  -0.001385  0.194446  0.233868  -0.001841  4.099129  -0.001
C  C90  1  0.30481839  0.36350864  0.52444973  1  0.900352  -0.001432  0.194621  0.234463  -0.001873  4.098562  -0.001
C  C91  1  0.78062082  0.47577287  0.83920626  1  0.935853  -0.001409  0.193198  0.231556  -0.001863  4.098938  -0.001
C  C92  1  0.94155311  0.16067925  0.63668429  1  0.948776  -0.001385  0.194471  0.233875  -0.001841  4.099327  -0.001
C  C93  1  0.64418592  0.71788792  0.48822233  1  -0.103906  -0.002867  0.009111  0.067598  -0.003037  4.025336  -0.002
C  C94  1  0.15575176  0.51149542  0.22951965  1  -0.012463  -0.0029  0.012931  0.071132  -0.003076  4.02228  -0.002
C  C95  1  0.92608303  0.77058810  0.28191622  1  -0.073142  -0.002826  0.009284  0.069006  -0.002988  4.025266  -0.002
C  C96  1  0.35581594  0.28211557  0.51178225  1  -0.103873  -0.002867  0.009218  0.067727  -0.003037  4.025092  -0.002
C  C97  1  0.84424140  0.48850594  0.77048001  1  -0.012556  -0.002901  0.012928  0.071009  -0.003077  4.022308  -0.002
C  C98  1  0.07391957  0.22941254  0.71808473  1  -0.073569  -0.002827  0.009288  0.069081  -0.00299  4.025247  -0.002
C  C99  1  0.49795893  0.70583306  0.43489774  1  -0.003075  0.003503  -0.084155  -0.160005  0.001726  3.927658  0.003
C  C100  1  0.06334465  0.56506742  0.27102523  1  -0.015709  0.003428  -0.087752  -0.1637  0.001742  3.929353  0.003
C  C101  1  0.79210305  0.72912240  0.29401712  1  -0.011894  0.003459  -0.084093  -0.159637  0.001757  3.927203  0.003
C  C102  1  0.50204551  0.29416473  0.56510578  1  -0.003022  0.003502  -0.084144  -0.160073  0.001726  3.927702  0.003
C  C103  1  0.93665324  0.43493251  0.72897248  1  -0.015685  0.003428  -0.087744  -0.163506  0.001742  3.929238  0.003
C  C104  1  0.20789773  0.27087896  0.70598275  1  -0.01167  0.003459  -0.084044  -0.159631  0.001757  3.927191  0.003
C  C105  1  0.45648939  0.78587567  0.44654570  1  0.512047  -0.00102  0.039719  0.083546  -0.001876  3.95596  -0.001
C  C106  1  0.01040265  0.55347184  0.33950747  1  0.443339  -0.000911  0.043135  0.08806  -0.001918  3.955213  -0.001
C  C107  1  0.67065257  0.66059576  0.21401661  1  0.445069  -0.000848  0.039893  0.083788  -0.001846  3.956032  -0.001
C  C108  1  0.54351179  0.21412212  0.55345383  1  0.511987  -0.001019  0.03971  0.083539  -0.001876  3.956187  -0.001
C  C109  1  0.98959380  0.44652737  0.66049158  1  0.443096  -0.000911  0.043112  0.087959  -0.001918  3.955301  -0.001
C  C110  1  0.32934241  0.33940488  0.78598110  1  0.444997  -0.000848  0.039856  0.083767  -0.001846  3.95614  -0.001
C  C111  1  0.68821698  0.88721099  0.56117242  1  0.530658  -0.000262  0.037248  0.077959  -0.001238  3.978538  0.0
C  C112  1  0.12682110  0.43845782  0.32587655  1  0.470051  -0.000178  0.034579  0.076862  -0.001258  3.980979  0.0
C  C113  1  0.80075712  0.67414005  0.11259010  1  0.457686  -0.000137  0.034716  0.07696  -0.001253  3.981048  0.0
C  C114  1  0.31178673  0.11278752  0.43882770  1  0.530653  -0.000261  0.037245  0.078009  -0.001237  3.978589  0.0
C  C115  1  0.87317497  0.56154282  0.67412371  1  0.469866  -0.000178  0.034562  0.076944  -0.001258  3.980944  0.0
C  C116  1  0.19924040  0.32586130  0.88740821  1  0.457513  -0.000135  0.034723  0.076901  -0.001254  3.981086  0.0
C  C117  1  0.74043460  0.81151386  0.55299360  1  -0.04762  0.002954  -0.087723  -0.177548  0.001509  3.984501  0.002
C  C118  1  0.18695560  0.44653789  0.25821391  1  -0.007738  0.002897  -0.087082  -0.177292  0.001518  3.983722  0.002
C  C119  1  0.92856285  0.74181975  0.18826354  1  0.034038  0.002867  -0.088071  -0.179201  0.001524  3.984863  0.002
C  C120  1  0.25956442  0.18848180  0.44700535  1  -0.047572  0.002953  -0.087832  -0.177841  0.001508  3.984473  0.002
C  C121  1  0.81304085  0.55346132  0.74178393  1  -0.007906  0.002897  -0.08717  -0.177467  0.001518  3.983863  0.002
C  C122  1  0.07144120  0.25818161  0.81173668  1  0.034055  0.002866  -0.088073  -0.179203  0.001524  3.984962  0.002
N  N123  1  0.81636597  0.38122408  0.42419465  1  -1.161227  0.005322  -0.312343  -0.19637  0.003053  3.538094  0.007
N  N124  1  0.39225705  0.57583059  0.95708694  1  -1.151176  0.00517  -0.312721  -0.199499  0.002998  3.541192  0.007
N  N125  1  0.43484034  0.04294776  0.61862742  1  -1.165547  0.005102  -0.311006  -0.198698  0.002951  3.538661  0.007
N  N126  1  0.18363594  0.61877300  0.57580646  1  -1.161168  0.005323  -0.312369  -0.196358  0.003053  3.538144  0.007
N  N127  1  0.60774229  0.42417005  0.04291185  1  -1.151287  0.005169  -0.312696  -0.199436  0.002997  3.541362  0.007
N  N128  1  0.56516262  0.95705360  0.38137511  1  -1.16542  0.005102  -0.311032  -0.198768  0.002952  3.538505  0.007
N  N129  1  0.84724382  0.55762799  0.48636160  1  -0.702774  -0.010244  -0.261502  -0.161116  -0.009315  3.706929  -0.006
N  N130  1  0.36076633  0.51356356  0.07121865  1  -0.693021  -0.010174  -0.261646  -0.160357  -0.009265  3.705353  -0.006
N  N131  1  0.28946200  0.92879788  0.44224459  1  -0.721544  -0.010172  -0.261466  -0.159825  -0.009245  3.703725  -0.006
N  N132  1  0.15275809  0.44236908  0.51364072  1  -0.702932  -0.010244  -0.26148  -0.161122  -0.009316  3.707012  -0.006
N  N133  1  0.63923446  0.48643780  0.92878001  1  -0.692598  -0.010173  -0.261642  -0.160313  -0.009264  3.705487  -0.006
N  N134  1  0.71053916  0.07120205  0.55775832  1  -0.721494  -0.010173  -0.261499  -0.159806  -0.009246  3.703808  -0.006
N  N135  1  0.84363752  0.64704559  0.51530308  1  -0.661287  -0.007294  -0.224859  -0.26469  -0.007579  3.213747  -0.006
N  N136  1  0.32807062  0.48450216  0.13160568  1  -0.670179  -0.007297  -0.224608  -0.263448  -0.007571  3.214669  -0.006
N  N137  1  0.19646841  0.86842764  0.35282589  1  -0.659816  -0.007221  -0.225345  -0.264092  -0.007492  3.213089  -0.006
N  N138  1  0.15636401  0.35295291  0.48469863  1  -0.66119  -0.007294  -0.224844  -0.264646  -0.007578  3.213745  -0.006
N  N139  1  0.67192763  0.51549849  0.86839299  1  -0.670147  -0.007297  -0.224687  -0.263635  -0.007571  3.214737  -0.006
N  N140  1  0.80353493  0.13157228  0.64717604  1  -0.659835  -0.007224  -0.225378  -0.264147  -0.007495  3.213298  -0.006
N  N141  1  0.60332721  0.54433395  0.42292648  1  -1.156427  -0.002037  -0.341026  -0.408007  -0.001889  3.161316  -0.001
N  N142  1  0.18027115  0.57697491  0.12134631  1  -1.158605  -0.002055  -0.339535  -0.40473  -0.001906  3.16069  -0.001
N  N143  1  0.05864206  0.87881297  0.45544586  1  -1.16439  -0.002109  -0.340036  -0.40604  -0.001963  3.161465  -0.001
N  N144  1  0.39667359  0.45566526  0.57707850  1  -1.156387  -0.002036  -0.340994  -0.408035  -0.001888  3.161274  -0.001
N  N145  1  0.81972819  0.42302573  0.87865127  1  -1.158949  -0.002055  -0.33956  -0.404817  -0.001906  3.160484  -0.001
N  N146  1  0.94135981  0.12118838  0.54455594  1  -1.164357  -0.00211  -0.340055  -0.406031  -0.001964  3.161548  -0.001
N  N147  1  0.54917405  0.87574120  0.50836002  1  -1.217989  0.070105  -0.314401  -0.219647  0.037669  3.518728  0.061
N  N148  1  0.04105186  0.49150965  0.36742146  1  -1.191241  0.07003  -0.31441  -0.221123  0.037693  3.518838  0.061
N  N149  1  0.67342126  0.63261290  0.12414782  1  -1.195933  0.070226  -0.312851  -0.219029  0.037751  3.51546  0.061
N  N150  1  0.45083109  0.12426015  0.49164153  1  -1.218065  0.070106  -0.314416  -0.219609  0.03767  3.51874  0.061
N  N151  1  0.95894532  0.50848885  0.63257735  1  -1.191198  0.070034  -0.314346  -0.221062  0.037695  3.518753  0.061
N  N152  1  0.32657697  0.36738988  0.87585120  1  -1.19567  0.070225  -0.312841  -0.218967  0.037752  3.515281  0.061
