# generated using pymatgen
data_KH30C19(NO3)3
_symmetry_space_group_name_H-M   'P 1'
_cell_length_a   8.03463686
_cell_length_b   9.87531504
_cell_length_c   15.17500000
_cell_angle_alpha   90.00000000
_cell_angle_beta   90.00000000
_cell_angle_gamma   101.80754198
_symmetry_Int_Tables_number   1
_chemical_formula_structural   KH30C19(NO3)3
_chemical_formula_sum   'K2 H60 C38 N6 O18'
_cell_volume   1178.57662966
_cell_formula_units_Z   2
loop_
 _symmetry_equiv_pos_site_id
 _symmetry_equiv_pos_as_xyz
  1  'x, y, z'
loop_
 _atom_site_type_symbol
 _atom_site_label
 _atom_site_symmetry_multiplicity
 _atom_site_fract_x
 _atom_site_fract_y
 _atom_site_fract_z
 _atom_site_occupancy
 _atom_site_hle17_bader_spin_density
 _atom_site_hle17_ddec_charge
 _atom_site_hle17_ddec_spin_density
 _atom_site_hle17_ddec_sum_bond_order
 _atom_site_hle17_magmom
 _atom_site_hse06_10hf_bader_spin_density
 _atom_site_hse06_10hf_ddec_charge
 _atom_site_hse06_10hf_ddec_spin_density
 _atom_site_hse06_10hf_ddec_sum_bond_order
 _atom_site_hse06_10hf_magmom
 _atom_site_hse06_bader_spin_density
 _atom_site_hse06_ddec_charge
 _atom_site_hse06_ddec_spin_density
 _atom_site_hse06_ddec_sum_bond_order
 _atom_site_hse06_magmom
 _atom_site_pbe_bader_charge
 _atom_site_pbe_bader_spin_density
 _atom_site_pbe_cm5_charge
 _atom_site_pbe_ddec_charge
 _atom_site_pbe_ddec_spin_density
 _atom_site_pbe_ddec_sum_bond_order
 _atom_site_pbe_magmom
K  K0  1  0.87649001  0.05838911  0.85627216  1  0  0.904984  0  0.523943  0  0  0.834553  0  0.726327  0  0  0.852266  0  0.702243  0  0.883091  0  0.84114  0.821763  0  0.743029  0
K  K1  1  0.12351058  0.94160904  0.35627216  1  0  0.904984  0  0.523939  0  0  0.834559  0  0.72632  0  0  0.852272  0  0.702234  0  0.883089  0  0.841141  0.82177  0  0.743021  0
H  H2  1  0.19283970  0.71685634  0.89660362  1  0  0.062591  0  0.966824  0  0  0.076283  0  1.032542  0  0  0.076387  0  1.033138  0  0.104046  0  0.099298  0.076168  0  1.032129  0
H  H3  1  0.80716167  0.28314490  0.39660231  1  0  0.062546  0  0.966812  0  0  0.0763  0  1.032476  0  0  0.076407  0  1.033069  0  0.103853  0  0.099296  0.076176  0  1.03207  0
H  H4  1  0.00082593  0.74517725  0.94730939  1  0  0.043637  0  0.928958  0  0  0.052731  0  1.004412  0  0  0.05358  0  1.003195  0  0.041689  0  0.093487  0.051966  0  1.005507  0
H  H5  1  0.99917545  0.25482400  0.44730939  1  0  0.043614  0  0.928932  0  0  0.052716  0  1.004386  0  0  0.053565  0  1.00317  0  0.041681  0  0.093486  0.051944  0  1.005487  0
H  H6  1  0.07540127  0.75416202  0.74847381  1  0  0.042687  0  0.929875  0  0  0.060282  0  0.993142  0  0  0.060698  0  0.992346  0  0.028011  0  0.098422  0.059898  0  0.993745  0
H  H7  1  0.92460357  0.24583820  0.24847183  1  0  0.042695  0  0.929854  0  0  0.06027  0  0.993165  0  0  0.060686  0  0.992368  0  0.028023  0  0.098429  0.059884  0  0.993769  0
H  H8  1  0.95634208  0.60920463  0.80675783  1  0  0.048103  0  0.945493  0  0  0.064969  0  1.010699  0  0  0.064404  0  1.011596  0  0.00178  0  0.101137  0.065386  0  1.009986  0
H  H9  1  0.04365981  0.39079869  0.30675717  1  0  0.048087  0  0.945439  0  0  0.064959  0  1.01066  0  0  0.064394  0  1.011557  0  0.001758  0  0.101129  0.065378  0  1.009948  0
H  H10  1  0.69824139  0.62530997  0.72270708  1  0  0.050675  0  0.93001  0  0  0.065154  0  0.997182  0  0  0.065071  0  0.997272  0  0.041879  0  0.099906  0.064868  0  0.997672  0
H  H11  1  0.30176149  0.37469231  0.22270577  1  0  0.050636  0  0.929937  0  0  0.065092  0  0.997147  0  0  0.065006  0  0.997235  0  0.041655  0  0.099902  0.064807  0  0.997637  0
H  H12  1  0.82544994  0.76560273  0.66297792  1  0  0.04914  0  0.932868  0  0  0.064548  0  0.998885  0  0  0.06477  0  0.998748  0  0.039449  0  0.100155  0.064279  0  0.999056  0
H  H13  1  0.17454770  0.23439852  0.16297858  1  0  0.049093  0  0.932913  0  0  0.064512  0  0.998911  0  0  0.064731  0  0.998774  0  0.03943  0  0.100145  0.064243  0  0.999083  0
H  H14  1  0.51699052  0.76828523  0.66210016  1  0  0.06296  0  0.936338  0  0  0.076229  0  1.003497  0  0  0.076971  0  1.002272  0  0.065778  0  0.100383  0.07567  0  1.004337  0
H  H15  1  0.48300934  0.23171499  0.16209951  1  0  0.062935  0  0.936386  0  0  0.076193  0  1.003552  0  0  0.076936  0  1.002326  0  0.065745  0  0.100369  0.075634  0  1.004393  0
H  H16  1  0.51821572  0.78321743  0.77975288  1  0  0.063799  0  0.941301  0  0  0.076304  0  1.00703  0  0  0.07708  0  1.006417  0  0.079512  0  0.102828  0.075709  0  1.007487  0
H  H17  1  0.48178290  0.21678279  0.27975157  1  0  0.063813  0  0.941272  0  0  0.076307  0  1.007011  0  0  0.077087  0  1.006397  0  0.079559  0  0.102826  0.075712  0  1.007467  0
H  H18  1  0.46492246  0.00678125  0.63694563  1  0  0.052924  0  0.939825  0  0  0.068747  0  1.003931  0  0  0.068434  0  1.004788  0  0.049242  0  0.09967  0.068864  0  1.003435  0
H  H19  1  0.53507492  0.99321896  0.13694432  1  0  0.052949  0  0.939717  0  0  0.068744  0  1.00387  0  0  0.068416  0  1.004742  0  0.049223  0  0.09967  0.068865  0  1.00337  0
H  H20  1  0.42116203  0.99069578  0.75276310  1  0  0.059786  0  0.917467  0  0  0.074022  0  0.981759  0  0  0.075153  0  0.9805  0  0.055443  0  0.105145  0.073065  0  0.982826  0
H  H21  1  0.57883483  0.00930237  0.25276112  1  0  0.059765  0  0.917454  0  0  0.07398  0  0.981778  0  0  0.075111  0  0.980519  0  0.055042  0  0.105132  0.073024  0  0.982844  0
H  H22  1  0.70204675  0.21419960  0.67186689  1  0  0.057384  0  0.917127  0  0  0.070995  0  0.981498  0  0  0.072147  0  0.979933  0  0.057113  0  0.102936  0.069972  0  0.982886  0
H  H23  1  0.29795135  0.78579854  0.17186425  1  0  0.057373  0  0.917046  0  0  0.070999  0  0.981417  0  0  0.07215  0  0.979853  0  0.057046  0  0.102944  0.069977  0  0.982806  0
H  H24  1  0.49036530  0.23622444  0.69338913  1  0  0.041231  0  0.965434  0  0  0.051603  0  1.038749  0  0  0.050613  0  1.040504  0  0.035751  0  0.094525  0.052234  0  1.037766  0
H  H25  1  0.50963333  0.76377577  0.19338649  1  0  0.041165  0  0.9655  0  0  0.051579  0  1.03879  0  0  0.05059  0  1.040539  0  0.035843  0  0.094507  0.05221  0  1.037807  0
H  H26  1  0.56603900  0.40279286  0.81734827  1  0  0.058967  0  0.923621  0  0  0.072575  0  0.989664  0  0  0.072745  0  0.989641  0  0.056953  0  0.100676  0.072221  0  0.989982  0
H  H27  1  0.43395636  0.59720425  0.31734563  1  0  0.05898  0  0.923629  0  0  0.07255  0  0.989709  0  0  0.072718  0  0.989687  0  0.056977  0  0.100661  0.072196  0  0.990027  0
H  H28  1  0.76945066  0.40401463  0.76828534  1  0  0.046584  0  0.931141  0  0  0.060002  0  1.000666  0  0  0.060791  0  0.999131  0  0.032488  0  0.100071  0.059044  0  1.002392  0
H  H29  1  0.23054469  0.59598248  0.26828336  1  0  0.046513  0  0.931162  0  0  0.059932  0  1.00067  0  0  0.060721  0  0.999134  0  0.032256  0  0.100062  0.058975  0  1.002394  0
H  H30  1  0.77904506  0.49348576  0.92453641  1  0  0.052586  0  0.936602  0  0  0.066906  0  1.005008  0  0  0.06619  0  1.006299  0  0.041055  0  0.098565  0.06733  0  1.004144  0
H  H31  1  0.22095030  0.50651135  0.42453377  1  0  0.052513  0  0.93661  0  0  0.066857  0  1.005009  0  0  0.066141  0  1.006299  0  0.041047  0  0.098572  0.067282  0  1.004144  0
H  H32  1  0.68163600  0.32506866  0.96128830  1  0  0.064214  0  0.926258  0  0  0.077457  0  0.991568  0  0  0.078521  0  0.990268  0  0.051397  0  0.10455  0.076514  0  0.992717  0
H  H33  1  0.31836407  0.67492742  0.46128567  1  0  0.064176  0  0.926233  0  0  0.077415  0  0.991564  0  0  0.078481  0  0.990259  0  0.051468  0  0.10455  0.076473  0  0.992713  0
H  H34  1  0.95237218  0.32256306  0.04139967  1  0  0.044337  0  0.923075  0  0  0.060371  0  0.988198  0  0  0.061092  0  0.986825  0  0.029917  0  0.098436  0.059634  0  0.989349  0
H  H35  1  0.04762697  0.67743922  0.54139835  1  0  0.044341  0  0.923134  0  0  0.060392  0  0.988208  0  0  0.06109  0  0.986854  0  0.03001  0  0.098424  0.059653  0  0.989361  0
H  H36  1  0.05194463  0.48637553  0.99562306  1  0  0.048632  0  0.917682  0  0  0.06625  0  0.978155  0  0  0.066193  0  0.978122  0  0.041575  0  0.09926  0.066022  0  0.97846  0
H  H37  1  0.94805451  0.51362675  0.49562306  1  0  0.048681  0  0.917671  0  0  0.066245  0  0.978177  0  0  0.066189  0  0.97814  0  0.041609  0  0.09926  0.066017  0  0.978482  0
H  H38  1  0.24566992  0.36269400  0.90814827  1  0  0.06496  0  0.927652  0  0  0.078462  0  0.992661  0  0  0.078878  0  0.99245  0  0.060885  0  0.103537  0.078041  0  0.992934  0
H  H39  1  0.75432870  0.63730622  0.40814761  1  0  0.064936  0  0.927638  0  0  0.078458  0  0.992664  0  0  0.078872  0  0.992454  0  0.06087  0  0.103539  0.078036  0  0.992938  0
H  H40  1  0.27900846  0.36730277  0.02392290  1  0  0.061957  0  0.944053  0  0  0.073601  0  1.012909  0  0  0.074116  0  1.012577  0  0.089178  0  0.098361  0.073083  0  1.013329  0
H  H41  1  0.72099218  0.63270055  0.52392290  1  0  0.061938  0  0.944014  0  0  0.073598  0  1.012895  0  0  0.074111  0  1.012561  0  0.089245  0  0.098356  0.073081  0  1.013314  0
H  H42  1  0.35761004  0.15961855  0.89181944  1  0  0.059389  0  0.93222  0  0  0.071012  0  0.998349  0  0  0.072535  0  0.996694  0  0.064809  0  0.103595  0.069815  0  0.999642  0
H  H43  1  0.64239133  0.84038270  0.39181680  1  0  0.059324  0  0.932312  0  0  0.070963  0  0.998397  0  0  0.072487  0  0.996741  0  0.064751  0  0.103584  0.069765  0  0.999688  0
H  H44  1  0.40057562  0.15953578  0.00709390  1  0  0.05866  0  0.9142  0  0  0.075898  0  0.97457  0  0  0.076067  0  0.974156  0  0.048217  0  0.104744  0.075629  0  0.975104  0
H  H45  1  0.59942576  0.84046546  0.50709127  1  0  0.058672  0  0.914239  0  0  0.075869  0  0.974608  0  0  0.076037  0  0.974195  0  0.048243  0  0.104762  0.075604  0  0.975138  0
H  H46  1  0.37835701  0.92745997  0.95314926  1  0  0.071075  0  0.93525  0  0  0.084548  0  0.999434  0  0  0.085097  0  0.999169  0  0.091455  0  0.105685  0.084056  0  0.999667  0
H  H47  1  0.62164561  0.07254128  0.45314662  1  0  0.071093  0  0.935208  0  0  0.084557  0  0.999411  0  0  0.085111  0  0.999151  0  0.091448  0  0.105688  0.084064  0  0.999648  0
H  H48  1  0.19698522  0.93026764  0.02114926  1  0  0.051238  0  0.925415  0  0  0.06727  0  0.988462  0  0  0.067727  0  0.987729  0  0.030411  0  0.100376  0.066737  0  0.989211  0
H  H49  1  0.80301340  0.06973257  0.52114662  1  0  0.05122  0  0.9255  0  0  0.067257  0  0.988535  0  0  0.067721  0  0.987808  0  0.030454  0  0.100375  0.066727  0  0.98928  0
H  H50  1  0.09929799  0.43150792  0.76035848  1  0  0.111654  0  0.973943  0  0  0.124759  0  1.045579  0  0  0.127673  0  1.042818  0  0.131926  0  0.109501  0.122591  0  1.047617  0
H  H51  1  0.90070410  0.56849126  0.26035914  1  0  0.111625  0  0.973901  0  0  0.124735  0  1.045542  0  0  0.12765  0  1.042781  0  0.131916  0  0.1095  0.122568  0  1.047579  0
H  H52  1  0.15021006  0.56154966  0.67579110  1  0  0.084875  0  0.950544  0  0  0.102469  0  1.020873  0  0  0.103326  0  1.020045  0  0.034798  0  0.096802  0.101852  0  1.02136  0
H  H53  1  0.84978955  0.43844952  0.17579242  1  0  0.084859  0  0.950548  0  0  0.102455  0  1.020876  0  0  0.103313  0  1.020048  0  0.034842  0  0.096798  0.101838  0  1.021363  0
H  H54  1  0.31040679  0.53141835  0.74991104  1  0  0.111421  0  0.956095  0  0  0.127889  0  1.024376  0  0  0.129405  0  1.022972  0  0.113305  0  0.10382  0.126625  0  1.025585  0
H  H55  1  0.68959582  0.46858290  0.24991104  1  0  0.11141  0  0.956102  0  0  0.127875  0  1.024382  0  0  0.129391  0  1.022979  0  0.113319  0  0.103823  0.126611  0  1.025591  0
H  H56  1  0.10803371  0.98106444  0.69727644  1  0  0.099434  0  0.957595  0  0  0.114469  0  1.029603  0  0  0.11609  0  1.028331  0  0.080025  0  0.109712  0.113105  0  1.030702  0
H  H57  1  0.89196118  0.01893578  0.19727644  1  0  0.099405  0  0.957635  0  0  0.114402  0  1.029655  0  0  0.116023  0  1.028384  0  0.080014  0  0.109698  0.113043  0  1.030746  0
H  H58  1  0.17910903  0.93371258  0.59113806  1  0  0.101896  0  0.95636  0  0  0.118318  0  1.025264  0  0  0.120824  0  1.022371  0  0.082784  0  0.109538  0.116472  0  1.027346  0
H  H59  1  0.82088658  0.06628557  0.09113740  1  0  0.101905  0  0.956327  0  0  0.118312  0  1.025244  0  0  0.120821  0  1.022348  0  0.082734  0  0.109527  0.116466  0  1.027328  0
H  H60  1  0.97459367  0.97455423  0.60285404  1  0  0.103717  0  0.962451  0  0  0.116423  0  1.038061  0  0  0.118607  0  1.035525  0  0.078701  0  0.106131  0.114675  0  1.039953  0
H  H61  1  0.02540299  0.02544805  0.10285404  1  0  0.103733  0  0.962406  0  0  0.116429  0  1.038015  0  0  0.118612  0  1.03548  0  0.078747  0  0.106137  0.114683  0  1.03991  0
C  C62  1  0.08647696  0.77127912  0.88980824  1  0  0.048254  0  3.677474  0  0  -0.009771  0  3.951318  0  0  -0.003793  0  3.957395  0  0.393074  0  -0.078966  -0.013823  0  3.947166  0
C  C63  1  0.91352618  0.22872420  0.38980692  1  0  0.048392  0  3.677286  0  0  -0.009658  0  3.951112  0  0  -0.003679  0  3.957186  0  0.393232  0  -0.078895  -0.013698  0  3.946964  0
C  C64  1  0.99153122  0.72337690  0.80608830  1  0  0.06487  0  3.684755  0  0  0.00616  0  3.954315  0  0  0.012395  0  3.961307  0  0.486644  0  -0.072411  0.002  0  3.949428  0
C  C65  1  0.00847140  0.27662435  0.30608633  1  0  0.06489  0  3.684577  0  0  0.006148  0  3.954215  0  0  0.012388  0  3.961208  0  0.486592  0  -0.072435  0.001988  0  3.949328  0
C  C66  1  0.74595484  0.73845703  0.72245997  1  0  0.06996  0  3.66104  0  0  0.010301  0  3.934147  0  0  0.01665  0  3.940709  0  0.436622  0  -0.071718  0.006248  0  3.929423  0
C  C67  1  0.25404575  0.26154111  0.22245865  1  0  0.070118  0  3.660938  0  0  0.010472  0  3.934034  0  0  0.016838  0  3.940583  0  0.436801  0  -0.071677  0.006414  0  3.929315  0
C  C68  1  0.59595383  0.80829616  0.71971203  1  0  0.042533  0  3.668022  0  0  -0.016583  0  3.941092  0  0  -0.010621  0  3.946925  0  0.417978  0  -0.078979  -0.020558  0  3.936861  0
C  C69  1  0.40404650  0.19170095  0.21970939  1  0  0.042534  0  3.668022  0  0  -0.01653  0  3.94104  0  0  -0.010573  0  3.946873  0  0.418054  0  -0.078947  -0.020506  0  3.936812  0
C  C70  1  0.52168329  0.02670603  0.70325601  1  0  0.053645  0  3.672307  0  0  -0.005395  0  3.946623  0  0  0.000345  0  3.953132  0  0.441714  0  -0.077139  -0.009042  0  3.94179  0
C  C71  1  0.47831507  0.97329315  0.20325470  1  0  0.053667  0  3.672247  0  0  -0.005334  0  3.94658  0  0  0.000414  0  3.953086  0  0.442172  0  -0.077129  -0.008984  0  3.941748  0
C  C72  1  0.58904339  0.17993437  0.71407710  1  0  0.059604  0  3.674576  0  0  0.000624  0  3.9504  0  0  0.007233  0  3.956587  0  0.430277  0  -0.077019  -0.003788  0  3.945965  0
C  C73  1  0.41095347  0.82006378  0.21407446  1  0  0.059672  0  3.674528  0  0  0.000622  0  3.95038  0  0  0.007237  0  3.956554  0  0.430213  0  -0.077001  -0.00379  0  3.945947  0
C  C74  1  0.67948635  0.35557653  0.81989127  1  0  0.060187  0  3.67153  0  0  -0.000797  0  3.950008  0  0  0.005601  0  3.955967  0  0.431753  0  -0.072955  -0.005246  0  3.946091  0
C  C75  1  0.32051051  0.64442162  0.31988797  1  0  0.060187  0  3.671552  0  0  -0.00076  0  3.950023  0  0  0.005637  0  3.955983  0  0.431949  0  -0.072938  -0.005211  0  3.946107  0
C  C76  1  0.76273639  0.38212324  0.90908600  1  0  0.049737  0  3.669618  0  0  -0.010774  0  3.944376  0  0  -0.00457  0  3.950867  0  0.446443  0  -0.07726  -0.014961  0  3.939797  0
C  C77  1  0.23726171  0.61787491  0.40908336  1  0  0.049951  0  3.669355  0  0  -0.010598  0  3.944111  0  0  -0.00439  0  3.950599  0  0.446418  0  -0.077278  -0.014781  0  3.939534  0
C  C78  1  0.02309511  0.37344365  0.98361318  1  0  0.072546  0  3.675359  0  0  0.012232  0  3.949113  0  0  0.01878  0  3.955581  0  0.433394  0  -0.069638  0.007972  0  3.944507  0
C  C79  1  0.97690627  0.62655760  0.48361252  1  0  0.072431  0  3.675528  0  0  0.012197  0  3.949183  0  0  0.018763  0  3.955653  0  0.433186  0  -0.06964  0.007942  0  3.944577  0
C  C80  1  0.18761900  0.32432277  0.97168303  1  0  0.041466  0  3.669704  0  0  -0.016461  0  3.945063  0  0  -0.010699  0  3.95155  0  0.422952  0  -0.078487  -0.020317  0  3.940496  0
C  C81  1  0.81238087  0.67567744  0.47168237  1  0  0.041601  0  3.669519  0  0  -0.016449  0  3.945014  0  0  -0.010681  0  3.951493  0  0.422905  0  -0.078492  -0.020306  0  3.940445  0
C  C82  1  0.30281221  0.12286427  0.95641252  1  0  0.062344  0  3.660557  0  0  0.004925  0  3.936214  0  0  0.01125  0  3.941452  0  0.385847  0  -0.070838  0.000755  0  3.932392  0
C  C83  1  0.69718719  0.87713905  0.45640923  1  0  0.062362  0  3.660635  0  0  0.005038  0  3.936113  0  0  0.01138  0  3.94135  0  0.385854  0  -0.070873  0.00087  0  3.93229  0
C  C84  1  0.25967929  0.96696916  0.95812125  1  0  0.052148  0  3.657867  0  0  -0.006521  0  3.932681  0  0  -0.000458  0  3.938616  0  0.455725  0  -0.075154  -0.01056  0  3.928505  0
C  C85  1  0.74032287  0.03303519  0.45811993  1  0  0.052212  0  3.657893  0  0  -0.006481  0  3.932683  0  0  -0.000455  0  3.938664  0  0.455734  0  -0.075104  -0.010521  0  3.928508  0
C  C86  1  0.14463841  0.24141564  0.66433476  1  0  0.622453  0  3.866553  0  0  0.556274  0  4.15914  0  0  0.591259  0  4.155443  0  1.784836  0  0.334116  0.532877  0  4.160832  0
C  C87  1  0.85536446  0.75858664  0.16433476  1  0  0.62251  0  3.866554  0  0  0.556292  0  4.159202  0  0  0.591275  0  4.155509  0  1.784797  0  0.334172  0.532894  0  4.160897  0
C  C88  1  0.35611259  0.42016652  0.58776145  1  0  0.504648  0  3.940136  0  0  0.453361  0  4.234729  0  0  0.48405  0  4.236099  0  1.274962  0  0.21045  0.432782  0  4.233298  0
C  C89  1  0.64389252  0.57983473  0.08776013  1  0  0.504699  0  3.940214  0  0  0.453402  0  4.234804  0  0  0.484091  0  4.236175  0  1.274965  0  0.210478  0.432822  0  4.233373  0
C  C90  1  0.37994628  0.31519731  0.52653773  1  0  -0.403821  0  3.929487  0  0  -0.396499  0  4.208412  0  0  -0.419141  0  4.226128  0  0.079612  0  -0.072008  -0.381278  0  4.195953  0
C  C91  1  0.62005385  0.68480394  0.02654102  1  0  -0.403954  0  3.92968  0  0  -0.396573  0  4.208543  0  0  -0.419221  0  4.226267  0  0.079547  0  -0.071967  -0.381351  0  4.196084  0
C  C92  1  0.29899552  0.17303622  0.53576870  1  0  0.521029  0  3.922787  0  0  0.468533  0  4.219568  0  0  0.499518  0  4.22089  0  1.250758  0  0.215655  0.44785  0  4.217872  0
C  C93  1  0.70100534  0.82696296  0.03576870  1  0  0.521055  0  3.922779  0  0  0.468535  0  4.219572  0  0  0.49952  0  4.220894  0  1.25071  0  0.21561  0.44785  0  4.217877  0
C  C94  1  0.19607719  0.48201712  0.71377068  1  0  -0.154325  0  3.664305  0  0  -0.259433  0  3.919826  0  0  -0.254651  0  3.926069  0  0.224614  0  -0.144044  -0.262283  0  3.915537  0
C  C95  1  0.80392242  0.51798206  0.21377068  1  0  -0.154273  0  3.664219  0  0  -0.259377  0  3.919753  0  0  -0.254598  0  3.925995  0  0.224532  0  -0.144033  -0.26223  0  3.915467  0
C  C96  1  0.48952822  0.35460926  0.45501680  1  0  0.355605  0  3.842951  0  0  0.33488  0  4.123193  0  0  0.352199  0  4.138585  0  0.833686  0  0.183326  0.323041  0  4.112824  0
C  C97  1  0.51046942  0.64539199  0.95501746  1  0  0.355664  0  3.84315  0  0  0.334909  0  4.123375  0  0  0.352232  0  4.138766  0  0.833818  0  0.183352  0.323071  0  4.113009  0
C  C98  1  0.10636608  0.99902880  0.62615157  1  0  -0.15523  0  3.667441  0  0  -0.265837  0  3.937103  0  0  -0.2608  0  3.942381  0  0.231256  0  -0.137231  -0.26877  0  3.93341  0
C  C99  1  0.89363031  0.00097244  0.12615222  1  0  -0.155231  0  3.667375  0  0  -0.265777  0  3.937085  0  0  -0.26074  0  3.942359  0  0.231263  0  -0.13722  -0.268715  0  3.933391  0
N  N100  1  0.23307933  0.37638168  0.65381549  1  0  -0.275503  0  3.410452  0  0  -0.183776  0  3.646679  0  0  -0.207678  0  3.662833  0  -1.21346  0  -0.262553  -0.167877  0  3.635227  0
N  N101  1  0.76692303  0.62361854  0.15381680  1  0  -0.275498  0  3.410337  0  0  -0.183767  0  3.646593  0  0  -0.207666  0  3.662749  0  -1.213445  0  -0.262597  -0.167869  0  3.635144  0
N  N102  1  0.18655349  0.14288836  0.60804876  1  0  -0.286264  0  3.414684  0  0  -0.193463  0  3.651751  0  0  -0.217988  0  3.669379  0  -1.171086  0  -0.264043  -0.177194  0  3.639356  0
N  N103  1  0.81344736  0.85711082  0.10804811  1  0  -0.286246  0  3.414667  0  0  -0.193425  0  3.651719  0  0  -0.217948  0  3.669348  0  -1.171108  0  -0.264023  -0.177152  0  3.639324  0
N  N104  1  0.57977621  0.38925002  0.39481845  1  0  -0.475328  0  2.63278  0  0  -0.44765  0  2.867823  0  0  -0.461169  0  2.8766  0  -1.234287  0  -0.328715  -0.438471  0  2.861963  0
N  N105  1  0.42023211  0.61074916  0.89481845  1  0  -0.475323  0  2.63302  0  0  -0.44762  0  2.868052  0  0  -0.461137  0  2.876828  0  -1.234324  0  -0.328717  -0.438446  0  2.862194  0
O  O106  1  0.14844250  0.91781517  0.88582603  1  0  -0.340134  0  2.254989  0  0  -0.273086  0  2.511847  0  0  -0.288368  0  2.512365  0  -1.069764  0  -0.279328  -0.262176  0  2.51103  0
O  O107  1  0.85156012  0.08218607  0.38582471  1  0  -0.340205  0  2.255018  0  0  -0.273181  0  2.511914  0  0  -0.288453  0  2.512443  0  -1.069783  0  -0.279398  -0.26227  0  2.511092  0
O  O108  1  0.84379109  0.78156944  0.80000264  1  0  -0.333856  0  2.281908  0  0  -0.263311  0  2.535414  0  0  -0.279517  0  2.538233  0  -1.050017  0  -0.277901  -0.251971  0  2.533016  0
O  O109  1  0.15621453  0.21843387  0.30000329  1  0  -0.333972  0  2.281928  0  0  -0.263417  0  2.53544  0  0  -0.279638  0  2.53826  0  -1.049926  0  -0.277954  -0.252077  0  2.533045  0
O  O110  1  0.65740444  0.95486325  0.71354267  1  0  -0.33093  0  2.265178  0  0  -0.26156  0  2.519063  0  0  -0.276738  0  2.520346  0  -1.070658  0  -0.277139  -0.250851  0  2.517698  0
O  O111  1  0.34259517  0.04513592  0.21354201  1  0  -0.330946  0  2.265293  0  0  -0.261595  0  2.519165  0  0  -0.276773  0  2.520443  0  -1.070699  0  -0.277149  -0.250887  0  2.517803  0
O  O112  1  0.63321923  0.20992188  0.80430577  1  0  -0.333565  0  2.267982  0  0  -0.261428  0  2.518358  0  0  -0.277334  0  2.519674  0  -1.055323  0  -0.281468  -0.249875  0  2.516698  0
O  O113  1  0.36677737  0.79007523  0.30430313  1  0  -0.333547  0  2.268114  0  0  -0.261396  0  2.518497  0  0  -0.277303  0  2.519812  0  -1.055311  0  -0.281448  -0.249842  0  2.516835  0
O  O114  1  0.92384414  0.34210920  0.90544185  1  0  -0.33281  0  2.292714  0  0  -0.260323  0  2.547128  0  0  -0.276325  0  2.548857  0  -1.052042  0  -0.272957  -0.249011  0  2.545341  0
O  O115  1  0.07615573  0.65789101  0.40544053  1  0  -0.332853  0  2.292708  0  0  -0.260342  0  2.547072  0  0  -0.276344  0  2.548793  0  -1.051965  0  -0.272941  -0.249043  0  2.545291  0
O  O116  1  0.15311174  0.17601873  0.97349325  1  0  -0.343262  0  2.272762  0  0  -0.274824  0  2.527923  0  0  -0.290999  0  2.530063  0  -1.077393  0  -0.273874  -0.26333  0  2.525881  0
O  O117  1  0.84688963  0.82398252  0.47349127  1  0  -0.343304  0  2.272688  0  0  -0.274857  0  2.527833  0  0  -0.291033  0  2.529967  0  -1.077349  0  -0.273855  -0.263361  0  2.525791  0
O  O118  1  0.03465180  0.20825320  0.72202306  1  0  -0.589261  0  1.953123  0  0  -0.551672  0  2.191789  0  0  -0.570464  0  2.181694  0  -1.157896  0  -0.368766  -0.538648  0  2.198254  0
O  O119  1  0.96534807  0.79174701  0.22202241  1  0  -0.589282  0  1.953245  0  0  -0.551694  0  2.191954  0  0  -0.570486  0  2.181863  0  -1.157881  0  -0.368797  -0.538671  0  2.198421  0
O  O120  1  0.32217835  0.07678694  0.48664843  1  0  -0.600044  0  1.934208  0  0  -0.559555  0  2.164852  0  0  -0.578508  0  2.155711  0  -1.180851  0  -0.38251  -0.546394  0  2.170722  0
O  O121  1  0.67782649  0.92321328  0.98664778  1  0  -0.60006  0  1.934176  0  0  -0.559555  0  2.164816  0  0  -0.578509  0  2.155675  0  -1.180813  0  -0.382516  -0.546394  0  2.170686  0
O  O122  1  0.43178650  0.54362771  0.58620560  1  0  -0.562184  0  1.935362  0  0  -0.523677  0  2.16702  0  0  -0.54292  0  2.160127  0  -1.172057  0  -0.312834  -0.510394  0  2.17155  0
O  O123  1  0.56821586  0.45637251  0.08620494  1  0  -0.562233  0  1.93528  0  0  -0.523737  0  2.166958  0  0  -0.54298  0  2.160067  0  -1.172009  0  -0.312883  -0.510446  0  2.171474  0
