# generated using pymatgen
data_Ni3P2H66C78(N3O5)4
_symmetry_space_group_name_H-M   'P 1'
_cell_length_a   13.66920296
_cell_length_b   13.66922462
_cell_length_c   13.66921163
_cell_angle_alpha   74.64573314
_cell_angle_beta   74.64580842
_cell_angle_gamma   74.64568539
_symmetry_Int_Tables_number   1
_chemical_formula_structural   Ni3P2H66C78(N3O5)4
_chemical_formula_sum   'Ni3 P2 H66 C78 N12 O20'
_cell_volume   2322.35797987
_cell_formula_units_Z   1
loop_
 _symmetry_equiv_pos_site_id
 _symmetry_equiv_pos_as_xyz
  1  'x, y, z'
loop_
 _atom_site_type_symbol
 _atom_site_label
 _atom_site_symmetry_multiplicity
 _atom_site_fract_x
 _atom_site_fract_y
 _atom_site_fract_z
 _atom_site_occupancy
 _atom_site_pbe_bader_charge
 _atom_site_pbe_bader_spin_density
 _atom_site_pbe_cm5_charge
 _atom_site_pbe_ddec_charge
 _atom_site_pbe_ddec_spin_density
 _atom_site_pbe_ddec_sum_bond_order
 _atom_site_pbe_magmom
Ni  Ni0  1  0.49999976  0.99999986  0.00000007  1  1.171928  1.582481  0.623514  0.801721  1.784092  2.3899  1.571
Ni  Ni1  1  0.00000006  0.99999930  0.49999936  1  1.171944  1.582486  0.623529  0.801753  1.784098  2.389884  1.571
Ni  Ni2  1  0.99999951  0.50000006  0.00000039  1  1.171947  1.582485  0.623536  0.801784  1.784097  2.389816  1.571
P  P3  1  0.60566058  0.60566015  0.60566013  1  2.767269  -0.000143  0.248886  0.805988  -0.000367  4.867816  0.0
P  P4  1  0.39433964  0.39434101  0.39434057  1  2.767334  -0.000143  0.248862  0.805918  -0.000367  4.867833  0.0
H  H5  1  0.70193379  0.42931559  0.74300840  1  0.059631  7e-06  0.104965  0.103796  3e-06  0.991725  0.0
H  H6  1  0.42931610  0.74300771  0.70193245  1  0.059644  7e-06  0.104968  0.103799  3e-06  0.991772  0.0
H  H7  1  0.74300721  0.70193197  0.42931504  1  0.05966  7e-06  0.104997  0.103851  3e-06  0.991771  0.0
H  H8  1  0.29806798  0.57068373  0.25699165  1  0.059666  7e-06  0.105001  0.103848  3e-06  0.991766  0.0
H  H9  1  0.57068334  0.25699210  0.29806736  1  0.059664  7e-06  0.104971  0.10381  3e-06  0.991729  0.0
H  H10  1  0.25699224  0.29806707  0.57068424  1  0.059666  7e-06  0.10499  0.103848  3e-06  0.991703  0.0
H  H11  1  0.70028168  0.97868718  0.94504651  1  0.601192  0.000275  0.319064  0.399784  0.000191  0.87797  0.0
H  H12  1  0.97868808  0.94504572  0.70028141  1  0.601181  0.000275  0.31905  0.399796  0.000191  0.878  0.0
H  H13  1  0.94504381  0.70028158  0.97868780  1  0.601147  0.000275  0.319043  0.399808  0.000191  0.877993  0.0
H  H14  1  0.29971853  0.02131246  0.05495386  1  0.601189  0.000275  0.319063  0.399824  0.000191  0.877969  0.0
H  H15  1  0.02131214  0.05495392  0.29971823  1  0.601187  0.000275  0.319061  0.399814  0.000191  0.877981  0.0
H  H16  1  0.05495564  0.29971823  0.02131347  1  0.601156  0.000275  0.31905  0.399821  0.000191  0.877904  0.0
H  H17  1  0.66710251  0.88486511  0.03863927  1  0.637455  -0.000216  0.275889  0.365754  -7.6e-05  0.989185  0.0
H  H18  1  0.88486510  0.03863998  0.66710185  1  0.637515  -0.000215  0.275864  0.365728  -7.6e-05  0.989206  0.0
H  H19  1  0.03863960  0.66710248  0.88486506  1  0.637448  -0.000216  0.27587  0.365749  -7.6e-05  0.989193  0.0
H  H20  1  0.33289848  0.11513512  0.96136001  1  0.637496  -0.000216  0.275857  0.365721  -7.6e-05  0.989219  0.0
H  H21  1  0.11513512  0.96135966  0.33289852  1  0.637641  -0.000216  0.275878  0.365752  -7.6e-05  0.989184  0.0
H  H22  1  0.96135907  0.33289825  0.11513471  1  0.637636  -0.000216  0.275874  0.365751  -7.6e-05  0.989188  0.0
H  H23  1  0.40129541  0.54599149  0.66244763  1  0.077989  0.000148  0.094599  0.09247  5.8e-05  1.061611  0.0
H  H24  1  0.54599124  0.66244747  0.40129527  1  0.077968  0.000148  0.094607  0.092511  5.8e-05  1.061613  0.0
H  H25  1  0.66244887  0.40129508  0.54599004  1  0.078006  0.000148  0.094584  0.092439  5.8e-05  1.061637  0.0
H  H26  1  0.59870559  0.45401026  0.33755198  1  0.077999  0.000148  0.094566  0.092439  5.8e-05  1.061616  0.0
H  H27  1  0.45400976  0.33755277  0.59870474  1  0.077983  0.000148  0.094582  0.09249  5.8e-05  1.06162  0.0
H  H28  1  0.33755212  0.59870439  0.45401017  1  0.077993  0.000148  0.094591  0.092474  5.8e-05  1.061645  0.0
H  H29  1  0.64008401  0.27284151  0.85959933  1  0.108902  0.000347  0.111376  0.120371  0.000223  0.982837  0.0
H  H30  1  0.27284177  0.85959989  0.64008397  1  0.108903  0.000347  0.111369  0.120351  0.000223  0.982831  0.0
H  H31  1  0.85959942  0.64008453  0.27284029  1  0.1087  0.000347  0.111353  0.120329  0.000223  0.982791  0.0
H  H32  1  0.35991543  0.72715905  0.14039954  1  0.108887  0.000347  0.111377  0.12037  0.000223  0.982819  0.0
H  H33  1  0.72715845  0.14039899  0.35991587  1  0.108901  0.000347  0.11137  0.12036  0.000223  0.982814  0.0
H  H34  1  0.14039925  0.35991695  0.72715855  1  0.108849  0.000347  0.111371  0.120348  0.000223  0.982801  0.0
H  H35  1  0.62776571  0.92269263  0.35945540  1  0.088915  9e-05  0.114119  0.12036  3.8e-05  0.985072  0.0
H  H36  1  0.92269291  0.35945489  0.62776414  1  0.08878  9e-05  0.114079  0.120301  3.8e-05  0.985098  0.0
H  H37  1  0.35945420  0.62776584  0.92269704  1  0.088829  9e-05  0.114104  0.120381  3.8e-05  0.985022  0.0
H  H38  1  0.37223296  0.07730885  0.64054563  1  0.088882  9e-05  0.11411  0.120332  3.8e-05  0.985042  0.0
H  H39  1  0.07730654  0.64054567  0.37223546  1  0.088874  9e-05  0.114077  0.120301  3.8e-05  0.985079  0.0
H  H40  1  0.64054835  0.37223180  0.07730544  1  0.088933  9e-05  0.114094  0.120337  3.8e-05  0.985033  0.0
H  H41  1  0.33988086  0.39215140  0.78408817  1  0.105675  -2e-05  0.102007  0.104459  -6.8e-05  1.033362  0.0
H  H42  1  0.39215064  0.78408951  0.33988113  1  0.105674  -2e-05  0.10202  0.104474  -6.8e-05  1.033363  0.0
H  H43  1  0.78408969  0.33988179  0.39215037  1  0.105684  -2e-05  0.102017  0.104469  -6.8e-05  1.033405  0.0
H  H44  1  0.66011936  0.60784976  0.21590887  1  0.105692  -2e-05  0.102  0.104435  -6.8e-05  1.033444  0.0
H  H45  1  0.60784958  0.21591013  0.66011925  1  0.105665  -2e-05  0.102025  0.104467  -6.8e-05  1.033386  0.0
H  H46  1  0.21590975  0.66011953  0.60784903  1  0.105668  -2e-05  0.102019  0.104472  -6.8e-05  1.033378  0.0
H  H47  1  0.33492826  0.11876361  0.46506491  1  0.09378  3.1e-05  0.109789  0.115631  6e-06  1.017046  0.0
H  H48  1  0.11876528  0.46506690  0.33492720  1  0.093832  3.1e-05  0.109813  0.115707  6e-06  1.016983  0.0
H  H49  1  0.46506730  0.33492513  0.11876135  1  0.093817  3.1e-05  0.109808  0.115659  6e-06  1.017038  0.0
H  H50  1  0.66507041  0.88123788  0.53493612  1  0.093789  3.1e-05  0.109799  0.115638  6e-06  1.017068  0.0
H  H51  1  0.88123572  0.53493333  0.66507281  1  0.093793  3.1e-05  0.109802  0.115661  6e-06  1.017032  0.0
H  H52  1  0.53493370  0.66507207  0.88123946  1  0.093857  3.1e-05  0.109817  0.115653  6e-06  1.01704  0.0
H  H53  1  0.53853652  0.91216570  0.23832065  1  0.143447  0.00055  0.140801  0.107384  1.7e-05  0.990873  0.0
H  H54  1  0.91216578  0.23832140  0.53853634  1  0.143442  0.00055  0.140807  0.107382  1.7e-05  0.990863  0.0
H  H55  1  0.23831997  0.53853554  0.91216607  1  0.143451  0.00055  0.140809  0.107384  1.7e-05  0.990886  0.0
H  H56  1  0.46146370  0.08783394  0.76167973  1  0.143449  0.00055  0.14081  0.10739  1.7e-05  0.990878  0.0
H  H57  1  0.08783366  0.76167992  0.46146380  1  0.14346  0.00055  0.140808  0.107384  1.7e-05  0.990885  0.0
H  H58  1  0.76167870  0.46146367  0.08783410  1  0.143435  0.00055  0.140804  0.107378  1.7e-05  0.990893  0.0
H  H59  1  0.36779303  0.20511957  0.30009762  1  0.175145  0.000697  0.119803  0.133272  0.000305  1.078795  0.0
H  H60  1  0.20511961  0.30009891  0.36779360  1  0.175127  0.000697  0.119797  0.133244  0.000305  1.078768  0.0
H  H61  1  0.30009819  0.36779324  0.20512005  1  0.175145  0.000697  0.11979  0.133233  0.000305  1.078797  0.0
H  H62  1  0.63220563  0.79488115  0.69990215  1  0.175144  0.000697  0.119818  0.133258  0.000305  1.078775  0.0
H  H63  1  0.79487983  0.69990089  0.63220694  1  0.175139  0.000697  0.119783  0.133232  0.000305  1.078803  0.0
H  H64  1  0.69990125  0.63220656  0.79488048  1  0.17514  0.000697  0.119787  0.133228  0.000305  1.07878  0.0
H  H65  1  0.36082001  0.19275289  0.10171386  1  0.126301  0.000851  0.114629  0.105011  0.000205  1.05013  0.001
H  H66  1  0.19275327  0.10171351  0.36082007  1  0.126283  0.00085  0.114618  0.105005  0.000205  1.050156  0.001
H  H67  1  0.10171303  0.36082050  0.19275265  1  0.126304  0.000851  0.114615  0.105002  0.000205  1.050147  0.001
H  H68  1  0.63917943  0.80724767  0.89828648  1  0.126292  0.00085  0.114624  0.10504  0.000205  1.050122  0.001
H  H69  1  0.80724617  0.89828629  0.63917900  1  0.126288  0.000851  0.114639  0.105037  0.000205  1.05008  0.001
H  H70  1  0.89828641  0.63917854  0.80724809  1  0.126316  0.000851  0.114622  0.105042  0.000205  1.050135  0.001
C  C71  1  0.55584660  0.49734696  0.69395645  1  -0.663796  -0.001055  -0.027708  -0.145422  -0.001127  4.004405  -0.001
C  C72  1  0.49734668  0.69395588  0.55584632  1  -0.663789  -0.001055  -0.027701  -0.145394  -0.001127  4.004346  -0.001
C  C73  1  0.69395550  0.55584592  0.49734641  1  -0.663831  -0.001055  -0.027704  -0.145441  -0.001127  4.004396  -0.001
C  C74  1  0.44415440  0.50265404  0.30604409  1  -0.663824  -0.001055  -0.027688  -0.145381  -0.001127  4.004385  -0.001
C  C75  1  0.50265354  0.30604452  0.44415385  1  -0.66379  -0.001055  -0.027653  -0.145296  -0.001127  4.004283  -0.001
C  C76  1  0.30604472  0.44415296  0.50265416  1  -0.663809  -0.001055  -0.027724  -0.145472  -0.001127  4.004468  -0.001
C  C77  1  0.47885517  0.02317515  0.40111238  1  0.313197  0.000822  0.098405  0.1635  0.000493  4.019547  0.001
C  C78  1  0.02317651  0.40111450  0.47885254  1  0.313072  0.000822  0.098441  0.163612  0.000493  4.019603  0.001
C  C79  1  0.40111356  0.47885345  0.02317718  1  0.313314  0.000822  0.09845  0.163643  0.000493  4.019487  0.001
C  C80  1  0.52114273  0.97682650  0.59888881  1  0.313197  0.000822  0.098436  0.163521  0.000493  4.019677  0.001
C  C81  1  0.97682371  0.59888590  0.52114690  1  0.31313  0.000822  0.098446  0.163599  0.000493  4.019596  0.001
C  C82  1  0.59888744  0.52114451  0.97682563  1  0.313331  0.000822  0.098422  0.163532  0.000493  4.019635  0.001
C  C83  1  0.62279318  0.42084515  0.75106810  1  -0.018702  0.000137  -0.079011  -0.075039  1.1e-05  3.982752  0.0
C  C84  1  0.42084569  0.75106701  0.62279344  1  -0.018717  0.000137  -0.079037  -0.075092  1.1e-05  3.982749  0.0
C  C85  1  0.75106719  0.62279478  0.42084401  1  -0.018677  0.000137  -0.079022  -0.075083  1.1e-05  3.982734  0.0
C  C86  1  0.37720626  0.57915541  0.24893297  1  -0.018612  0.000137  -0.079035  -0.075082  1.1e-05  3.982758  0.0
C  C87  1  0.57915531  0.24893323  0.37720657  1  -0.018633  0.000137  -0.079034  -0.075119  1.1e-05  3.982761  0.0
C  C88  1  0.24893303  0.37720638  0.57915596  1  -0.01863  0.000137  -0.079015  -0.075051  1.1e-05  3.982765  0.0
C  C89  1  0.48662862  0.32356146  0.82792837  1  -0.048949  0.006841  -0.009704  -0.01572  0.00405  3.939191  0.005
C  C90  1  0.32356235  0.82792807  0.48662913  1  -0.048989  0.00684  -0.009713  -0.015721  0.00405  3.93925  0.005
C  C91  1  0.82792920  0.48663007  0.32356177  1  -0.048952  0.006841  -0.009704  -0.015693  0.00405  3.9392  0.005
C  C92  1  0.51337004  0.67643775  0.17207033  1  -0.048989  0.006841  -0.009731  -0.015785  0.00405  3.939304  0.005
C  C93  1  0.67643787  0.17207081  0.51337071  1  -0.048989  0.006841  -0.009732  -0.015761  0.00405  3.93926  0.005
C  C94  1  0.17207179  0.51337092  0.67643804  1  -0.04899  0.006841  -0.009706  -0.015697  0.00405  3.939221  0.005
C  C95  1  0.45363096  0.48735223  0.70639844  1  -0.051326  0.000794  -0.087975  -0.087192  0.000419  3.999329  0.001
C  C96  1  0.48735281  0.70639753  0.45363046  1  -0.050972  0.000794  -0.087972  -0.087268  0.000419  3.999342  0.001
C  C97  1  0.70639896  0.45363142  0.48735203  1  -0.051341  0.000794  -0.087983  -0.087194  0.000419  3.999339  0.001
C  C98  1  0.54636848  0.51264757  0.29360136  1  -0.051329  0.000794  -0.087978  -0.08724  0.000419  3.999338  0.001
C  C99  1  0.51264741  0.29360135  0.54637012  1  -0.051326  0.000794  -0.087981  -0.087305  0.000419  3.999335  0.001
C  C100  1  0.29360204  0.54636958  0.51264850  1  -0.051337  0.000794  -0.087957  -0.087223  0.000419  3.99934  0.001
C  C101  1  0.58860436  0.33417529  0.81673172  1  0.005032  -0.000524  -0.077081  -0.084832  -0.000677  3.947927  0.0
C  C102  1  0.33417556  0.81673209  0.58860337  1  0.005043  -0.000523  -0.077069  -0.084796  -0.000677  3.947957  0.0
C  C103  1  0.81673246  0.58860194  0.33417533  1  0.005221  -0.000523  -0.077094  -0.084817  -0.000677  3.947979  0.0
C  C104  1  0.41139741  0.66582478  0.18326666  1  0.004944  -0.000523  -0.077088  -0.084831  -0.000677  3.948041  0.0
C  C105  1  0.66582389  0.18326771  0.41139716  1  0.004965  -0.000524  -0.077076  -0.084802  -0.000677  3.947987  0.0
C  C106  1  0.18326776  0.41139770  0.66582431  1  0.005012  -0.000524  -0.07711  -0.084876  -0.000677  3.948011  0.0
C  C107  1  0.57097300  0.95524111  0.42140214  1  -0.013312  -5.8e-05  -0.082332  -0.148838  -0.000115  3.987347  0.0
C  C108  1  0.95524103  0.42140062  0.57097333  1  -0.014157  -5.8e-05  -0.082296  -0.148722  -0.000115  3.987155  0.0
C  C109  1  0.42140042  0.57097419  0.95524333  1  -0.014385  -5.8e-05  -0.082312  -0.148853  -0.000115  3.987147  0.0
C  C110  1  0.42902644  0.04475945  0.57859819  1  -0.01329  -5.8e-05  -0.082371  -0.148862  -0.000115  3.987396  0.0
C  C111  1  0.04475919  0.57859978  0.42902611  1  -0.013212  -5.8e-05  -0.082293  -0.148701  -0.000115  3.987118  0.0
C  C112  1  0.57860058  0.42902377  0.04475874  1  -0.013507  -5.8e-05  -0.082328  -0.148759  -0.000115  3.987156  0.0
C  C113  1  0.41898856  0.40140450  0.77387452  1  0.008938  -1.4e-05  -0.085377  -0.099847  -0.000352  3.96491  0.0
C  C114  1  0.40140242  0.77387513  0.41898858  1  0.008592  -1.4e-05  -0.085371  -0.099807  -0.000352  3.964842  0.0
C  C115  1  0.77387585  0.41898802  0.40140375  1  0.008951  -1.4e-05  -0.085337  -0.099783  -0.000352  3.964781  0.0
C  C116  1  0.58101243  0.59859649  0.22612309  1  0.008918  -1.4e-05  -0.085326  -0.099734  -0.000352  3.964812  0.0
C  C117  1  0.59859703  0.22612392  0.58101215  1  0.008923  -1.4e-05  -0.085354  -0.099756  -0.000352  3.964837  0.0
C  C118  1  0.22612514  0.58101221  0.59859626  1  0.008903  -1.4e-05  -0.085341  -0.099768  -0.000352  3.964814  0.0
C  C119  1  0.45033496  0.22721681  0.89429562  1  1.557874  -0.001472  0.201012  0.551455  -0.002194  4.233414  -0.002
C  C120  1  0.22721628  0.89429532  0.45033860  1  1.558387  -0.001472  0.201047  0.551524  -0.002194  4.233363  -0.002
C  C121  1  0.89429456  0.45033782  0.22721598  1  1.558311  -0.001472  0.201042  0.551454  -0.002194  4.233465  -0.002
C  C122  1  0.54966216  0.77278348  0.10570394  1  1.558367  -0.001472  0.201032  0.551488  -0.002194  4.233357  -0.002
C  C123  1  0.77278395  0.10570432  0.54966397  1  1.558404  -0.001472  0.201024  0.55146  -0.002194  4.233366  -0.002
C  C124  1  0.10570566  0.54966258  0.77278346  1  1.558367  -0.001472  0.201042  0.551471  -0.002194  4.233377  -0.002
C  C125  1  0.40787420  0.06784474  0.48002110  1  0.003437  0.000286  -0.080739  -0.135654  0.000103  3.965791  0.0
C  C126  1  0.06784401  0.48001804  0.40787625  1  0.003437  0.000286  -0.080812  -0.135908  0.000103  3.965986  0.0
C  C127  1  0.48002134  0.40787442  0.06784310  1  0.003395  0.000286  -0.080798  -0.135831  0.000103  3.96592  0.0
C  C128  1  0.59212447  0.93215598  0.51998013  1  0.003446  0.000286  -0.080773  -0.135703  0.000103  3.965896  0.0
C  C129  1  0.93215698  0.51998144  0.59212323  1  0.00445  0.000286  -0.080783  -0.135808  0.000103  3.966  0.0
C  C130  1  0.51998120  0.59212398  0.93215845  1  0.004433  0.000286  -0.080796  -0.135725  0.000103  3.965932  0.0
C  C131  1  0.49102205  0.98976702  0.22666588  1  0.988405  -0.003913  0.152166  0.120623  -0.004867  3.865477  -0.002
C  C132  1  0.98976785  0.22666640  0.49102173  1  0.988474  -0.003913  0.152156  0.120633  -0.004867  3.865558  -0.002
C  C133  1  0.22666575  0.49102224  0.98976660  1  0.98842  -0.003913  0.152144  0.120616  -0.004868  3.865494  -0.002
C  C134  1  0.50897739  0.01023278  0.77333465  1  0.988417  -0.003913  0.152165  0.120605  -0.004868  3.865508  -0.002
C  C135  1  0.01023314  0.77333384  0.50897754  1  0.988413  -0.003914  0.152148  0.120623  -0.004868  3.865507  -0.002
C  C136  1  0.77333524  0.50897723  0.01023287  1  0.98843  -0.003913  0.152188  0.120691  -0.004867  3.865494  -0.002
C  C137  1  0.39780725  0.14235007  0.25847058  1  0.234182  0.002782  -0.006899  -0.119927  0.001567  3.910138  0.002
C  C138  1  0.14235055  0.25846961  0.39780729  1  0.234152  0.002782  -0.006852  -0.119768  0.001566  3.910129  0.002
C  C139  1  0.25846885  0.39780732  0.14235051  1  0.234177  0.002782  -0.006856  -0.119793  0.001566  3.910152  0.002
C  C140  1  0.60219219  0.85764973  0.74152923  1  0.234204  0.002783  -0.006923  -0.119867  0.001567  3.910014  0.002
C  C141  1  0.85764967  0.74153079  0.60219288  1  0.234171  0.002782  -0.006875  -0.119824  0.001566  3.910271  0.002
C  C142  1  0.74152981  0.60219188  0.85764966  1  0.234187  0.002782  -0.00686  -0.119748  0.001566  3.910175  0.002
C  C143  1  0.39779068  0.13581740  0.16013226  1  0.425919  -0.000489  -0.004871  -0.036551  -0.001138  4.013214  0.0
C  C144  1  0.13581844  0.16013386  0.39779038  1  0.425929  -0.000488  -0.00489  -0.03664  -0.001138  4.013247  0.0
C  C145  1  0.16013282  0.39779064  0.13581816  1  0.425894  -0.000488  -0.004873  -0.036569  -0.001137  4.013338  0.0
C  C146  1  0.60220954  0.86418148  0.83986905  1  0.425916  -0.000489  -0.004888  -0.036644  -0.001138  4.013111  0.0
C  C147  1  0.86418101  0.83986670  0.60220995  1  0.425898  -0.000488  -0.004868  -0.036569  -0.001137  4.013284  0.0
C  C148  1  0.83986740  0.60220900  0.86418221  1  0.425912  -0.000489  -0.004894  -0.03666  -0.001138  4.013278  0.0
N  N149  1  0.45753189  0.04913298  0.30028347  1  -1.25636  0.001608  -0.225463  0.009693  0.000535  3.791792  0.001
N  N150  1  0.04913332  0.30028440  0.45753188  1  -1.256359  0.001608  -0.225502  0.009555  0.000535  3.791804  0.001
N  N151  1  0.30028499  0.45753199  0.04913320  1  -1.256332  0.001608  -0.225476  0.009585  0.000535  3.791704  0.001
N  N152  1  0.54246678  0.95086774  0.69971629  1  -1.256366  0.001608  -0.225483  0.009705  0.000535  3.791767  0.001
N  N153  1  0.95086690  0.69971600  0.54246756  1  -1.256338  0.001608  -0.225502  0.00957  0.000535  3.791834  0.001
N  N154  1  0.69971678  0.54246732  0.95086684  1  -1.256348  0.001608  -0.225488  0.009543  0.000535  3.791823  0.001
N  N155  1  0.45615145  0.04066678  0.14141525  1  -1.200239  0.05808  -0.349255  -0.277192  0.033352  3.600642  0.052
N  N156  1  0.04066586  0.14141604  0.45615082  1  -1.200245  0.058079  -0.349248  -0.277158  0.033352  3.600471  0.052
N  N157  1  0.14141535  0.45615097  0.04066676  1  -1.200237  0.058079  -0.34926  -0.277219  0.033352  3.600571  0.052
N  N158  1  0.54384799  0.95933378  0.85858581  1  -1.200254  0.058081  -0.349227  -0.277161  0.033352  3.600477  0.052
N  N159  1  0.95933281  0.85858468  0.54384894  1  -1.20022  0.058081  -0.349261  -0.277209  0.033353  3.600573  0.052
N  N160  1  0.85858409  0.54384808  0.95933398  1  -1.200277  0.058081  -0.349274  -0.277231  0.033352  3.600566  0.052
O  O161  1  0.65719075  0.65718939  0.65718831  1  -1.44692  0.000112  -0.35888  -0.651502  7.1e-05  2.2342  0.0
O  O162  1  0.34281025  0.34281160  0.34281077  1  -1.446944  0.000112  -0.358872  -0.651405  7.1e-05  2.23402  0.0
O  O163  1  0.52080716  0.15227347  0.92593812  1  -1.145045  0.071688  -0.31212  -0.543507  0.03942  2.299391  0.067
O  O164  1  0.15227352  0.92593809  0.52080749  1  -1.145087  0.071678  -0.312113  -0.54352  0.039415  2.299472  0.067
O  O165  1  0.92593792  0.52080553  0.15227472  1  -1.145055  0.071679  -0.312096  -0.543494  0.039416  2.299525  0.067
O  O166  1  0.47919229  0.84772709  0.07406221  1  -1.145074  0.071681  -0.312136  -0.543536  0.039417  2.299421  0.067
O  O167  1  0.84772670  0.07406230  0.47919268  1  -1.145062  0.071686  -0.312137  -0.543547  0.03942  2.299444  0.067
O  O168  1  0.07406152  0.47919428  0.84772582  1  -1.145044  0.071681  -0.312109  -0.543503  0.039417  2.299433  0.067
O  O169  1  0.66062559  0.96359419  0.01574659  1  -1.201406  0.0712  -0.572499  -0.740173  0.039414  2.059571  0.061
O  O170  1  0.96359502  0.01574563  0.66062549  1  -1.201435  0.071199  -0.572466  -0.740176  0.039413  2.059599  0.061
O  O171  1  0.01574569  0.66062538  0.96359393  1  -1.201354  0.071201  -0.572467  -0.740203  0.039414  2.059575  0.061
O  O172  1  0.33937462  0.03640545  0.98425378  1  -1.201434  0.0712  -0.572464  -0.74019  0.039414  2.059601  0.061
O  O173  1  0.03640597  0.98425384  0.33937472  1  -1.201585  0.0712  -0.572481  -0.740203  0.039414  2.059596  0.061
O  O174  1  0.98425297  0.33937458  0.03640603  1  -1.201553  0.071201  -0.572482  -0.740223  0.039414  2.059484  0.061
O  O175  1  0.35414348  0.22753017  0.91135158  1  -1.182352  -0.0007  -0.332657  -0.555983  -0.001744  2.138696  -0.001
O  O176  1  0.22753037  0.91135144  0.35414278  1  -1.182797  -0.000699  -0.332706  -0.556066  -0.001743  2.138601  -0.001
O  O177  1  0.91134769  0.35414171  0.22752974  1  -1.182837  -0.000699  -0.332723  -0.556047  -0.001743  2.13864  -0.001
O  O178  1  0.64585751  0.77247006  0.08864696  1  -1.182812  -0.000699  -0.332669  -0.55601  -0.001743  2.138645  -0.001
O  O179  1  0.77247062  0.08864728  0.64585690  1  -1.18286  -0.0007  -0.332664  -0.555976  -0.001744  2.138656  -0.001
O  O180  1  0.08865021  0.64585842  0.77247039  1  -1.182824  -0.000699  -0.332702  -0.556034  -0.001743  2.138616  -0.001
