# generated using pymatgen
data_NiH20C20(N2O)4
_symmetry_space_group_name_H-M   'P 1'
_cell_length_a   8.02733571
_cell_length_b   12.23512339
_cell_length_c   11.31327102
_cell_angle_alpha   79.64554125
_cell_angle_beta   80.88670129
_cell_angle_gamma   70.66687404
_symmetry_Int_Tables_number   1
_chemical_formula_structural   NiH20C20(N2O)4
_chemical_formula_sum   'Ni2 H40 C40 N16 O8'
_cell_volume   1025.53669507
_cell_formula_units_Z   2
loop_
 _symmetry_equiv_pos_site_id
 _symmetry_equiv_pos_as_xyz
  1  'x, y, z'
loop_
 _atom_site_type_symbol
 _atom_site_label
 _atom_site_symmetry_multiplicity
 _atom_site_fract_x
 _atom_site_fract_y
 _atom_site_fract_z
 _atom_site_occupancy
 _atom_site_hle17_ddec_charge
 _atom_site_hle17_ddec_spin_density
 _atom_site_hle17_ddec_sum_bond_order
 _atom_site_hle17_magmom
 _atom_site_hse06_10hf_ddec_charge
 _atom_site_hse06_10hf_ddec_spin_density
 _atom_site_hse06_10hf_ddec_sum_bond_order
 _atom_site_hse06_10hf_magmom
 _atom_site_hse06_ddec_charge
 _atom_site_hse06_ddec_spin_density
 _atom_site_hse06_ddec_sum_bond_order
 _atom_site_hse06_magmom
 _atom_site_pbe_cm5_charge
 _atom_site_pbe_ddec_charge
 _atom_site_pbe_ddec_spin_density
 _atom_site_pbe_ddec_sum_bond_order
 _atom_site_pbe_magmom
Ni  Ni0  1  0.00000090  0.00000001  0.00000026  1  0.550162  0.002018  2.429394  0.002  0.51314  -0.001195  2.882425  -0.001  0.615462  -0.000506  2.797811  0.0  0.687183  0.448987  -0.001232  2.938374  -0.001
Ni  Ni1  1  0.49999497  0.50000685  0.50000186  1  0.488187  -9e-06  2.523724  0.0  0.433089  -4e-06  2.992781  0.0  0.497032  -7e-06  2.926748  0.0  0.692766  0.398508  -7e-06  3.033782  0.0
H  H2  1  0.24646626  0.44044988  0.83797717  1  0.08988  1e-06  0.980253  0.0  0.093949  5e-06  1.053015  0.0  0.097588  1e-06  1.0513  0.0  0.09633  0.091293  7e-06  1.054431  0.0
H  H3  1  0.75354230  0.55954090  0.16202363  1  0.089865  2e-06  0.980264  0.0  0.093936  5e-06  1.052979  0.0  0.097597  1e-06  1.051235  0.0  0.09628  0.091273  7e-06  1.054406  0.0
H  H4  1  0.80765848  0.37517107  0.07703743  1  0.087855  7e-06  0.973678  0.0  0.098203  1.2e-05  1.036061  0.0  0.101821  1e-05  1.033801  0.0  0.095877  0.095551  1.2e-05  1.037787  0.0
H  H5  1  0.19234680  0.62482152  0.92296429  1  0.087856  8e-06  0.973662  0.0  0.098161  1.2e-05  1.036094  0.0  0.101778  1e-05  1.033837  0.0  0.095902  0.095512  1.2e-05  1.03782  0.0
H  H6  1  0.71201535  0.08888019  0.82620810  1  0.302154  -4e-06  0.912472  0.0  0.276196  3.1e-05  0.985209  0.0  0.283668  3.5e-05  0.979156  0.0  0.329133  0.270794  2.5e-05  0.989697  0.0
H  H7  1  0.28798601  0.91111854  0.17379108  1  0.302194  -4e-06  0.9124  0.0  0.276246  3.1e-05  0.985122  0.0  0.283718  3.5e-05  0.979068  0.0  0.32916  0.270843  2.5e-05  0.989615  0.0
H  H8  1  0.66631989  0.09755408  0.19212978  1  0.091997  4.7e-05  0.996062  0.0  0.10078  7e-05  1.060009  0.0  0.101185  6.8e-05  1.060776  0.0  0.119115  0.100365  6.5e-05  1.059648  0.0
H  H9  1  0.33367982  0.90244555  0.80786942  1  0.091932  4.7e-05  0.996104  0.0  0.100723  7e-05  1.060057  0.0  0.101129  6.8e-05  1.060824  0.0  0.119108  0.100309  6.5e-05  1.059694  0.0
H  H10  1  0.33535793  0.20710788  0.11637916  1  0.125031  0.000203  0.953159  0.0  0.138473  0.000189  1.003605  0.0  0.140264  0.000175  1.004934  0.0  0.110258  0.137229  0.000182  1.002761  0.0
H  H11  1  0.66463831  0.79289095  0.88361795  1  0.125032  0.000203  0.953243  0.0  0.138515  0.000189  1.003639  0.0  0.140307  0.000175  1.004966  0.0  0.110289  0.137271  0.000182  1.002796  0.0
H  H12  1  0.38808901  0.18871811  0.87172038  1  0.117453  0.000197  0.973156  0.0  0.124516  0.000145  1.037222  0.0  0.1269  0.000136  1.034899  0.0  0.124478  0.122714  0.000137  1.038995  0.0
H  H13  1  0.61191382  0.81127711  0.12827579  1  0.117463  0.000198  0.973085  0.0  0.124562  0.000146  1.037099  0.0  0.126954  0.000137  1.034764  0.0  0.124448  0.122718  0.000137  1.038925  0.0
H  H14  1  0.09415768  0.15178116  0.77113651  1  0.301497  -9.5e-05  0.929518  0.0  0.270716  -0.000197  1.006174  0.0  0.281121  -0.000197  0.997614  0.0  0.305691  0.263275  -0.000172  1.012402  0.0
H  H15  1  0.90584238  0.84822367  0.22886691  1  0.301465  -9.5e-05  0.9294  0.0  0.270657  -0.000197  1.006086  0.0  0.281081  -0.000197  0.997514  0.0  0.305652  0.263223  -0.000173  1.012314  0.0
H  H16  1  0.97699103  0.83889908  0.82738560  1  0.118656  -0.000103  0.949307  0.0  0.126576  -0.00021  1.010645  0.0  0.128524  -0.000222  1.00838  0.0  0.125103  0.125147  -0.00018  1.01234  0.0
H  H17  1  0.02301820  0.16110465  0.17260282  1  0.1186  -0.000104  0.949259  0.0  0.126478  -0.00021  1.010647  0.0  0.128424  -0.000222  1.008389  0.0  0.125067  0.125041  -0.00018  1.012346  0.0
H  H18  1  0.08186940  0.88207277  0.58110546  1  0.121448  -0.000155  0.978183  0.0  0.130386  -0.000141  1.038616  0.0  0.13231  -0.000127  1.040058  0.0  0.105718  0.129071  -0.000138  1.037664  0.0
H  H19  1  0.91815289  0.11793590  0.41888398  1  0.12142  -0.000155  0.978349  0.0  0.130485  -0.000141  1.038629  0.0  0.132376  -0.000127  1.040107  0.0  0.105752  0.12917  -0.000138  1.037678  0.0
H  H20  1  0.15652566  0.08971790  0.55942166  1  0.098888  -0.000156  0.967395  0.0  0.112914  -0.000133  1.024373  0.0  0.113471  -0.000124  1.025164  0.0  0.122796  0.112477  -0.000126  1.023807  0.0
H  H21  1  0.84348723  0.91029533  0.44058212  1  0.09879  -0.000158  0.967357  0.0  0.112826  -0.000133  1.024329  0.0  0.113378  -0.000124  1.025137  0.0  0.122734  0.11239  -0.000126  1.023762  0.0
H  H22  1  0.42793464  0.19813598  0.38278133  1  0.089238  -0.0  0.974199  0.0  0.101849  1e-06  1.032792  0.0  0.105104  1e-06  1.03068  0.0  0.101707  0.099539  1e-06  1.034361  0.0
H  H23  1  0.57205937  0.80186201  0.61721002  1  0.08918  2e-06  0.974228  0.0  0.101816  1e-06  1.0328  0.0  0.105075  0.0  1.030678  0.0  0.101681  0.099502  1e-06  1.03438  0.0
H  H24  1  0.62392115  0.96529215  0.69674366  1  0.093288  4e-06  0.96092  0.0  0.101111  1e-06  1.028619  0.0  0.104803  2e-06  1.026423  0.0  0.099246  0.098477  -0.0  1.030251  0.0
H  H25  1  0.37608394  0.03470647  0.30324538  1  0.093282  6e-06  0.960776  0.0  0.101027  1e-06  1.028572  0.0  0.104726  2e-06  1.02635  0.0  0.099222  0.098393  -0.0  1.030207  0.0
H  H26  1  0.37218061  0.69320044  0.29464633  1  0.290473  -1e-06  0.944714  0.0  0.262615  -2e-06  1.018908  0.0  0.272868  -2e-06  1.010414  0.0  0.308961  0.255272  -1e-06  1.025023  0.0
H  H27  1  0.62779890  0.30681695  0.70535523  1  0.290486  -1e-06  0.944557  0.0  0.26245  -2e-06  1.018931  0.0  0.272698  -2e-06  1.010453  0.0  0.308954  0.255127  -1e-06  1.025047  0.0
H  H28  1  0.55612803  0.33300361  0.31222697  1  0.106791  -1e-06  0.946704  0.0  0.117704  -1e-06  1.00577  0.0  0.11951  -1e-06  1.003738  0.0  0.124306  0.116223  -0.0  1.007437  0.0
H  H29  1  0.44387359  0.66701248  0.68778198  1  0.106865  -1e-06  0.946675  0.0  0.117729  -1e-06  1.005771  0.0  0.119486  -1e-06  1.003796  0.0  0.124372  0.116251  -0.0  1.007428  0.0
H  H30  1  0.42962335  0.42014156  0.08803742  1  0.122258  2e-06  0.978492  0.0  0.130625  0.0  1.039588  0.0  0.132575  1e-06  1.041617  0.0  0.106414  0.129223  0.0  1.038345  0.0
H  H31  1  0.57037724  0.57986500  0.91196736  1  0.122256  1e-06  0.978368  0.0  0.130654  0.0  1.039441  0.0  0.132601  1e-06  1.041477  0.0  0.106449  0.129251  0.0  1.0382  0.0
H  H32  1  0.30598101  0.66003703  0.09178916  1  0.11827  0.0  0.958963  0.0  0.127533  4e-06  1.019102  0.0  0.12976  3e-06  1.017569  0.0  0.127563  0.12583  5e-06  1.020319  0.0
H  H33  1  0.69400226  0.33997161  0.90821459  1  0.118366  1e-06  0.958772  0.0  0.127503  4e-06  1.019077  0.0  0.129728  3e-06  1.017549  0.0  0.127565  0.125829  5e-06  1.020256  0.0
H  H34  1  0.23592661  0.39546398  0.63936620  1  0.315856  -2e-06  0.881756  0.0  0.290139  -0.0  0.952708  0.0  0.298067  -0.0  0.945407  0.0  0.333275  0.284316  -2e-06  0.958241  0.0
H  H35  1  0.76407111  0.60453744  0.36063641  1  0.315863  -2e-06  0.88176  0.0  0.290165  -0.0  0.952704  0.0  0.298086  -0.0  0.945402  0.0  0.333278  0.284351  -2e-06  0.95823  0.0
H  H36  1  0.16383339  0.72401557  0.45194294  1  0.103582  1e-06  0.98072  0.0  0.109319  1e-06  1.049796  0.0  0.111822  1e-06  1.04689  0.0  0.119121  0.107345  0.0  1.052072  0.0
H  H37  1  0.83616192  0.27598849  0.54805854  1  0.103563  2e-06  0.980742  0.0  0.109327  1e-06  1.049793  0.0  0.111807  1e-06  1.046922  0.0  0.11912  0.107357  0.0  1.05207  0.0
H  H38  1  0.83405119  0.71644717  0.56272728  1  0.123101  -1e-06  0.993671  0.0  0.130668  -1e-06  1.055548  0.0  0.133102  -1e-06  1.055639  0.0  0.103512  0.128875  -2e-06  1.055716  0.0
H  H39  1  0.16594058  0.28354743  0.43727385  1  0.123125  -1e-06  0.993579  0.0  0.130684  -1e-06  1.055455  0.0  0.133121  -1e-06  1.055548  0.0  0.103495  0.12889  -2e-06  1.055627  0.0
H  H40  1  0.90560918  0.49460900  0.69301753  1  0.108191  -1e-06  0.955612  0.0  0.115972  -1e-06  1.02163  0.0  0.117287  -0.0  1.0214  0.0  0.125067  0.11493  -2e-06  1.021895  0.0
H  H41  1  0.09439330  0.50538711  0.30698204  1  0.108165  -1e-06  0.955609  0.0  0.115926  -1e-06  1.021653  0.0  0.11724  -1e-06  1.021425  0.0  0.125053  0.114915  -2e-06  1.021882  0.0
C  C42  1  0.04930020  0.28605088  0.90027844  1  0.613737  -9.1e-05  3.957936  0.0  0.571954  -0.000117  4.25536  0.0  0.605696  -0.000117  4.246242  0.0  0.190226  0.549299  -0.000106  4.260687  0.0
C  C43  1  0.95070201  0.71394004  0.09972486  1  0.613691  -9.5e-05  3.957792  0.0  0.571864  -0.000117  4.255233  0.0  0.605605  -0.000117  4.246121  0.0  0.190152  0.549211  -0.000106  4.260547  0.0
C  C44  1  0.02846047  0.39625214  0.95123944  1  -0.068075  0.000221  3.763989  0.0  -0.044372  0.000179  3.989231  0.0  -0.050577  0.000127  4.011196  0.0  -0.024312  -0.040375  0.00022  3.974355  0.0
C  C45  1  0.97154124  0.60373707  0.04876690  1  -0.068407  0.000252  3.764229  0.0  -0.044593  0.000179  3.989309  0.0  -0.050799  0.000127  4.011281  0.0  -0.024411  -0.040593  0.00022  3.974433  0.0
C  C46  1  0.13787593  0.46658040  0.90842531  1  -0.086883  3e-06  3.769228  0.0  -0.107782  -1.2e-05  4.018336  0.0  -0.108261  -1.1e-05  4.038268  0.0  -0.094913  -0.107344  -9e-06  4.004901  0.0
C  C47  1  0.86212616  0.53340794  0.09158205  1  -0.086689  -3.2e-05  3.769238  0.0  -0.107578  -1.2e-05  4.018308  0.0  -0.108074  -1.1e-05  4.038231  0.0  -0.094785  -0.107139  -9e-06  4.004878  0.0
C  C48  1  0.89142073  0.43071773  0.04373923  1  -0.089459  -1e-06  3.766692  0.0  -0.107052  -2.1e-05  4.005744  0.0  -0.108278  -2e-05  4.025749  0.0  -0.094622  -0.106066  -1.8e-05  3.992161  0.0
C  C49  1  0.10858165  0.56927579  0.95626617  1  -0.089207  -3.5e-05  3.766676  0.0  -0.106788  -2.1e-05  4.0057  0.0  -0.108012  -2e-05  4.025696  0.0  -0.094567  -0.10581  -1.8e-05  3.992119  0.0
C  C50  1  0.62643552  0.10981534  0.10249513  1  0.042368  -0.001803  3.700972  -0.001  0.003939  4.9e-05  3.969707  0.0  0.015573  -0.000428  3.987246  0.0  0.016329  -0.003929  0.000278  3.958155  0.001
C  C51  1  0.37356582  0.89018338  0.89750141  1  0.042638  -0.001805  3.701232  -0.001  0.004199  4.9e-05  3.969917  0.0  0.015835  -0.000428  3.987453  0.0  0.016423  -0.003673  0.000278  3.958366  0.001
C  C52  1  0.45762049  0.16575632  0.06318833  1  -0.222607  0.001249  3.778547  0.001  -0.233468  0.000655  4.039985  0.001  -0.244169  0.000701  4.060904  0.001  -0.119212  -0.226394  0.000581  4.025829  0.001
C  C53  1  0.54237627  0.83424423  0.93680749  1  -0.222708  0.001254  3.778973  0.001  -0.233615  0.000655  4.040425  0.001  -0.244317  0.000702  4.061344  0.001  -0.119274  -0.226539  0.000581  4.02626  0.001
C  C54  1  0.48007131  0.15788575  0.94029338  1  0.07389  -0.002033  3.660625  -0.001  0.020855  -0.000229  3.93259  0.0  0.030577  -0.000581  3.946506  0.0  0.024457  0.014607  -3.8e-05  3.923104  0.0
C  C55  1  0.51992568  0.84211133  0.05970399  1  0.073797  -0.002042  3.660701  -0.001  0.020744  -0.00023  3.932653  0.0  0.03046  -0.000583  3.94657  0.0  0.02447  0.014528  -3.9e-05  3.923196  0.0
C  C56  1  0.01248870  0.91264411  0.77422261  1  0.032664  0.000316  3.687262  0.0  -0.00745  -0.000484  3.960513  0.0  0.003781  -0.000206  3.974557  0.0  0.019036  -0.014763  -0.000592  3.950981  0.0
C  C57  1  0.98752497  0.08735521  0.22576883  1  0.032773  0.000339  3.687002  0.0  -0.007259  -0.000483  3.960274  0.0  0.003974  -0.000204  3.974306  0.0  0.019088  -0.014569  -0.000591  3.950732  0.0
C  C58  1  0.06891571  0.93497433  0.65117187  1  -0.214094  -0.001196  3.776326  -0.001  -0.226883  -0.000983  4.04074  -0.001  -0.237486  -0.000961  4.062301  -0.001  -0.116337  -0.21982  -0.000902  4.025889  -0.001
C  C59  1  0.93109919  0.06503104  0.34882263  1  -0.214273  -0.001218  3.77632  -0.001  -0.227197  -0.000983  4.040727  -0.001  -0.237767  -0.000962  4.062299  -0.001  -0.116443  -0.220135  -0.000902  4.025883  -0.001
C  C60  1  0.10638593  0.04017111  0.63796550  1  0.067956  -0.000128  3.68314  0.0  0.015926  -0.000691  3.95061  -0.001  0.025338  -0.00057  3.966042  -0.001  0.025639  0.010175  -0.000683  3.939683  -0.001
C  C61  1  0.89363008  0.95983772  0.36203525  1  0.068292  -0.000103  3.682866  0.0  0.016294  -0.000692  3.950302  -0.001  0.025701  -0.000571  3.965726  -0.001  0.025809  0.010546  -0.000682  3.939387  -0.001
C  C62  1  0.54713824  0.19438823  0.59106622  1  0.637271  2e-06  3.928886  0.0  0.593079  -6e-06  4.222764  0.0  0.626121  -7e-06  4.214188  0.0  0.200939  0.570792  -4e-06  4.227727  0.0
C  C63  1  0.45285434  0.80561327  0.40893167  1  0.637113  -2e-06  3.929188  0.0  0.592955  -6e-06  4.22303  0.0  0.626  -6e-06  4.214463  0.0  0.200988  0.570663  -4e-06  4.227992  0.0
C  C64  1  0.52681059  0.09222821  0.54468949  1  -0.0495  -4.5e-05  3.754065  0.0  -0.027524  -2.7e-05  3.982528  0.0  -0.032936  -2.5e-05  4.00389  0.0  -0.016133  -0.024036  -2.9e-05  3.968089  0.0
C  C65  1  0.47318741  0.90777231  0.45530266  1  -0.049725  -4e-06  3.754484  0.0  -0.027768  -2.7e-05  3.982944  0.0  -0.033186  -2.4e-05  4.004311  0.0  -0.016218  -0.024278  -2.9e-05  3.968505  0.0
C  C66  1  0.45828719  0.11063524  0.43361927  1  -0.101029  2.3e-05  3.777905  0.0  -0.121226  -8e-06  4.024248  0.0  -0.122278  -5e-06  4.043559  0.0  -0.091101  -0.120407  -9e-06  4.011102  0.0
C  C67  1  0.54171064  0.88936266  0.56637076  1  -0.100777  -2e-05  3.777678  0.0  -0.120983  -7e-06  4.024011  0.0  -0.122029  -5e-06  4.04332  0.0  -0.091055  -0.120164  -9e-06  4.010862  0.0
C  C68  1  0.56965346  0.98016750  0.61073406  1  -0.084666  -8e-06  3.75772  0.0  -0.106554  -3.2e-05  4.007491  0.0  -0.106994  -2.7e-05  4.026235  0.0  -0.088469  -0.106143  -3.5e-05  3.99477  0.0
C  C69  1  0.43034693  0.01983036  0.38925833  1  -0.08441  -5e-05  3.757734  0.0  -0.106212  -3.1e-05  4.007468  0.0  -0.106644  -2.6e-05  4.026212  0.0  -0.088402  -0.105805  -3.5e-05  3.99475  0.0
C  C70  1  0.49527622  0.42231658  0.27243714  1  0.044198  -3e-06  3.676605  0.0  0.0061  -0.0  3.94408  0.0  0.016574  -0.0  3.957205  0.0  0.022648  -0.000618  0.0  3.935596  0.0
C  C71  1  0.50472300  0.57769606  0.72756394  1  0.044183  -6e-06  3.676574  0.0  0.006146  -0.0  3.944113  0.0  0.016668  -0.0  3.957264  0.0  0.022585  -0.000572  0.0  3.935624  0.0
C  C72  1  0.43095108  0.46795191  0.15956716  1  -0.21595  4e-06  3.777592  0.0  -0.225073  0.0  4.034454  0.0  -0.235549  0.0  4.056087  0.0  -0.113818  -0.21813  3e-06  4.019639  0.0
C  C73  1  0.56905170  0.53205547  0.84043808  1  -0.21598  7e-06  3.777455  0.0  -0.225145  0.0  4.03432  0.0  -0.235626  2e-06  4.055947  0.0  -0.113912  -0.218202  3e-06  4.019508  0.0
C  C74  1  0.36837241  0.58879167  0.15883867  1  0.053942  -4e-06  3.663961  0.0  0.004726  7e-06  3.931787  0.0  0.013586  4e-06  3.946168  0.0  0.024432  -0.000746  9e-06  3.921794  0.0
C  C75  1  0.63160978  0.41121962  0.84117086  1  0.054013  -9e-06  3.663843  0.0  0.004811  6e-06  3.931647  0.0  0.013674  3e-06  3.946023  0.0  0.024473  -0.000688  9e-06  3.921643  0.0
C  C76  1  0.12715216  0.65381960  0.51190750  1  0.031573  -0.0  3.691522  0.0  -0.010193  -2e-06  3.966462  0.0  -5.4e-05  -1e-06  3.980867  0.0  0.014483  -0.016593  -2e-06  3.957081  0.0
C  C77  1  0.87284430  0.34618185  0.48809790  1  0.031639  -0.0  3.691825  0.0  -0.010206  -1e-06  3.96676  0.0  -3.1e-05  0.0  3.98119  0.0  0.014486  -0.016607  -2e-06  3.957377  0.0
C  C78  1  0.96130314  0.64956025  0.57074887  1  -0.214374  -2e-06  3.766294  0.0  -0.224752  -0.0  4.024226  0.0  -0.235098  -1e-06  4.044914  0.0  -0.119355  -0.217987  -3e-06  4.010172  0.0
C  C79  1  0.03868577  0.35043529  0.42925948  1  -0.214367  -1e-06  3.766248  0.0  -0.224723  -0.0  4.024155  0.0  -0.235073  -1e-06  4.044841  0.0  -0.1193  -0.217959  -3e-06  4.010107  0.0
C  C80  1  0.99277714  0.53796665  0.63539744  1  0.081933  2e-06  3.666316  0.0  0.030336  -0.0  3.933394  0.0  0.040278  -1e-06  3.948074  0.0  0.030664  0.024182  -0.0  3.923072  0.0
C  C81  1  0.00722225  0.46203387  0.36460780  1  0.081864  -2e-06  3.66622  0.0  0.030302  -0.0  3.933339  0.0  0.040244  -1e-06  3.94802  0.0  0.03061  0.024122  -0.0  3.922999  0.0
N  N82  1  0.74538782  0.06959393  0.00933072  1  -0.143022  0.020291  3.257358  0.019  -0.119952  0.017111  3.568421  0.015  -0.152851  0.017829  3.592418  0.015  -0.250009  -0.098594  0.014846  3.552834  0.013
N  N83  1  0.25461735  0.93040471  0.99066627  1  -0.143134  0.020292  3.257464  0.019  -0.120042  0.01711  3.568518  0.015  -0.152943  0.017828  3.592515  0.015  -0.25004  -0.098673  0.014846  3.552922  0.013
N  N84  1  0.65265168  0.10000211  0.91216501  1  -0.165221  0.001034  3.487093  0.001  -0.103088  0.00087  3.729561  0.001  -0.113478  0.000876  3.751829  0.001  -0.282093  -0.096502  0.00077  3.715044  0.001
N  N85  1  0.34735003  0.89999574  0.08783254  1  -0.165158  0.001037  3.487024  0.001  -0.103054  0.000869  3.729502  0.001  -0.113444  0.000875  3.751774  0.001  -0.282102  -0.096473  0.000769  3.714981  0.001
N  N86  1  0.01538042  0.99975291  0.83133321  1  -0.163305  -0.017399  3.311822  -0.016  -0.135459  -0.014559  3.621261  -0.013  -0.166544  -0.015287  3.642876  -0.013  -0.270164  -0.115003  -0.01254  3.606822  -0.011
N  N87  1  0.98462069  0.00024928  0.16866178  1  -0.163415  -0.017413  3.312017  -0.016  -0.135642  -0.014562  3.621528  -0.013  -0.16673  -0.01529  3.643145  -0.013  -0.27027  -0.11516  -0.012542  3.607064  -0.011
N  N88  1  0.07325937  0.07673270  0.74726926  1  -0.152003  -0.000995  3.398801  -0.001  -0.085766  -0.001004  3.635567  -0.001  -0.096887  -0.000949  3.654516  -0.001  -0.265035  -0.078581  -0.000941  3.623104  -0.001
N  N89  1  0.92674449  0.92327205  0.25273285  1  -0.151959  -0.001007  3.398845  -0.001  -0.085695  -0.001004  3.635603  -0.001  -0.096827  -0.00095  3.654553  -0.001  -0.264976  -0.078533  -0.000941  3.623146  -0.001
N  N90  1  0.47115506  0.51030252  0.33616602  1  -0.14027  -2e-06  3.322569  0.0  -0.111811  -2.7e-05  3.635937  0.0  -0.133229  -1.4e-05  3.652891  0.0  -0.265939  -0.099431  2e-06  3.625553  0.0
N  N91  1  0.52884087  0.48971193  0.66383596  1  -0.140132  1e-06  3.323006  0.0  -0.111831  -2.7e-05  3.636379  0.0  -0.13326  -1.5e-05  3.653331  0.0  -0.265918  -0.099455  2e-06  3.625994  0.0
N  N92  1  0.39396675  0.61085757  0.26621091  1  -0.156453  -4e-06  3.422428  0.0  -0.094642  -7e-06  3.664599  0.0  -0.106114  -6e-06  3.682053  0.0  -0.271605  -0.087078  -3e-06  3.653395  0.0
N  N93  1  0.60601832  0.38915277  0.73379316  1  -0.15676  -3e-06  3.422674  0.0  -0.09456  -7e-06  3.664609  0.0  -0.106026  -8e-06  3.682066  0.0  -0.271592  -0.087015  -3e-06  3.653415  0.0
N  N94  1  0.25140907  0.55038779  0.53923509  1  -0.138707  5e-06  3.319112  0.0  -0.107151  3e-05  3.62606  0.0  -0.13036  1.7e-05  3.645562  0.0  -0.261752  -0.093626  2e-06  3.613943  0.0
N  N95  1  0.74859289  0.44961268  0.46077252  1  -0.138838  7e-06  3.31915  0.0  -0.107143  3e-05  3.625973  0.0  -0.130429  1.7e-05  3.645546  0.0  -0.26172  -0.093628  2e-06  3.613865  0.0
N  N96  1  0.16762429  0.48171767  0.61443687  1  -0.157267  -1e-06  3.480609  0.0  -0.092565  1e-06  3.714132  0.0  -0.103852  0.0  3.733668  0.0  -0.273377  -0.085098  -1e-06  3.701632  0.0
N  N97  1  0.83237399  0.51828547  0.38556886  1  -0.157219  -2e-06  3.480598  0.0  -0.092608  0.0  3.714113  0.0  -0.10386  -0.0  3.73367  0.0  -0.273416  -0.085141  -1e-06  3.701606  0.0
O  O98  1  0.97704382  0.21500614  0.96488016  1  -0.63896  -0.000491  1.997631  0.0  -0.605476  -2.3e-05  2.251418  0.0  -0.630048  4.4e-05  2.236951  0.0  -0.330573  -0.589286  -0.000157  2.261686  0.0
O  O99  1  0.02296275  0.78498643  0.03512318  1  -0.638867  -0.000489  1.997543  0.0  -0.605404  -2.3e-05  2.251351  0.0  -0.629976  4.5e-05  2.236888  0.0  -0.330512  -0.589224  -0.000157  2.261644  0.0
O  O100  1  0.13475933  0.27096314  0.79511649  1  -0.639033  0.000147  1.907477  0.0  -0.58754  0.000151  2.125627  0.0  -0.610212  0.000114  2.115884  0.0  -0.340003  -0.571511  0.00016  2.131682  0.0
O  O101  1  0.86524226  0.72903212  0.20488424  1  -0.639034  0.000151  1.907296  0.0  -0.587521  0.000151  2.125439  0.0  -0.610205  0.000114  2.115699  0.0  -0.339979  -0.571484  0.00016  2.131491  0.0
O  O102  1  0.45258313  0.29473068  0.54946499  1  -0.634676  -3e-06  1.989348  0.0  -0.598697  0.0  2.242966  0.0  -0.620352  2e-06  2.228864  0.0  -0.322464  -0.583969  1e-06  2.252293  0.0
O  O103  1  0.54742008  0.70526367  0.45053220  1  -0.634588  0.0  1.989316  0.0  -0.598642  0.0  2.242944  0.0  -0.620299  2e-06  2.228835  0.0  -0.322497  -0.583913  1e-06  2.252269  0.0
O  O104  1  0.65856255  0.17463746  0.66833233  1  -0.64925  3e-06  1.980141  0.0  -0.595989  9e-06  2.207766  0.0  -0.620079  7e-06  2.199862  0.0  -0.33126  -0.578913  9e-06  2.212563  0.0
O  O105  1  0.34143572  0.82535959  0.33166490  1  -0.649112  5e-06  1.980449  0.0  -0.595901  9e-06  2.208054  0.0  -0.619999  7e-06  2.200154  0.0  -0.331204  -0.578809  9e-06  2.212832  0.0
