# generated using pymatgen
data_MnH7C7N8
_symmetry_space_group_name_H-M   'P 1'
_cell_length_a   8.12079651
_cell_length_b   10.13391230
_cell_length_c   12.56568767
_cell_angle_alpha   90.03414120
_cell_angle_beta   89.98814478
_cell_angle_gamma   106.42678172
_symmetry_Int_Tables_number   1
_chemical_formula_structural   MnH7C7N8
_chemical_formula_sum   'Mn4 H28 C28 N32'
_cell_volume   991.88866150
_cell_formula_units_Z   4
loop_
 _symmetry_equiv_pos_site_id
 _symmetry_equiv_pos_as_xyz
  1  'x, y, z'
loop_
 _atom_site_type_symbol
 _atom_site_label
 _atom_site_symmetry_multiplicity
 _atom_site_fract_x
 _atom_site_fract_y
 _atom_site_fract_z
 _atom_site_occupancy
 _atom_site_pbe_bader_charge
 _atom_site_pbe_bader_spin_density
 _atom_site_pbe_cm5_charge
 _atom_site_pbe_ddec_charge
 _atom_site_pbe_ddec_spin_density
 _atom_site_pbe_ddec_sum_bond_order
 _atom_site_pbe_magmom
Mn  Mn0  1  0.14938199  0.13067438  0.56571679  1  1.46043  4.390079  0.654986  0.757344  4.549025  2.761189  4.32
Mn  Mn1  1  0.35084050  0.86939727  0.06602403  1  1.462481  4.38803  0.655342  0.758129  4.550145  2.761729  4.318
Mn  Mn2  1  0.85108672  0.86939941  0.43400329  1  1.462019  4.388013  0.655386  0.757707  4.550548  2.76231  4.318
Mn  Mn3  1  0.64956812  0.13063956  0.93451493  1  1.459943  4.389808  0.655164  0.758534  4.546932  2.759299  4.319
H  H4  1  0.11169508  0.44481456  0.57605638  1  0.119741  0.002038  0.115919  0.081366  0.001262  1.026564  0.001
H  H5  1  0.38607672  0.55374084  0.07683432  1  0.128561  0.002017  0.115927  0.081489  0.001243  1.025881  0.001
H  H6  1  0.88599847  0.55400093  0.42265495  1  0.12423  0.002024  0.116306  0.082053  0.001252  1.025731  0.001
H  H7  1  0.61175237  0.44517752  0.92450245  1  0.129204  0.002029  0.115651  0.081096  0.001261  1.026674  0.001
H  H8  1  0.18859928  0.65118184  0.45732172  1  0.113498  0.00146  0.103192  0.099652  0.000669  1.06831  0.0
H  H9  1  0.30926424  0.34771332  0.95765795  1  0.110557  0.001449  0.103133  0.099915  0.000665  1.066671  0.0
H  H10  1  0.80980184  0.34819597  0.54193576  1  0.112366  0.001447  0.103236  0.100064  0.000665  1.066673  0.0
H  H11  1  0.68936509  0.65174667  0.04313707  1  0.111814  0.00145  0.103272  0.100047  0.000658  1.066734  0.0
H  H12  1  0.38801873  0.65532061  0.30281043  1  0.119757  0.000344  0.109087  0.103993  -0.000122  1.028303  0.0
H  H13  1  0.11118297  0.34455555  0.80258608  1  0.1153  0.000329  0.109264  0.104441  -0.000129  1.027164  0.0
H  H14  1  0.61226030  0.34518455  0.69726159  1  0.122087  0.000327  0.109424  0.104646  -0.000129  1.026854  0.0
H  H15  1  0.88939228  0.65605225  0.19731965  1  0.111286  0.000327  0.109707  0.104792  -0.000139  1.027822  0.0
H  H16  1  0.50702993  0.45372002  0.27798863  1  0.108428  0.001383  0.109855  0.118393  0.000935  1.007677  0.0
H  H17  1  0.99350452  0.54680919  0.77768978  1  0.108408  0.001382  0.110098  0.118585  0.000938  1.008223  0.0
H  H18  1  0.49407268  0.54720534  0.72221644  1  0.11023  0.001385  0.109821  0.118049  0.000942  1.008463  0.0
H  H19  1  0.00792507  0.45421159  0.22204261  1  0.108839  0.00138  0.109942  0.118152  0.000934  1.007356  0.0
H  H20  1  0.52818504  0.22563471  0.33963311  1  0.136437  0.002769  0.120482  0.09411  0.001968  1.004959  0.001
H  H21  1  0.97295116  0.77505395  0.83952844  1  0.139704  0.002798  0.120213  0.093538  0.001992  1.003847  0.001
H  H22  1  0.47253870  0.77507588  0.66012782  1  0.141356  0.002778  0.120472  0.093772  0.001983  1.003742  0.001
H  H23  1  0.02796376  0.22563693  0.16062322  1  0.134638  0.002791  0.120368  0.093921  0.001981  1.004802  0.001
H  H24  1  0.51441413  0.00680503  0.37702458  1  0.07154  0.003  0.10581  0.07997  0.001544  1.011461  0.001
H  H25  1  0.98686210  0.99405239  0.87775567  1  0.072897  0.003019  0.105623  0.080492  0.001547  1.011139  0.001
H  H26  1  0.48634782  0.99402694  0.62207349  1  0.07008  0.003001  0.10563  0.080407  0.001536  1.011319  0.001
H  H27  1  0.01405384  0.00675994  0.12285762  1  0.073406  0.003036  0.105743  0.080427  0.001562  1.011935  0.001
H  H28  1  0.33381813  0.90835615  0.45183472  1  0.062974  0.000335  0.111797  0.091022  -0.000394  0.99326  0.0
H  H29  1  0.16748492  0.09166987  0.95299626  1  0.059349  0.000302  0.112019  0.090739  -0.000414  0.994277  0.0
H  H30  1  0.66710630  0.09180780  0.54707047  1  0.062268  0.00032  0.111944  0.09098  -0.000405  0.99376  0.0
H  H31  1  0.83358946  0.90868233  0.04775609  1  0.065473  0.000299  0.111883  0.091053  -0.000417  0.992388  0.0
C  C32  1  0.19765440  0.45064481  0.50847199  1  0.48527  0.010905  0.055258  0.102733  0.008899  3.935871  0.007
C  C33  1  0.30087251  0.54843810  0.00893568  1  0.478122  0.010798  0.055659  0.103056  0.008781  3.9371  0.007
C  C34  1  0.80093041  0.54870917  0.49062869  1  0.48068  0.010945  0.055222  0.102567  0.008913  3.93609  0.007
C  C35  1  0.69786686  0.45099196  0.99199223  1  0.476007  0.010784  0.056297  0.10336  0.008783  3.935949  0.007
C  C36  1  0.24182080  0.56584366  0.44213984  1  -0.015802  0.002094  -0.081497  -0.123713  0.001386  3.964122  0.001
C  C37  1  0.25676835  0.43339681  0.94233626  1  0.002337  0.002169  -0.081213  -0.123924  0.001458  3.963792  0.001
C  C38  1  0.75712902  0.43379714  0.55727213  1  -0.004145  0.002094  -0.081372  -0.124304  0.001388  3.964421  0.0
C  C39  1  0.74245449  0.56634464  0.05825594  1  0.003908  0.0022  -0.08148  -0.123596  0.001485  3.963407  0.001
C  C40  1  0.35316063  0.56833418  0.35740012  1  -0.093282  0.010159  -0.06727  -0.021447  0.007703  3.931347  0.006
C  C41  1  0.14612748  0.43144316  0.85733617  1  -0.098108  0.010099  -0.067315  -0.021796  0.007668  3.930503  0.006
C  C42  1  0.64678395  0.43192530  0.64243068  1  -0.102415  0.010246  -0.067073  -0.021857  0.007773  3.932036  0.006
C  C43  1  0.85408494  0.56890872  0.14282652  1  -0.075763  0.00998  -0.067856  -0.02327  0.007589  3.931576  0.006
C  C44  1  0.41917497  0.45659428  0.34289252  1  0.028182  0.00197  -0.068372  -0.131972  0.001189  3.906955  0.001
C  C45  1  0.08074224  0.54351409  0.84283235  1  0.019223  0.002054  -0.068405  -0.132259  0.001253  3.906361  0.001
C  C46  1  0.58118044  0.54388302  0.65699088  1  0.024178  0.001986  -0.06776  -0.130232  0.001195  3.905619  0.001
C  C47  1  0.91986039  0.45704945  0.15726595  1  -0.006796  0.00211  -0.067916  -0.13059  0.00128  3.905271  0.001
C  C48  1  0.36763881  0.34463205  0.41206976  1  0.466068  0.008494  0.119079  0.189337  0.006464  4.007236  0.005
C  C49  1  0.13215155  0.65526122  0.91232471  1  0.476028  0.008424  0.118844  0.188662  0.006424  4.006021  0.005
C  C50  1  0.63222380  0.65548959  0.58743151  1  0.476455  0.008517  0.117872  0.187453  0.006502  4.007533  0.005
C  C51  1  0.86797828  0.34497240  0.08812522  1  0.474275  0.0084  0.118091  0.187663  0.006393  4.005918  0.005
C  C52  1  0.43047555  0.22339543  0.40052103  1  0.666547  0.018519  0.093393  0.06028  0.015688  3.883234  0.012
C  C53  1  0.06985659  0.77680544  0.90084576  1  0.65091  0.019061  0.094369  0.061651  0.016101  3.881152  0.012
C  C54  1  0.56971111  0.77692147  0.59895724  1  0.649673  0.018923  0.094321  0.061184  0.015977  3.881457  0.012
C  C55  1  0.93062279  0.22362237  0.09955251  1  0.661613  0.018997  0.094226  0.061839  0.016091  3.881525  0.012
C  C56  1  0.44206052  0.00254415  0.45162831  1  0.293552  0.003304  -0.057849  -0.050517  0.002211  3.897291  0.002
C  C57  1  0.05879232  0.99779918  0.95245475  1  0.319714  0.003303  -0.057786  -0.049554  0.002217  3.895792  0.002
C  C58  1  0.55855656  0.99783000  0.54745763  1  0.320446  0.003294  -0.057622  -0.049982  0.002209  3.896388  0.002
C  C59  1  0.94203749  0.00272816  0.04816240  1  0.291482  0.003328  -0.05749  -0.050487  0.002235  3.897499  0.002
N  N60  1  0.25708798  0.34168282  0.49353048  1  -1.256933  0.051334  -0.310155  -0.269655  0.035788  3.485613  0.019
N  N61  1  0.24212782  0.65774222  0.99400728  1  -1.253478  0.051342  -0.31037  -0.269919  0.035961  3.483323  0.02
N  N62  1  0.74206515  0.65795471  0.50565864  1  -1.256708  0.051297  -0.309929  -0.269286  0.035858  3.483736  0.019
N  N63  1  0.75719296  0.34197343  0.00680693  1  -1.248504  0.051373  -0.310237  -0.269575  0.035934  3.484306  0.02
N  N64  1  0.37281779  0.11949179  0.46230240  1  -1.221312  0.051209  -0.312324  -0.202862  0.035113  3.438632  0.02
N  N65  1  0.12722415  0.88040519  0.96301292  1  -1.22065  0.051372  -0.31284  -0.204  0.035126  3.440481  0.02
N  N66  1  0.62725117  0.88058645  0.53692031  1  -1.220511  0.051297  -0.312995  -0.203664  0.035106  3.440371  0.02
N  N67  1  0.87318368  0.11986936  0.03752694  1  -1.225064  0.051341  -0.313383  -0.204251  0.035111  3.440097  0.02
N  N68  1  0.02564772  0.91031832  0.57458395  1  -0.404746  0.052801  -0.303854  -0.521726  0.040695  3.145519  0.007
N  N69  1  0.47425547  0.08993832  0.07497374  1  -0.395937  0.052806  -0.303994  -0.523172  0.040883  3.144382  0.007
N  N70  1  0.97412998  0.08976532  0.42501201  1  -0.397784  0.052866  -0.304486  -0.523153  0.040898  3.144334  0.007
N  N71  1  0.52611981  0.91009855  0.92603317  1  -0.408168  0.052975  -0.304796  -0.522934  0.040753  3.149079  0.007
N  N72  1  0.08824624  0.82617364  0.61219444  1  -0.319684  0.038702  0.092491  0.427323  0.024023  4.45798  0.024
N  N73  1  0.41143805  0.17392995  0.11270725  1  -0.325469  0.038614  0.093073  0.428546  0.023918  4.45881  0.024
N  N74  1  0.91133063  0.17367656  0.38722634  1  -0.315591  0.038627  0.093632  0.429292  0.023953  4.458963  0.024
N  N75  1  0.58843099  0.82592210  0.88808631  1  -0.313839  0.038672  0.093426  0.427701  0.023993  4.460668  0.024
N  N76  1  0.14846138  0.74385857  0.64787674  1  -0.041091  0.12289  -0.192076  -0.39854  0.0952  2.627885  0.084
N  N77  1  0.35093681  0.25604561  0.14852674  1  -0.043769  0.122664  -0.192076  -0.398677  0.094985  2.629271  0.084
N  N78  1  0.85086429  0.25573765  0.35136012  1  -0.052401  0.122789  -0.192365  -0.399447  0.09509  2.629857  0.084
N  N79  1  0.64842394  0.74361237  0.85208133  1  -0.044219  0.123127  -0.192086  -0.39806  0.095369  2.62817  0.084
N  N80  1  0.96715392  0.21248387  0.65030032  1  -0.256557  0.081274  -0.25431  -0.475546  0.062942  2.965177  0.036
N  N81  1  0.53074597  0.78589875  0.15098688  1  -0.259264  0.0812  -0.254568  -0.475608  0.062815  2.965889  0.036
N  N82  1  0.03298675  0.78664655  0.35000349  1  -0.254243  0.081021  -0.254609  -0.47527  0.062741  2.965751  0.036
N  N83  1  0.46826515  0.21287966  0.84958343  1  -0.257129  0.081391  -0.254565  -0.475854  0.063051  2.964525  0.036
N  N84  1  0.87240366  0.16128768  0.72038516  1  -0.338302  0.051631  0.100775  0.438517  0.034414  4.4801  0.038
N  N85  1  0.62729211  0.83730940  0.22019807  1  -0.338945  0.05173  0.09899  0.436063  0.034545  4.478119  0.038
N  N86  1  0.12775766  0.83819673  0.28001431  1  -0.341722  0.05174  0.099658  0.435697  0.034562  4.480321  0.038
N  N87  1  0.37318836  0.16191436  0.77957815  1  -0.341803  0.05163  0.099373  0.436578  0.034403  4.478095  0.038
N  N88  1  0.77737683  0.10985912  0.78932791  1  -0.197737  0.093863  -0.245455  -0.449235  0.072813  2.984973  0.043
N  N89  1  0.72420043  0.88887614  0.28822753  1  -0.194928  0.094149  -0.243328  -0.445931  0.072979  2.983946  0.043
N  N90  1  0.22274653  0.89003284  0.21118076  1  -0.197276  0.094066  -0.243869  -0.446003  0.072855  2.985442  0.043
N  N91  1  0.27780414  0.11072502  0.71070364  1  -0.193891  0.0939  -0.2438  -0.446514  0.072821  2.983951  0.043
