# generated using pymatgen
data_CeH14(C11O4)2
_symmetry_space_group_name_H-M   'P 1'
_cell_length_a   8.64535421
_cell_length_b   14.27708268
_cell_length_c   14.90274966
_cell_angle_alpha   114.27067199
_cell_angle_beta   106.95785573
_cell_angle_gamma   89.82524026
_symmetry_Int_Tables_number   1
_chemical_formula_structural   CeH14(C11O4)2
_chemical_formula_sum   'Ce2 H28 C44 O16'
_cell_volume   1589.49532563
_cell_formula_units_Z   2
loop_
 _symmetry_equiv_pos_site_id
 _symmetry_equiv_pos_as_xyz
  1  'x, y, z'
loop_
 _atom_site_type_symbol
 _atom_site_label
 _atom_site_symmetry_multiplicity
 _atom_site_fract_x
 _atom_site_fract_y
 _atom_site_fract_z
 _atom_site_occupancy
 _atom_site_pbe_bader_charge
 _atom_site_pbe_bader_spin_density
 _atom_site_pbe_cm5_charge
 _atom_site_pbe_ddec_charge
 _atom_site_pbe_ddec_spin_density
 _atom_site_pbe_ddec_sum_bond_order
 _atom_site_pbe_magmom
Ce  Ce0  1  0.95554692  0.99473147  0.45291229  1  2.286406  0.845618  1.364804  2.03638  0.971571  2.448354  0.825
Ce  Ce1  1  0.50272960  0.00603408  0.54730865  1  2.288958  0.844215  1.36432  2.037166  0.971945  2.448151  0.823
H  H2  1  0.79289105  0.19735760  0.32936069  1  0.112852  5.4e-05  0.106527  0.111796  -9.5e-05  1.009818  0.0
H  H3  1  0.46347274  0.80153336  0.67046895  1  0.098166  3.4e-05  0.10656  0.111156  -6.4e-05  1.009443  0.0
H  H4  1  0.79253987  0.36324398  0.31248484  1  0.039585  4.2e-05  0.100406  0.097468  -3.5e-05  1.011134  0.0
H  H5  1  0.48031254  0.63557110  0.68716210  1  0.060929  2.6e-05  0.100808  0.098218  -4.8e-05  1.01146  0.0
H  H6  1  0.42071218  0.44596711  0.46166030  1  0.06407  5.8e-05  0.099096  0.099619  -2.6e-05  1.026817  0.0
H  H7  1  0.95913777  0.55425374  0.53799443  1  0.08016  6.5e-05  0.099122  0.100014  -2.5e-05  1.0262  0.0
H  H8  1  0.42303393  0.28065267  0.47771274  1  0.100267  0.000179  0.099196  0.096148  -3.1e-05  1.056586  0.0
H  H9  1  0.94518376  0.71968072  0.52223279  1  0.112698  0.000133  0.099386  0.096728  -8e-06  1.054082  0.0
H  H10  1  0.68875122  0.46613962  0.24482925  1  0.065902  5.3e-05  0.101841  0.100099  -4.1e-05  1.006666  0.0
H  H11  1  0.44461319  0.53308701  0.75492758  1  0.035021  5.3e-05  0.101688  0.100227  -3e-05  1.006589  0.0
H  H12  1  0.73331922  0.64121536  0.25312000  1  0.07931  0.000135  0.10703  0.109268  -2.8e-05  1.006198  0.0
H  H13  1  0.48152465  0.35813373  0.74705035  1  0.068908  0.000174  0.106592  0.108944  -5.2e-05  1.008364  0.0
H  H14  1  0.58501924  0.77325005  0.52647305  1  0.104574  0.000194  0.109082  0.091505  2.1e-05  1.05069  0.0
H  H15  1  0.06006174  0.22618325  0.47359913  1  0.108582  0.000145  0.109463  0.092432  -1.7e-05  1.049893  0.0
H  H16  1  0.54632605  0.60044309  0.52139142  1  0.081899  0.000128  0.096857  0.094173  -7e-06  1.046219  0.0
H  H17  1  0.02540482  0.39883613  0.47817350  1  0.067376  0.000135  0.096851  0.094704  -1e-06  1.043858  0.0
H  H18  1  0.18787520  0.28156524  0.77003386  1  0.092562  0.000161  0.103046  0.106647  -2.3e-05  1.030508  0.0
H  H19  1  0.41752104  0.71887257  0.22957653  1  0.134826  0.000144  0.102731  0.106422  -2.9e-05  1.029149  0.0
H  H20  1  0.26742249  0.44726246  0.92652769  1  0.056838  9.4e-05  0.09813  0.095635  -1.8e-05  1.021253  0.0
H  H21  1  0.34112033  0.55270521  0.07367010  1  0.050362  7.3e-05  0.097749  0.094842  -2.5e-05  1.020975  0.0
H  H22  1  0.78438981  0.42547898  0.95175686  1  0.023425  7.1e-05  0.096666  0.094039  -2.6e-05  1.022214  0.0
H  H23  1  0.83266486  0.57500464  0.04879620  1  0.047009  7.7e-05  0.096456  0.093819  -2.8e-05  1.021628  0.0
H  H24  1  0.70437848  0.26293179  0.79041980  1  0.115106  8.1e-05  0.107952  0.114911  -7.9e-05  1.027007  0.0
H  H25  1  0.91362445  0.73783009  0.20971246  1  0.112703  8.1e-05  0.108291  0.1157  -7.3e-05  1.026875  0.0
H  H26  1  0.24537051  0.08423297  0.35031890  1  0.212712  9.1e-05  0.14678  0.074516  -4.8e-05  0.993998  0.0
H  H27  1  0.89441624  0.91563039  0.65021682  1  0.220418  1.6e-05  0.146819  0.075129  -4.9e-05  0.992781  0.0
H  H28  1  0.02932793  0.98196008  0.14459115  1  0.630421  1.9e-05  0.355576  0.382509  -3e-06  0.837524  0.0
H  H29  1  0.88504930  0.01900336  0.85603365  1  0.605982  1.1e-05  0.356167  0.382998  -5e-06  0.834561  0.0
C  C30  1  0.61874962  0.13247798  0.42156456  1  1.551348  0.022374  0.24185  0.645712  0.007765  4.139544  0.016
C  C31  1  0.19731267  0.86695728  0.57790052  1  1.558901  0.010774  0.246126  0.652023  0.003509  4.135598  0.007
C  C32  1  0.60908471  0.22863869  0.40531510  1  0.000644  0.005404  -0.018579  -0.049456  0.001297  3.969037  0.002
C  C33  1  0.20370601  0.77091473  0.59456423  1  -0.026924  0.006657  -0.018242  -0.050785  0.001896  3.968452  0.003
C  C34  1  0.71134491  0.25241922  0.35752377  1  -0.067557  0.006627  -0.082298  -0.084758  0.00201  3.977543  0.004
C  C35  1  0.35382223  0.74677145  0.64232950  1  -0.040269  0.003148  -0.081866  -0.082928  0.000879  3.979891  0.001
C  C36  1  0.70974439  0.34515776  0.34785971  1  -0.055609  0.001034  -0.094078  -0.141875  -0.00014  3.999349  0.0
C  C37  1  0.36201064  0.65397318  0.65187638  1  -0.09034  0.002702  -0.09349  -0.142246  0.000734  3.998253  0.001
C  C38  1  0.60821589  0.41818858  0.38697757  1  -0.037242  0.012125  -0.006933  0.065167  0.003749  3.99844  0.007
C  C39  1  0.22138108  0.58126858  0.61269027  1  -0.029578  0.007507  -0.005083  0.06797  0.002305  3.998415  0.004
C  C40  1  0.50350735  0.39241202  0.43267545  1  -0.038271  0.001195  -0.091588  -0.130435  -6.1e-05  3.967606  0.0
C  C41  1  0.07089514  0.60752042  0.56707488  1  -0.048849  0.002998  -0.091289  -0.130532  0.000838  3.967658  0.001
C  C42  1  0.50319086  0.29900611  0.44111336  1  -0.057232  0.006934  -0.085008  -0.084515  0.002116  3.978262  0.004
C  C43  1  0.06205695  0.70101853  0.55876283  1  -0.036474  0.00318  -0.084782  -0.084318  0.000881  3.977105  0.001
C  C44  1  0.61776634  0.51991457  0.38401635  1  0.00523  0.007881  -0.002472  0.073523  0.002434  3.991081  0.004
C  C45  1  0.23432704  0.47945343  0.61558245  1  -0.051912  0.011459  -0.003513  0.072333  0.003538  3.990968  0.007
C  C46  1  0.66750208  0.53333099  0.30749542  1  -0.036315  0.003319  -0.088788  -0.133298  0.000979  3.98348  0.002
C  C47  1  0.36082895  0.46596953  0.69223457  1  -0.013314  0.001606  -0.089627  -0.134608  0.000206  3.983585  0.0
C  C48  1  0.69061687  0.63101739  0.31086717  1  -0.025939  0.003816  -0.077342  -0.080788  0.001113  3.971109  0.002
C  C49  1  0.38105010  0.36831642  0.68909789  1  -0.004809  0.006576  -0.07712  -0.079841  0.00201  3.971033  0.004
C  C50  1  0.66355534  0.71896929  0.39047609  1  -0.030584  0.0066  -0.013706  -0.04273  0.001878  3.971573  0.003
C  C51  1  0.27474962  0.28032442  0.60958032  1  -0.076112  0.005871  -0.013622  -0.045513  0.001567  3.978617  0.002
C  C52  1  0.60725629  0.70595442  0.46443679  1  -0.084852  0.003592  -0.074097  -0.079865  0.001033  3.963463  0.002
C  C53  1  0.14424623  0.29344071  0.53550306  1  -0.01434  0.005903  -0.07375  -0.07861  0.001789  3.963826  0.003
C  C54  1  0.58498419  0.60813276  0.46114668  1  -0.072933  0.002697  -0.08827  -0.125349  0.000743  3.955137  0.001
C  C55  1  0.12471701  0.39123096  0.53852200  1  -0.035289  0.001388  -0.087829  -0.125914  6e-05  3.953994  0.0
C  C56  1  0.70845718  0.82347015  0.39970339  1  1.525409  0.010184  0.216933  0.593393  0.003512  4.195335  0.007
C  C57  1  0.30994115  0.17601670  0.60148632  1  1.513988  0.017612  0.213116  0.589614  0.006053  4.192987  0.012
C  C58  1  0.89028179  0.16466405  0.67266785  1  1.531268  0.017858  0.23461  0.63425  0.006017  4.162568  0.012
C  C59  1  0.21692785  0.83694427  0.32635336  1  1.516077  0.017835  0.234682  0.632454  0.006043  4.165618  0.012
C  C60  1  0.94094274  0.26202831  0.76974526  1  -0.077454  0.005306  -0.022192  -0.052471  0.001358  3.986079  0.002
C  C61  1  0.17091474  0.73869175  0.23012055  1  -0.097832  0.005545  -0.022098  -0.051511  0.001468  3.986198  0.002
C  C62  1  0.10000910  0.31435977  0.80998836  1  0.004058  0.005497  -0.082295  -0.077457  0.00164  3.976589  0.003
C  C63  1  0.28975494  0.68606767  0.18982476  1  0.000112  0.005231  -0.082035  -0.077922  0.001556  3.977678  0.003
C  C64  1  0.14416508  0.40721495  0.89906742  1  -0.017489  0.002169  -0.093299  -0.135538  0.000465  3.979833  0.001
C  C65  1  0.24510347  0.59295293  0.10100129  1  -0.093702  0.002188  -0.092095  -0.132736  0.000474  3.979644  0.001
C  C66  1  0.03263020  0.45073797  0.95269651  1  -0.074535  0.010077  -0.005282  0.072909  0.0031  3.987728  0.006
C  C67  1  0.08001925  0.54948720  0.04753323  1  0.014313  0.009554  -0.005781  0.069702  0.002942  3.991425  0.005
C  C68  1  0.87380863  0.39600874  0.91192299  1  -0.015837  0.001827  -0.096936  -0.141796  0.000318  3.997425  0.0
C  C69  1  0.96191232  0.60444694  0.08841091  1  -0.047337  0.00221  -0.097059  -0.140771  0.000494  3.99996  0.001
C  C70  1  0.82802691  0.30392051  0.82197090  1  -0.02505  0.005072  -0.085183  -0.093309  0.001496  3.984868  0.003
C  C71  1  0.00585636  0.69673977  0.17814227  1  -0.006965  0.004728  -0.085496  -0.094304  0.001389  3.986261  0.002
C  C72  1  0.12535775  0.05172360  0.28980166  1  1.460231  0.003144  0.200048  0.509921  0.001134  4.037084  0.002
C  C73  1  0.83557484  0.94923093  0.71099189  1  1.454052  0.000747  0.201643  0.509982  0.000241  4.039356  0.001
O  O74  1  0.74222934  0.08495124  0.41063253  1  -1.195693  0.002534  -0.393199  -0.669166  -0.003272  2.332285  -0.005
O  O75  1  0.33154914  0.91263286  0.58713698  1  -1.202998  0.001114  -0.388526  -0.667113  -0.002521  2.32384  -0.003
O  O76  1  0.50565099  0.10250991  0.44692657  1  -1.193131  0.00459  -0.368425  -0.633376  -0.000893  2.281858  -0.002
O  O77  1  0.05921834  0.89824994  0.55393955  1  -1.193992  0.00145  -0.366777  -0.632337  -0.001453  2.272669  -0.001
O  O78  1  0.70806065  0.90533553  0.48160300  1  -1.214583  -0.000389  -0.395378  -0.724218  -0.003468  2.389527  -0.004
O  O79  1  0.22799409  0.09377013  0.51980995  1  -1.210818  0.002469  -0.398601  -0.726559  -0.001997  2.395133  -0.003
O  O80  1  0.76186948  0.83264182  0.33247040  1  -1.15881  -0.000247  -0.343942  -0.585097  -0.002872  2.17034  -0.003
O  O81  1  0.42962529  0.16676331  0.66966729  1  -1.163619  0.002689  -0.347077  -0.587397  -0.001649  2.163327  -0.002
O  O82  1  0.99112553  0.13015134  0.62283672  1  -1.18901  0.001968  -0.372296  -0.62964  -0.002455  2.273016  -0.003
O  O83  1  0.36725305  0.87285159  0.37523539  1  -1.18096  0.004829  -0.370118  -0.6288  -0.000292  2.269218  0.0
O  O84  1  0.74556893  0.11888980  0.64268376  1  -1.205176  0.002725  -0.398581  -0.673868  -0.001711  2.387657  -0.003
O  O85  1  0.10129331  0.88219032  0.35620870  1  -1.205071  0.001701  -0.401146  -0.674156  -0.002989  2.392338  -0.004
O  O86  1  0.99446665  0.04857292  0.30600695  1  -1.17202  0.000596  -0.289596  -0.514423  -0.001167  2.28204  -0.002
O  O87  1  0.68868081  0.95389557  0.69504398  1  -1.163099  0.000285  -0.290209  -0.513761  -0.000887  2.282602  -0.001
O  O88  1  0.13849567  0.01419453  0.19429245  1  -1.115753  0.000952  -0.319733  -0.419293  0.000186  2.222307  0.001
O  O89  1  0.94443971  0.98613225  0.80637681  1  -1.097977  0.000221  -0.318277  -0.416781  -1.1e-05  2.219725  0.0
