# generated using pymatgen
data_H14Pb(C2O)4
_symmetry_space_group_name_H-M   'P 1'
_cell_length_a   4.63163878
_cell_length_b   7.20145458
_cell_length_c   15.70553677
_cell_angle_alpha   88.58795527
_cell_angle_beta   82.18478893
_cell_angle_gamma   92.58288704
_symmetry_Int_Tables_number   1
_chemical_formula_structural   H14Pb(C2O)4
_chemical_formula_sum   'H28 Pb2 C16 O8'
_cell_volume   518.20736942
_cell_formula_units_Z   2
loop_
 _symmetry_equiv_pos_site_id
 _symmetry_equiv_pos_as_xyz
  1  'x, y, z'
loop_
 _atom_site_type_symbol
 _atom_site_label
 _atom_site_symmetry_multiplicity
 _atom_site_fract_x
 _atom_site_fract_y
 _atom_site_fract_z
 _atom_site_occupancy
 _atom_site_hle17_bader_spin_density
 _atom_site_hle17_ddec_charge
 _atom_site_hle17_ddec_spin_density
 _atom_site_hle17_ddec_sum_bond_order
 _atom_site_hle17_magmom
 _atom_site_hse06_10hf_bader_spin_density
 _atom_site_hse06_10hf_ddec_charge
 _atom_site_hse06_10hf_ddec_spin_density
 _atom_site_hse06_10hf_ddec_sum_bond_order
 _atom_site_hse06_10hf_magmom
 _atom_site_hse06_bader_spin_density
 _atom_site_hse06_ddec_charge
 _atom_site_hse06_ddec_spin_density
 _atom_site_hse06_ddec_sum_bond_order
 _atom_site_hse06_magmom
 _atom_site_pbe_bader_spin_density
 _atom_site_pbe_cm5_charge
 _atom_site_pbe_ddec_charge
 _atom_site_pbe_ddec_spin_density
 _atom_site_pbe_ddec_sum_bond_order
 _atom_site_pbe_magmom
H  H0  1  0.82513842  0.64879668  0.18163543  1  0  0.111013  0  0.934764  0  0  0.123816  0  0.999413  0  0  0.125851  0  0.999144  0  0  0.101435  0.122345  0  0.999704  0
H  H1  1  0.17484625  0.35123338  0.81837248  1  0  0.11096  0  0.934755  0  0  0.123778  0  0.999387  0  0  0.125815  0  0.999114  0  0  0.101406  0.122307  0  0.999682  0
H  H2  1  0.91928255  0.88954336  0.18920568  1  0  0.101297  0  0.939222  0  0  0.116147  0  0.999359  0  0  0.117948  0  0.998919  0  0  0.097757  0.114828  0  0.999758  0
H  H3  1  0.08076059  0.11046937  0.81079272  1  0  0.101194  0  0.939189  0  0  0.116073  0  0.999301  0  0  0.117873  0  0.998862  0  0  0.097795  0.114758  0  0.9997  0
H  H4  1  0.22502951  0.56290213  0.26181424  1  0  0.059278  0  0.940836  0  0  0.077606  0  1.003294  0  0  0.078233  0  1.003749  0  0  0.087662  0.077064  0  1.003097  0
H  H5  1  0.77499124  0.43708781  0.73817710  1  0  0.059262  0  0.941089  0  0  0.077611  0  1.003556  0  0  0.078236  0  1.004012  0  0  0.087637  0.07707  0  1.003363  0
H  H6  1  0.35333542  0.79732123  0.26286653  1  0  0.061186  0  0.940118  0  0  0.080687  0  1.000678  0  0  0.081  0  1.001845  0  0  0.087856  0.080368  0  0.999958  0
H  H7  1  0.64668789  0.20268275  0.73712893  1  0  0.061161  0  0.940218  0  0  0.080728  0  1.00074  0  0  0.081041  0  1.001907  0  0  0.087893  0.080444  0  0.999977  0
H  H8  1  0.05639464  0.69441721  0.40487487  1  0  0.091451  0  0.967734  0  0  0.114055  0  1.031145  0  0  0.115012  0  1.031605  0  0  0.08512  0.113328  0  1.030834  0
H  H9  1  0.94362380  0.30556850  0.59511598  1  0  0.091418  0  0.967646  0  0  0.113995  0  1.031098  0  0  0.114952  0  1.031563  0  0  0.085109  0.11327  0  1.030786  0
H  H10  1  0.74626549  0.65458682  0.35144883  1  0  0.087426  0  0.970476  0  0  0.110786  0  1.031185  0  0  0.111462  0  1.032204  0  0  0.084273  0.110185  0  1.030608  0
H  H11  1  0.25375537  0.34541734  0.64855499  1  0  0.087425  0  0.970231  0  0  0.110766  0  1.030956  0  0  0.111474  0  1.031937  0  0  0.08429  0.110157  0  1.030386  0
H  H12  1  0.90257151  0.88229157  0.35467832  1  0  0.091492  0  0.972535  0  0  0.114617  0  1.035679  0  0  0.115411  0  1.036482  0  0  0.085866  0.113971  0  1.035204  0
H  H13  1  0.09745995  0.11770584  0.64532650  1  0  0.091408  0  0.972512  0  0  0.11454  0  1.035638  0  0  0.115333  0  1.036449  0  0  0.085825  0.113893  0  1.035164  0
H  H14  1  0.79294740  0.39415926  0.29238161  1  0  0.099789  0  0.95633  0  0  0.120157  0  1.013044  0  0  0.121066  0  1.014125  0  0  0.101793  0.119484  0  1.012365  0
H  H15  1  0.20703855  0.60583433  0.70761286  1  0  0.099874  0  0.956289  0  0  0.120205  0  1.013022  0  0  0.12111  0  1.014116  0  0  0.101774  0.119531  0  1.012345  0
H  H16  1  0.89329629  0.16578196  0.29183924  1  0  0.117681  0  0.963664  0  0  0.130515  0  1.028454  0  0  0.133497  0  1.026949  0  0  0.103955  0.128337  0  1.029663  0
H  H17  1  0.10671339  0.83421079  0.70816074  1  0  0.117598  0  0.963762  0  0  0.130465  0  1.028498  0  0  0.133452  0  1.026996  0  0  0.103888  0.128287  0  1.029711  0
H  H18  1  0.39137279  0.06739036  0.37472394  1  0  0.057015  0  0.939302  0  0  0.077904  0  0.999611  0  0  0.078117  0  1.0007  0  0  0.088303  0.077642  0  0.998997  0
H  H19  1  0.60862166  0.93259639  0.62526906  1  0  0.057061  0  0.939381  0  0  0.077921  0  0.99976  0  0  0.078133  0  1.000851  0  0  0.088325  0.077689  0  0.99911  0
H  H20  1  0.30211879  0.30181689  0.37688043  1  0  0.054212  0  0.935348  0  0  0.075631  0  0.99341  0  0  0.075665  0  0.994714  0  0  0.087054  0.075531  0  0.992593  0
H  H21  1  0.69787994  0.69817144  0.62311684  1  0  0.054226  0  0.935316  0  0  0.075707  0  0.993336  0  0  0.075744  0  0.994634  0  0  0.087063  0.075604  0  0.992526  0
H  H22  1  0.47709093  0.20521735  0.51512722  1  0  0.09163  0  0.97484  0  0  0.114054  0  1.037504  0  0  0.114731  0  1.038848  0  0  0.084982  0.113526  0  1.036581  0
H  H23  1  0.52287231  0.79475943  0.48487666  1  0  0.091597  0  0.974934  0  0  0.114109  0  1.03749  0  0  0.114787  0  1.038832  0  0  0.085031  0.113582  0  1.036567  0
H  H24  1  0.72267420  0.37772449  0.45976513  1  0  0.085539  0  0.962799  0  0  0.107783  0  1.025226  0  0  0.108802  0  1.025694  0  0  0.082392  0.106984  0  1.024964  0
H  H25  1  0.27729564  0.62225235  0.54023660  1  0  0.085445  0  0.962761  0  0  0.107742  0  1.02517  0  0  0.108761  0  1.025635  0  0  0.082322  0.106941  0  1.02491  0
H  H26  1  0.81255839  0.14107676  0.45778380  1  0  0.088036  0  0.961229  0  0  0.109965  0  1.024334  0  0  0.110953  0  1.025006  0  0  0.084451  0.10919  0  1.023931  0
H  H27  1  0.18742705  0.85890722  0.54221531  1  0  0.088089  0  0.961243  0  0  0.11  0  1.024382  0  0  0.11098  0  1.025063  0  0  0.084433  0.109229  0  1.023974  0
Pb  Pb28  1  0.27623628  0.23883952  0.05877273  1  0  1.404131  0  1.359332  0  0  1.222601  0  1.750675  0  0  1.286687  0  1.705257  0  0  0.664679  1.175945  0  1.782607  0
Pb  Pb29  1  0.72378797  0.76125788  0.94123322  1  0  1.40409  0  1.359369  0  0  1.222565  0  1.750714  0  0  1.286649  0  1.705299  0  0  0.664688  1.175913  0  1.782646  0
C  C30  1  0.21530958  0.74123366  0.10264511  1  0  0.716694  0  3.8508  0  0  0.66636  0  4.148656  0  0  0.701463  0  4.142024  0  0  0.220407  0.642384  0  4.152116  0
C  C31  1  0.78467231  0.25876964  0.89735126  1  0  0.716655  0  3.85061  0  0  0.666255  0  4.148571  0  0  0.701349  0  4.141951  0  0  0.220276  0.642283  0  4.152029  0
C  C32  1  0.00764747  0.75075971  0.18541033  1  0  -0.276103  0  3.657129  0  0  -0.312756  0  3.909684  0  0  -0.318508  0  3.916652  0  0  -0.168077  -0.308723  0  3.904751  0
C  C33  1  0.99234759  0.24925376  0.81459430  1  0  -0.275899  0  3.656896  0  0  -0.312514  0  3.909473  0  0  -0.318267  0  3.916447  0  0  -0.168001  -0.308497  0  3.904566  0
C  C34  1  0.15464887  0.70680270  0.26487639  1  0  -0.034126  0  3.695381  0  0  -0.071303  0  3.959904  0  0  -0.070642  0  3.973117  0  0  -0.166603  -0.071583  0  3.950728  0
C  C35  1  0.84536354  0.29319825  0.73511634  1  0  -0.034235  0  3.695665  0  0  -0.071565  0  3.960299  0  0  -0.070907  0  3.973521  0  0  -0.166696  -0.071866  0  3.951131  0
C  C36  1  0.95458179  0.73548164  0.34853175  1  0  -0.296004  0  3.723707  0  0  -0.373112  0  3.971613  0  0  -0.375176  0  3.982277  0  0  -0.247982  -0.371388  0  3.96425  0
C  C37  1  0.04543238  0.26451109  0.65146423  1  0  -0.295735  0  3.723262  0  0  -0.372761  0  3.971207  0  0  -0.37485  0  3.981859  0  0  -0.24784  -0.371037  0  3.963856  0
C  C38  1  0.57873623  0.22535389  0.21046963  1  0  0.703117  0  3.838839  0  0  0.64964  0  4.142457  0  0  0.685022  0  4.135261  0  0  0.214671  0.625526  0  4.146353  0
C  C39  1  0.42126236  0.77464169  0.78953963  1  0  0.703125  0  3.838922  0  0  0.649637  0  4.142518  0  0  0.68502  0  4.135326  0  0  0.214673  0.625528  0  4.14641  0
C  C40  1  0.70067285  0.25058187  0.29402271  1  0  -0.286605  0  3.683265  0  0  -0.325834  0  3.936485  0  0  -0.332419  0  3.944544  0  0  -0.17017  -0.321239  0  3.930835  0
C  C41  1  0.29933448  0.74940811  0.70597931  1  0  -0.286632  0  3.683117  0  0  -0.325776  0  3.936201  0  0  -0.33237  0  3.944267  0  0  -0.170061  -0.321192  0  3.930568  0
C  C42  1  0.48633063  0.21001329  0.37568402  1  0  -0.034017  0  3.722212  0  0  -0.072908  0  3.986358  0  0  -0.072115  0  4.000553  0  0  -0.168838  -0.073294  0  3.976444  0
C  C43  1  0.51367669  0.78997528  0.62431675  1  0  -0.033975  0  3.722165  0  0  -0.072999  0  3.986471  0  0  -0.072206  0  4.000664  0  0  -0.168893  -0.0734  0  3.97656  0
C  C44  1  0.63191913  0.23467914  0.45650501  1  0  -0.295092  0  3.730728  0  0  -0.368691  0  3.975498  0  0  -0.371301  0  3.987076  0  0  -0.249235  -0.366608  0  3.96747  0
C  C45  1  0.36805297  0.76530052  0.54349722  1  0  -0.295119  0  3.730623  0  0  -0.368812  0  3.975428  0  0  -0.371412  0  3.987009  0  0  -0.249215  -0.366731  0  3.967406  0
O  O46  1  0.24500039  0.88038328  0.04849900  1  0  -0.748329  0  2.03178  0  0  -0.664679  0  2.275797  0  0  -0.700521  0  2.269781  0  0  -0.299298  -0.639202  0  2.279089  0
O  O47  1  0.75496626  0.11962119  0.95149856  1  0  -0.748337  0  2.031917  0  0  -0.664641  0  2.275961  0  0  -0.700481  0  2.269946  0  0  -0.299251  -0.639163  0  2.279253  0
O  O48  1  0.35694794  0.59589997  0.08735300  1  0  -0.705351  0  2.002864  0  0  -0.63205  0  2.247756  0  0  -0.665119  0  2.241341  0  0  -0.300833  -0.608678  0  2.251462  0
O  O49  1  0.64301420  0.40409453  0.91263852  1  0  -0.7054  0  2.002478  0  0  -0.632109  0  2.247377  0  0  -0.66517  0  2.240969  0  0  -0.300893  -0.60874  0  2.251079  0
O  O50  1  0.32001950  0.15666803  0.21156214  1  0  -0.635197  0  1.969496  0  0  -0.557692  0  2.20027  0  0  -0.588687  0  2.194501  0  0  -0.2885  -0.536105  0  2.203582  0
O  O51  1  0.67997928  0.84332741  0.78844138  1  0  -0.635201  0  1.969577  0  0  -0.557707  0  2.200401  0  0  -0.588705  0  2.194618  0  0  -0.288472  -0.536131  0  2.203726  0
O  O52  1  0.73497385  0.27693993  0.13908847  1  0  -0.710157  0  1.979275  0  0  -0.633298  0  2.228447  0  0  -0.666431  0  2.219619  0  0  -0.303105  -0.609815  0  2.233696  0
O  O53  1  0.26502760  0.72307376  0.86092037  1  0  -0.710057  0  1.979329  0  0  -0.633217  0  2.228508  0  0  -0.666344  0  2.219675  0  0  -0.303119  -0.609735  0  2.233753  0
