# generated using pymatgen
data_Al2H10C21S2(ClO5)2
_symmetry_space_group_name_H-M   'P 1'
_cell_length_a   6.63836416
_cell_length_b   11.14096548
_cell_length_c   12.85464961
_cell_angle_alpha   79.82765589
_cell_angle_beta   73.04776542
_cell_angle_gamma   72.35873592
_symmetry_Int_Tables_number   1
_chemical_formula_structural   Al2H10C21S2(ClO5)2
_chemical_formula_sum   'Al2 H10 C21 S2 Cl2 O10'
_cell_volume   862.55499576
_cell_formula_units_Z   1
loop_
 _symmetry_equiv_pos_site_id
 _symmetry_equiv_pos_as_xyz
  1  'x, y, z'
loop_
 _atom_site_type_symbol
 _atom_site_label
 _atom_site_symmetry_multiplicity
 _atom_site_fract_x
 _atom_site_fract_y
 _atom_site_fract_z
 _atom_site_occupancy
 _atom_site_pbe_bader_charge
 _atom_site_pbe_bader_spin_density
 _atom_site_pbe_cm5_charge
 _atom_site_pbe_ddec_charge
 _atom_site_pbe_ddec_spin_density
 _atom_site_pbe_ddec_sum_bond_order
 _atom_site_pbe_magmom
Al  Al0  1  0.48311768  0.50142831  0.50109703  1  2.502049  0  0.395884  1.633617  0  2.582333  0
Al  Al1  1  0.97981385  0.50688723  0.50109292  1  2.502243  0  0.393666  1.639183  0  2.578077  0
H  H2  1  0.26734621  0.35068291  0.56289658  1  0.604959  0  0.35044  0.426827  0  0.860599  0
H  H3  1  0.77241172  0.57192787  0.36667523  1  0.610372  0  0.345162  0.419974  0  0.873684  0
H  H4  1  0.66010875  0.60261191  0.12992615  1  0.115699  0  0.112982  0.133587  0  0.994281  0
H  H5  1  0.25462592  0.25077281  0.36969304  1  0.087695  0  0.108362  0.131229  0  1.03727  0
H  H6  1  0.49931995  0.78164625  0.38081747  1  0.100454  0  0.113627  0.135741  0  1.028776  0
H  H7  1  0.73540062  0.87566635  0.56465497  1  0.100383  0  0.114381  0.122772  0  0.978059  0
H  H8  1  0.61395735  0.11119879  0.56420766  1  0.081047  0  0.108781  0.113383  0  0.987147  0
H  H9  1  0.27124274  0.39738679  0.78375255  1  0.092887  0  0.10233  0.15899  0  1.005615  0
H  H10  1  0.06975743  0.46169627  0.89861582  1  0.070435  0  0.079734  0.111848  0  1.074479  0
H  H11  1  0.25950434  0.31472500  0.91783136  1  0.052299  0  0.094551  0.133992  0  0.980358  0
C  C12  1  0.84671722  0.27546921  0.49504008  1  1.585107  0  0.268753  0.651915  0  4.072594  0
C  C13  1  0.62376572  0.51388237  0.69446696  1  1.569815  0  0.262855  0.655216  0  4.133506  0
C  C14  1  0.13197852  0.72964089  0.49638138  1  1.597617  0  0.270789  0.644011  0  4.090351  0
C  C15  1  0.33340057  0.50893748  0.30235494  1  1.575857  0  0.250864  0.635271  0  4.15439  0
C  C16  1  0.38869608  0.47491117  0.88971473  1  0.066404  0  -0.001993  0.148555  0  3.973491  0
C  C17  1  0.54893518  0.56375936  0.10704836  1  0.037361  0  -0.089451  -0.131798  0  3.968075  0
C  C18  1  0.55098135  0.52149538  0.81296588  1  -0.148188  0  -0.020208  -0.196145  0  3.917425  0
C  C19  1  0.38864655  0.51622616  0.18289725  1  -0.16843  0  -0.026214  -0.132109  0  4.001113  0
C  C20  1  0.54574319  0.55339217  0.99954701  1  -0.184517  0  -0.023131  -0.008863  0  4.092575  0
C  C21  1  0.38699696  0.49523842  0.99582290  1  -0.174077  0  -0.025678  -0.083326  0  4.051609  0
C  C22  1  0.93121628  0.13661648  0.48430576  1  -0.114333  0  -0.009197  -0.082152  0  3.92774  0
C  C23  1  0.15408976  0.07770597  0.43242951  1  0.018157  0  0.001076  0.072623  0  3.949497  0
C  C24  1  0.78415597  0.06408238  0.52847966  1  0.008943  0  -0.079593  -0.087061  0  3.996053  0
C  C25  1  0.30491852  0.14808353  0.37357055  1  0.084928  0  -0.096664  -0.19651  0  3.949158  0
C  C26  1  0.51442961  0.08917112  0.31818770  1  0.050512  0  0.009213  0.091756  0  4.065871  0
C  C27  1  0.06911845  0.87069863  0.48669310  1  -0.037183  0  -0.004797  -0.075008  0  3.931897  0
C  C28  1  0.85212755  0.93188260  0.52928081  1  0.015865  0  -0.078357  -0.089043  0  3.988249  0
C  C29  1  0.22454362  0.94196178  0.43445865  1  0.010483  0  0.002418  0.07098  0  3.949373  0
C  C30  1  0.44207374  0.88404891  0.37849649  1  0.088834  0  -0.090733  -0.182328  0  3.934794  0
C  C31  1  0.58399021  0.95496618  0.32065389  1  0.049746  0  0.00891  0.092242  0  4.06334  0
C  C32  1  0.24129366  0.40802871  0.87022334  1  -0.064626  0  -0.240298  -0.401359  0  3.955676  0
S  S33  1  0.69543603  0.58877871  0.86971265  1  0.269012  0  0.097259  0.134478  0  2.825759  0
S  S34  1  0.23431072  0.45910727  0.12448188  1  0.241258  0  0.085461  0.130182  0  2.808058  0
Cl  Cl35  1  0.68892724  0.17926893  0.24515748  1  -0.18979  0  -0.001215  -0.062123  0  1.557441  0
Cl  Cl36  1  0.84336362  0.87958941  0.25009897  1  -0.194602  0  -0.006429  -0.06754  0  1.521011  0
O  O37  1  0.65217144  0.32789637  0.48595837  1  -1.263774  0  -0.240049  -0.607942  0  2.351167  0
O  O38  1  0.80912646  0.53512811  0.64590385  1  -1.259969  0  -0.235987  -0.583233  0  2.326289  0
O  O39  1  0.99745555  0.67709694  0.48254864  1  -1.254483  0  -0.22904  -0.585261  0  2.365161  0
O  O40  1  0.46749560  0.52630065  0.34819248  1  -1.256223  0  -0.239981  -0.59043  0  2.320173  0
O  O41  1  0.31404643  0.67169761  0.51834254  1  -1.260207  0  -0.23006  -0.574847  0  2.348998  0
O  O42  1  0.14948790  0.48529552  0.35144289  1  -1.265518  0  -0.245755  -0.610241  0  2.374035  0
O  O43  1  0.97075595  0.33091753  0.51610197  1  -1.265683  0  -0.238278  -0.601361  0  2.344573  0
O  O44  1  0.50196655  0.48504737  0.64793957  1  -1.264143  0  -0.229255  -0.577072  0  2.353186  0
O  O45  1  0.23447616  0.44220574  0.54935376  1  -1.410028  0  -0.447238  -0.980741  0  2.180182  0
O  O46  1  0.73409171  0.55856663  0.44590128  1  -1.414647  0  -0.447897  -0.981879  0  2.20162  0
