# generated using pymatgen
data_AgH22C18(NO3)3
_symmetry_space_group_name_H-M   'P 1'
_cell_length_a   7.98453759
_cell_length_b   8.71837496
_cell_length_c   15.25321750
_cell_angle_alpha   89.17879222
_cell_angle_beta   79.35467130
_cell_angle_gamma   76.59181007
_symmetry_Int_Tables_number   1
_chemical_formula_structural   AgH22C18(NO3)3
_chemical_formula_sum   'Ag2 H44 C36 N6 O18'
_cell_volume   1014.64042706
_cell_formula_units_Z   2
loop_
 _symmetry_equiv_pos_site_id
 _symmetry_equiv_pos_as_xyz
  1  'x, y, z'
loop_
 _atom_site_type_symbol
 _atom_site_label
 _atom_site_symmetry_multiplicity
 _atom_site_fract_x
 _atom_site_fract_y
 _atom_site_fract_z
 _atom_site_occupancy
 _atom_site_hle17_bader_spin_density
 _atom_site_hle17_ddec_charge
 _atom_site_hle17_ddec_spin_density
 _atom_site_hle17_ddec_sum_bond_order
 _atom_site_hle17_magmom
 _atom_site_hse06_10hf_bader_spin_density
 _atom_site_hse06_10hf_ddec_charge
 _atom_site_hse06_10hf_ddec_spin_density
 _atom_site_hse06_10hf_ddec_sum_bond_order
 _atom_site_hse06_10hf_magmom
 _atom_site_hse06_bader_spin_density
 _atom_site_hse06_ddec_charge
 _atom_site_hse06_ddec_spin_density
 _atom_site_hse06_ddec_sum_bond_order
 _atom_site_hse06_magmom
 _atom_site_pbe_bader_spin_density
 _atom_site_pbe_cm5_charge
 _atom_site_pbe_ddec_charge
 _atom_site_pbe_ddec_spin_density
 _atom_site_pbe_ddec_sum_bond_order
 _atom_site_pbe_magmom
Ag  Ag0  1  0.72358185  0.07816934  0.06728366  1  0  0.548379  0  1.361257  0  0  0.398002  0  1.793197  0  0  0.427593  0  1.748334  0  0  0.475178  0.378806  0  1.822952  0
Ag  Ag1  1  0.27641335  0.92183141  0.93271720  1  0  0.548394  0  1.36124  0  0  0.397995  0  1.793221  0  0  0.427594  0  1.748344  0  0  0.475159  0.378797  0  1.822976  0
H  H2  1  0.46346685  0.24609458  0.95475593  1  0  0.099697  0  0.956502  0  0  0.105025  0  1.027468  0  0  0.1083  0  1.023746  0  0  0.120286  0.102736  0  1.029675  0
H  H3  1  0.53653376  0.75390497  0.04524378  1  0  0.099682  0  0.956414  0  0  0.105021  0  1.027356  0  0  0.108296  0  1.023633  0  0  0.120275  0.102734  0  1.029557  0
H  H4  1  0.95578903  0.30129937  0.97942752  1  0  0.093901  0  0.940762  0  0  0.103057  0  1.004098  0  0  0.105888  0  1.000778  0  0  0.119132  0.100803  0  1.006771  0
H  H5  1  0.04421027  0.69869544  0.02056974  1  0  0.093857  0  0.940725  0  0  0.103052  0  1.004051  0  0  0.105884  0  1.000731  0  0  0.119104  0.100797  0  1.006726  0
H  H6  1  0.93154240  0.53334456  0.88170790  1  0  0.119804  0  0.954025  0  0  0.129567  0  1.012566  0  0  0.132638  0  1.012448  0  0  0.111874  0.127198  0  1.013118  0
H  H7  1  0.06846200  0.46665025  0.11828953  1  0  0.119819  0  0.954023  0  0  0.129584  0  1.012561  0  0  0.132658  0  1.012444  0  0  0.111854  0.127216  0  1.013113  0
H  H8  1  0.65431339  0.62868862  0.82011063  1  0  0.104875  0  0.951458  0  0  0.11103  0  1.02255  0  0  0.114781  0  1.018249  0  0  0.111705  0.108493  0  1.025196  0
H  H9  1  0.34569009  0.37130973  0.17988817  1  0  0.104825  0  0.951625  0  0  0.111017  0  1.022669  0  0  0.114779  0  1.018357  0  0  0.11171  0.10848  0  1.025311  0
H  H10  1  0.12293988  0.72942522  0.80390103  1  0  0.074103  0  0.972043  0  0  0.078965  0  1.054768  0  0  0.080101  0  1.052004  0  0  0.104241  0.077882  0  1.057121  0
H  H11  1  0.87705948  0.27057431  0.19609683  1  0  0.074093  0  0.972023  0  0  0.078957  0  1.054748  0  0  0.080092  0  1.051984  0  0  0.104236  0.077873  0  1.057099  0
H  H12  1  0.15494597  0.55154281  0.73981353  1  0  0.07429  0  0.949031  0  0  0.082353  0  1.022075  0  0  0.083201  0  1.021198  0  0  0.106365  0.081773  0  1.022422  0
H  H13  1  0.84505465  0.44845673  0.26018552  1  0  0.074283  0  0.949031  0  0  0.082347  0  1.022074  0  0  0.083193  0  1.021196  0  0  0.106369  0.081762  0  1.022421  0
H  H14  1  0.12026379  0.79820591  0.65098649  1  0  0.066395  0  0.916812  0  0  0.081792  0  0.977066  0  0  0.082167  0  0.976853  0  0  0.10567  0.081358  0  0.977428  0
H  H15  1  0.87973558  0.20179362  0.34901137  1  0  0.066426  0  0.916787  0  0  0.081825  0  0.977037  0  0  0.082202  0  0.976823  0  0  0.105685  0.08139  0  0.977398  0
H  H16  1  0.31845930  0.83021355  0.67810548  1  0  0.041316  0  0.945871  0  0  0.052695  0  1.016191  0  0  0.052605  0  1.017087  0  0  0.092118  0.052826  0  1.014869  0
H  H17  1  0.68154072  0.16978835  0.32189360  1  0  0.041311  0  0.945877  0  0  0.052693  0  1.016201  0  0  0.052604  0  1.017096  0  0  0.092119  0.052825  0  1.014881  0
H  H18  1  0.45798080  0.62589672  0.46490975  1  0  0.093717  0  0.963346  0  0  0.110283  0  1.028368  0  0  0.110735  0  1.028939  0  0  0.102819  0.109798  0  1.028193  0
H  H19  1  0.54201952  0.37410400  0.53508932  1  0  0.093742  0  0.963332  0  0  0.110284  0  1.028378  0  0  0.110732  0  1.028964  0  0  0.102817  0.109802  0  1.0282  0
H  H20  1  0.44803865  0.80659607  0.52286367  1  0  0.054266  0  0.9652  0  0  0.06974  0  1.039828  0  0  0.070859  0  1.038692  0  0  0.083104  0.068922  0  1.040482  0
H  H21  1  0.55196264  0.19340584  0.47713596  1  0  0.054261  0  0.965262  0  0  0.069733  0  1.039893  0  0  0.070855  0  1.038757  0  0  0.083107  0.068918  0  1.040548  0
H  H22  1  0.25292120  0.76784503  0.49486172  1  0  0.076002  0  0.95197  0  0  0.093643  0  1.018805  0  0  0.094575  0  1.018723  0  0  0.093471  0.092868  0  1.01899  0
H  H23  1  0.74707882  0.23215688  0.50513802  1  0  0.075989  0  0.951989  0  0  0.093633  0  1.018814  0  0  0.094567  0  1.018731  0  0  0.093472  0.09286  0  1.018999  0
H  H24  1  0.98237708  0.92078602  0.18788228  1  0  0.094517  0  0.947454  0  0  0.098531  0  1.018169  0  0  0.10127  0  1.015691  0  0  0.120333  0.096197  0  1.020456  0
H  H25  1  0.01762009  0.07921707  0.81211706  1  0  0.09451  0  0.947482  0  0  0.098524  0  1.0182  0  0  0.101263  0  1.015722  0  0  0.12034  0.09619  0  1.020489  0
H  H26  1  0.44675841  0.97432110  0.20444283  1  0  0.090333  0  0.972233  0  0  0.09264  0  1.045852  0  0  0.096172  0  1.041804  0  0  0.115748  0.089752  0  1.049204  0
H  H27  1  0.55324024  0.02567611  0.79555840  1  0  0.090316  0  0.972253  0  0  0.0926  0  1.045891  0  0  0.09616  0  1.041817  0  0  0.115739  0.089707  0  1.049246  0
H  H28  1  0.42925721  0.79027414  0.32967718  1  0  0.119929  0  0.968395  0  0  0.131199  0  1.024728  0  0  0.134527  0  1.024228  0  0  0.11112  0.128639  0  1.025795  0
H  H29  1  0.57074527  0.20972307  0.67032434  1  0  0.119954  0  0.968372  0  0  0.131191  0  1.024748  0  0  0.134521  0  1.024243  0  0  0.111133  0.128636  0  1.025814  0
H  H30  1  0.70977414  0.65967428  0.38449133  1  0  0.110765  0  0.947735  0  0  0.114189  0  1.018759  0  0  0.118481  0  1.014239  0  0  0.113898  0.110918  0  1.022192  0
H  H31  1  0.29022872  0.34032645  0.61550881  1  0  0.110773  0  0.947701  0  0  0.114192  0  1.018725  0  0  0.118482  0  1.014207  0  0  0.113911  0.110921  0  1.022158  0
H  H32  1  0.31382846  0.53061980  0.34120042  1  0  0.074236  0  0.943506  0  0  0.080754  0  1.018819  0  0  0.08158  0  1.017563  0  0  0.108416  0.080333  0  1.019664  0
H  H33  1  0.68617148  0.46937741  0.65880003  1  0  0.074228  0  0.943552  0  0  0.080754  0  1.018866  0  0  0.081577  0  1.017613  0  0  0.108426  0.080335  0  1.019711  0
H  H34  1  0.18468247  0.53711704  0.45125879  1  0  0.086491  0  0.919293  0  0  0.09886  0  0.982653  0  0  0.09945  0  0.981473  0  0  0.115024  0.098438  0  0.983547  0
H  H35  1  0.81531627  0.46288487  0.54874107  1  0  0.086503  0  0.919253  0  0  0.098863  0  0.982632  0  0  0.099453  0  0.981451  0  0  0.115015  0.098443  0  0.983523  0
H  H36  1  0.20544441  0.27671488  0.31449251  1  0  0.070161  0  0.951435  0  0  0.085754  0  1.013341  0  0  0.086418  0  1.012656  0  0  0.102728  0.085106  0  1.014088  0
H  H37  1  0.79455048  0.72328706  0.68550968  1  0  0.070159  0  0.951427  0  0  0.085726  0  1.013332  0  0  0.086385  0  1.012647  0  0  0.102732  0.085083  0  1.014085  0
H  H38  1  0.37107146  0.26783168  0.37944178  1  0  0.048114  0  0.949923  0  0  0.062389  0  1.017134  0  0  0.062382  0  1.01735  0  0  0.098247  0.062235  0  1.01731  0
H  H39  1  0.62892562  0.73216672  0.62055958  1  0  0.048101  0  0.949925  0  0  0.06237  0  1.017109  0  0  0.062364  0  1.017322  0  0  0.098233  0.062221  0  1.017284  0
H  H40  1  0.09632506  0.06765599  0.52015360  1  0  0.080103  0  0.962189  0  0  0.096705  0  1.030297  0  0  0.096606  0  1.031593  0  0  0.095906  0.096797  0  1.029275  0
H  H41  1  0.90367141  0.93234477  0.47984845  1  0  0.080153  0  0.962228  0  0  0.096681  0  1.030399  0  0  0.09658  0  1.031698  0  0  0.095901  0.096774  0  1.029378  0
H  H42  1  0.31466987  0.05942223  0.46165136  1  0  0.051866  0  0.967998  0  0  0.065339  0  1.045736  0  0  0.066259  0  1.045188  0  0  0.080562  0.06486  0  1.04587  0
H  H43  1  0.68532592  0.94057619  0.53835144  1  0  0.051851  0  0.967989  0  0  0.065345  0  1.045708  0  0  0.066265  0  1.04516  0  0  0.080568  0.064865  0  1.045843  0
H  H44  1  0.14972391  0.03757484  0.40081088  1  0  0.08276  0  0.953956  0  0  0.098387  0  1.022369  0  0  0.099974  0  1.021034  0  0  0.091475  0.097023  0  1.023735  0
H  H45  1  0.85027127  0.96242594  0.59919260  1  0  0.082832  0  0.953881  0  0  0.09845  0  1.0223  0  0  0.10004  0  1.020962  0  0  0.091509  0.097088  0  1.023667  0
C  C46  1  0.56489625  0.31173339  0.93621210  1  0  0.119851  0  3.653339  0  0  0.079142  0  3.89358  0  0  0.087593  0  3.913593  0  0  0.05232  0.07383  0  3.879105  0
C  C47  1  0.43510310  0.68826616  0.06378773  1  0  0.1199  0  3.653276  0  0  0.079195  0  3.893502  0  0  0.087646  0  3.913517  0  0  0.052363  0.073878  0  3.879025  0
C  C48  1  0.83946946  0.34385250  0.95009378  1  0  0.146602  0  3.64621  0  0  0.112612  0  3.893162  0  0  0.121791  0  3.910319  0  0  0.057755  0.106907  0  3.881756  0
C  C49  1  0.16053550  0.65613999  0.04990757  1  0  0.146652  0  3.64617  0  0  0.112582  0  3.89318  0  0  0.121757  0  3.910343  0  0  0.057796  0.106875  0  3.881781  0
C  C50  1  0.82428414  0.47374715  0.89533699  1  0  -0.106924  0  3.688541  0  0  -0.118562  0  3.939766  0  0  -0.127405  0  3.961364  0  0  -0.079732  -0.11311  0  3.925225  0
C  C51  1  0.17571931  0.52624645  0.10465859  1  0  -0.106894  0  3.688264  0  0  -0.118509  0  3.93953  0  0  -0.127358  0  3.961135  0  0  -0.079702  -0.11306  0  3.924992  0
C  C52  1  0.67230979  0.52404486  0.86036404  1  0  0.00155  0  3.673412  0  0  -0.032538  0  3.929219  0  0  -0.025855  0  3.945817  0  0  -0.055915  -0.036652  0  3.9171  0
C  C53  1  0.32769493  0.47595353  0.13963792  1  0  0.001559  0  3.673416  0  0  -0.032575  0  3.929245  0  0  -0.0259  0  3.945832  0  0  -0.055916  -0.036687  0  3.917123  0
C  C54  1  0.54079489  0.44002891  0.88020946  1  0  -0.127581  0  3.782114  0  0  -0.10257  0  4.019942  0  0  -0.1164  0  4.04515  0  0  -0.016821  -0.093443  0  4.003098  0
C  C55  1  0.45920640  0.55997299  0.11978950  1  0  -0.127559  0  3.78231  0  0  -0.102543  0  4.020117  0  0  -0.116371  0  4.045329  0  0  -0.016824  -0.093419  0  4.00327  0
C  C56  1  0.37192521  0.48546250  0.84799577  1  0  0.573955  0  3.846108  0  0  0.519679  0  4.147734  0  0  0.552714  0  4.141699  0  0  0.226874  0.4971  0  4.151636  0
C  C57  1  0.62807603  0.51453467  0.15200194  1  0  0.573884  0  3.846338  0  0  0.519629  0  4.147933  0  0  0.552665  0  4.141896  0  0  0.226881  0.497059  0  4.151821  0
C  C58  1  0.21290279  0.64999310  0.75151568  1  0  0.056607  0  3.603644  0  0  -0.013007  0  3.882975  0  0  -0.00391  0  3.885074  0  0  -0.076835  -0.019153  0  3.881195  0
C  C59  1  0.78709782  0.35000645  0.24848403  1  0  0.056629  0  3.603548  0  0  -0.012967  0  3.882864  0  0  -0.00387  0  3.884969  0  0  -0.076822  -0.019114  0  3.881104  0
C  C60  1  0.24802653  0.73867045  0.66770224  1  0  0.064014  0  3.658407  0  0  0.009917  0  3.924419  0  0  0.016024  0  3.930083  0  0  -0.073436  0.005804  0  3.920516  0
C  C61  1  0.75197282  0.26132910  0.33229694  1  0  0.063988  0  3.658355  0  0  0.009875  0  3.924376  0  0  0.01598  0  3.930039  0  0  -0.073454  0.005761  0  3.920471  0
C  C62  1  0.37784224  0.71322635  0.51585895  1  0  -0.094562  0  3.693268  0  0  -0.185654  0  3.957057  0  0  -0.180629  0  3.962273  0  0  -0.15041  -0.188905  0  3.953616  0
C  C63  1  0.62215936  0.28677437  0.48414000  1  0  -0.09452  0  3.693353  0  0  -0.185591  0  3.95712  0  0  -0.18057  0  3.962334  0  0  -0.150388  -0.188849  0  3.953682  0
C  C64  1  0.86331605  0.88672659  0.22013928  1  0  0.122578  0  3.659219  0  0  0.083166  0  3.902599  0  0  0.091921  0  3.920946  0  0  0.059013  0.077433  0  3.890076  0
C  C65  1  0.13668396  0.11327532  0.77986112  1  0  0.122537  0  3.65938  0  0  0.083136  0  3.902755  0  0  0.091893  0  3.921098  0  0  0.058973  0.077405  0  3.890229  0
C  C66  1  0.56403548  0.91615053  0.22977791  1  0  0.132736  0  3.65306  0  0  0.100247  0  3.899468  0  0  0.108596  0  3.916716  0  0  0.050819  0.094724  0  3.888493  0
C  C67  1  0.43596513  0.08384903  0.77022311  1  0  0.13273  0  3.652942  0  0  0.100255  0  3.899354  0  0  0.108583  0  3.916581  0  0  0.050806  0.094742  0  3.888376  0
C  C68  1  0.55561715  0.81428413  0.30079343  1  0  -0.123838  0  3.708977  0  0  -0.132142  0  3.953377  0  0  -0.141302  0  3.975655  0  0  -0.08434  -0.127006  0  3.939069  0
C  C69  1  0.44438189  0.18571660  0.69920642  1  0  -0.123841  0  3.708929  0  0  -0.132125  0  3.95336  0  0  -0.141283  0  3.97564  0  0  -0.084331  -0.126983  0  3.939024  0
C  C70  1  0.70907986  0.74330601  0.33073300  1  0  -0.009891  0  3.682906  0  0  -0.041219  0  3.935045  0  0  -0.034269  0  3.950458  0  0  -0.057856  -0.045278  0  3.923555  0
C  C71  1  0.29092329  0.25669355  0.66926779  1  0  -0.009906  0  3.683005  0  0  -0.041227  0  3.935151  0  0  -0.034278  0  3.950565  0  0  -0.05787  -0.045301  0  3.923701  0
C  C72  1  0.86542835  0.78177232  0.29025177  1  0  -0.115963  0  3.777236  0  0  -0.092575  0  4.014162  0  0  -0.105441  0  4.03784  0  0  -0.009962  -0.083706  0  3.997026  0
C  C73  1  0.13457481  0.21822723  0.70974835  1  0  -0.115983  0  3.777147  0  0  -0.092621  0  4.014043  0  0  -0.105488  0  4.037715  0  0  -0.01001  -0.083744  0  3.996892  0
C  C74  1  0.03402193  0.71535316  0.32000164  1  0  0.588582  0  3.83179  0  0  0.53699  0  4.12787  0  0  0.570028  0  4.121544  0  0  0.238044  0.513957  0  4.132372  0
C  C75  1  0.96596619  0.28464051  0.67999735  1  0  0.588671  0  3.83196  0  0  0.537169  0  4.127884  0  0  0.57022  0  4.121525  0  0  0.238209  0.514139  0  4.132384  0
C  C76  1  0.20221980  0.49429666  0.38206505  1  0  0.064714  0  3.581129  0  0  -0.002315  0  3.857977  0  0  0.006955  0  3.860241  0  0  -0.068045  -0.008717  0  3.856543  0
C  C77  1  0.79777825  0.50570291  0.61793621  1  0  0.064656  0  3.581185  0  0  -0.002416  0  3.858049  0  0  0.006854  0  3.860309  0  0  -0.06808  -0.008817  0  3.856619  0
C  C78  1  0.23124479  0.31790436  0.37765600  1  0  0.050187  0  3.65615  0  0  -0.004726  0  3.917835  0  0  0.00085  0  3.92384  0  0  -0.076662  -0.008721  0  3.914251  0
C  C79  1  0.76875228  0.68209405  0.62234603  1  0  0.050208  0  3.656062  0  0  -0.004599  0  3.917608  0  0  0.00099  0  3.923599  0  0  -0.076635  -0.008611  0  3.914051  0
C  C80  1  0.17389776  0.09898097  0.45842457  1  0  -0.099289  0  3.713061  0  0  -0.1906  0  3.980854  0  0  -0.185892  0  3.986454  0  0  -0.156083  -0.193641  0  3.976839  0
C  C81  1  0.82609773  0.90101861  0.54157759  1  0  -0.099432  0  3.71317  0  0  -0.1907  0  3.980999  0  0  -0.185994  0  3.986611  0  0  -0.156138  -0.193742  0  3.976985  0
N  N82  1  0.71102961  0.26503099  0.97106806  1  0  -0.301174  0  3.316723  0  0  -0.210205  0  3.594269  0  0  -0.231597  0  3.612237  0  0  -0.34563  -0.196104  0  3.581331  0
N  N83  1  0.28896683  0.73496503  0.02893078  1  0  -0.301273  0  3.31672  0  0  -0.21028  0  3.5943  0  0  -0.231672  0  3.612269  0  0  -0.345701  -0.196177  0  3.58136  0
N  N84  1  0.71600701  0.95018391  0.18912285  1  0  -0.293047  0  3.335184  0  0  -0.202852  0  3.61656  0  0  -0.222633  0  3.631654  0  0  -0.34294  -0.189797  0  3.60632  0
N  N85  1  0.28399074  0.04981684  0.81087843  1  0  -0.293045  0  3.335162  0  0  -0.202853  0  3.616541  0  0  -0.222635  0  3.631648  0  0  -0.34294  -0.189803  0  3.606302  0
N  N86  1  0.79638325  0.88298099  0.88772588  1  0  0.686658  0  4.150152  0  0  0.733849  0  4.418856  0  0  0.762024  0  4.426267  0  0  0.088219  0.715358  0  4.412341  0
N  N87  1  0.20361586  0.11702446  0.11227391  1  0  0.686811  0  4.150315  0  0  0.734015  0  4.41899  0  0  0.762191  0  4.4264  0  0  0.088305  0.715518  0  4.412481  0
O  O88  1  0.24232556  0.43529603  0.87843901  1  0  -0.516498  0  1.957568  0  0  -0.473651  0  2.178337  0  0  -0.495011  0  2.175378  0  0  -0.269651  -0.458981  0  2.179896  0
O  O89  1  0.75767446  0.56470588  0.12156073  1  0  -0.516478  0  1.957672  0  0  -0.47364  0  2.178429  0  0  -0.495001  0  2.175471  0  0  -0.269644  -0.458971  0  2.179983  0
O  O90  1  0.37804579  0.58918836  0.78152996  1  0  -0.327489  0  2.292667  0  0  -0.253404  0  2.54225  0  0  -0.275543  0  2.540496  0  0  -0.164646  -0.237788  0  2.542864  0
O  O91  1  0.62195234  0.41081592  0.21847059  1  0  -0.327429  0  2.292622  0  0  -0.253376  0  2.54222  0  0  -0.275515  0  2.540464  0  0  -0.164675  -0.23777  0  2.542835  0
O  O92  1  0.34915150  0.63226898  0.59678689  1  0  -0.276991  0  2.268532  0  0  -0.203636  0  2.523917  0  0  -0.218525  0  2.525173  0  0  -0.241706  -0.193249  0  2.522821  0
O  O93  1  0.65085039  0.36773057  0.40321270  1  0  -0.27704  0  2.268544  0  0  -0.203674  0  2.523918  0  0  -0.218562  0  2.525178  0  0  -0.241715  -0.193277  0  2.52282  0
O  O94  1  0.14959809  0.78759014  0.31791184  1  0  -0.527693  0  1.954867  0  0  -0.485953  0  2.173582  0  0  -0.506469  0  2.167443  0  0  -0.27449  -0.472003  0  2.178073  0
O  O95  1  0.85041662  0.21241408  0.68208649  1  0  -0.527596  0  1.95553  0  0  -0.485887  0  2.174226  0  0  -0.506424  0  2.168113  0  0  -0.274459  -0.471942  0  2.178717  0
O  O96  1  0.04364872  0.56716647  0.34861315  1  0  -0.305605  0  2.269352  0  0  -0.233728  0  2.50952  0  0  -0.255799  0  2.508347  0  0  -0.156761  -0.218417  0  2.510057  0
O  O97  1  0.95635129  0.43283544  0.65138659  1  0  -0.305676  0  2.269242  0  0  -0.233834  0  2.509413  0  0  -0.255906  0  2.50823  0  0  -0.156823  -0.218521  0  2.509951  0
O  O98  1  0.12472544  0.26582168  0.45263860  1  0  -0.270223  0  2.245068  0  0  -0.200444  0  2.498348  0  0  -0.214665  0  2.499645  0  0  -0.245495  -0.189998  0  2.497083  0
O  O99  1  0.87527230  0.73417909  0.54736399  1  0  -0.270186  0  2.245101  0  0  -0.200426  0  2.498333  0  0  -0.214657  0  2.499632  0  0  -0.245491  -0.189975  0  2.497073  0
O  O100  1  0.81844739  0.85753697  0.80447684  1  0  -0.471135  0  1.743724  0  0  -0.464446  0  1.950605  0  0  -0.478775  0  1.944368  0  0  -0.198246  -0.454769  0  1.954517  0
O  O101  1  0.18155749  0.14247082  0.19552237  1  0  -0.47114  0  1.743739  0  0  -0.464495  0  1.950661  0  0  -0.478824  0  1.944421  0  0  -0.198229  -0.454812  0  1.954568  0
O  O102  1  0.64372870  0.90988904  0.93537694  1  0  -0.487796  0  1.818566  0  0  -0.473998  0  2.062957  0  0  -0.490824  0  2.052646  0  0  -0.198548  -0.462177  0  2.06808  0
O  O103  1  0.35627132  0.09011286  0.06462215  1  0  -0.487838  0  1.818562  0  0  -0.474062  0  2.062977  0  0  -0.490888  0  2.052663  0  0  -0.198588  -0.462237  0  2.068101  0
O  O104  1  0.92721625  0.88440727  0.92449244  1  0  -0.508353  0  1.797736  0  0  -0.49825  0  2.045394  0  0  -0.514084  0  2.032813  0  0  -0.208254  -0.487236  0  2.054038  0
O  O105  1  0.07278412  0.11559819  0.07550854  1  0  -0.50845  0  1.797871  0  0  -0.498324  0  2.045495  0  0  -0.514156  0  2.032914  0  0  -0.208314  -0.48731  0  2.054139  0
