# generated using pymatgen
data_HoPH3CO6
_symmetry_space_group_name_H-M   'P 1'
_cell_length_a   6.45968526
_cell_length_b   6.86731034
_cell_length_c   8.14645752
_cell_angle_alpha   114.34402506
_cell_angle_beta   101.44645333
_cell_angle_gamma   90.17209128
_symmetry_Int_Tables_number   1
_chemical_formula_structural   HoPH3CO6
_chemical_formula_sum   'Ho2 P2 H6 C2 O12'
_cell_volume   321.24332477
_cell_formula_units_Z   2
loop_
 _symmetry_equiv_pos_site_id
 _symmetry_equiv_pos_as_xyz
  1  'x, y, z'
loop_
 _atom_site_type_symbol
 _atom_site_label
 _atom_site_symmetry_multiplicity
 _atom_site_fract_x
 _atom_site_fract_y
 _atom_site_fract_z
 _atom_site_occupancy
 _atom_site_hle17_bader_spin_density
 _atom_site_hle17_ddec_charge
 _atom_site_hle17_ddec_spin_density
 _atom_site_hle17_ddec_sum_bond_order
 _atom_site_hle17_magmom
 _atom_site_hse06_10hf_bader_spin_density
 _atom_site_hse06_10hf_ddec_charge
 _atom_site_hse06_10hf_ddec_spin_density
 _atom_site_hse06_10hf_ddec_sum_bond_order
 _atom_site_hse06_10hf_magmom
 _atom_site_hse06_bader_spin_density
 _atom_site_hse06_ddec_charge
 _atom_site_hse06_ddec_spin_density
 _atom_site_hse06_ddec_sum_bond_order
 _atom_site_hse06_magmom
 _atom_site_pbe_bader_spin_density
 _atom_site_pbe_cm5_charge
 _atom_site_pbe_ddec_charge
 _atom_site_pbe_ddec_spin_density
 _atom_site_pbe_ddec_sum_bond_order
 _atom_site_pbe_magmom
Ho  Ho0  1  0.11453329  0.21832308  0.93563731  1  0  2.307769  0  1.644594  0  0  2.170478  0  2.098824  0  0  2.291424  0  1.919964  0  0  1.575511  2.13743  0  2.127272  0
Ho  Ho1  1  0.88547175  0.78167453  0.06436671  1  0  2.307775  0  1.64459  0  0  2.17046  0  2.098836  0  0  2.291416  0  1.919958  0  0  1.57549  2.13744  0  2.127236  0
P  P2  1  0.66848253  0.25270295  0.00884403  1  0  1.526586  0  4.862091  0  0  1.342656  0  5.378756  0  0  1.39485  0  5.352632  0  0  0.283257  1.305936  0  5.408586  0
P  P3  1  0.33152492  0.74729443  0.99114792  1  0  1.526558  0  4.862306  0  0  1.342607  0  5.378947  0  0  1.394782  0  5.352854  0  0  0.283184  1.305884  0  5.408773  0
H  H4  1  0.66023953  0.33944946  0.19688104  1  0  -0.12574  0  0.855844  0  0  -0.095061  0  0.934549  0  0  -0.097765  0  0.928968  0  0  0.111945  -0.093105  0  0.938548  0
H  H5  1  0.33975719  0.66055878  0.80310467  1  0  -0.125742  0  0.855872  0  0  -0.095033  0  0.934533  0  0  -0.097721  0  0.928947  0  0  0.111946  -0.093076  0  0.938529  0
H  H6  1  0.12803042  0.28775786  0.30666575  1  0  0.439292  0  0.856397  0  0  0.411211  0  0.914459  0  0  0.422075  0  0.898721  0  0  0.306701  0.40369  0  0.925503  0
H  H7  1  0.87195226  0.71223149  0.69333891  1  0  0.439255  0  0.856482  0  0  0.41116  0  0.914547  0  0  0.422022  0  0.898812  0  0  0.306698  0.403644  0  0.92558  0
H  H8  1  0.13413569  0.51715226  0.30797116  1  0  0.441835  0  0.853441  0  0  0.413667  0  0.911495  0  0  0.424891  0  0.89518  0  0  0.30625  0.405879  0  0.922953  0
H  H9  1  0.86587412  0.48283920  0.69203997  1  0  0.441899  0  0.853349  0  0  0.413723  0  0.911418  0  0  0.424948  0  0.8951  0  0  0.306245  0.405937  0  0.922874  0
C  C10  1  0.99393469  0.11124900  0.49910089  1  0  0.589655  0  3.898975  0  0  0.545698  0  4.188841  0  0  0.575931  0  4.184933  0  0  0.239927  0.525138  0  4.195331  0
C  C11  1  0.00604887  0.88874690  0.50091224  1  0  0.589658  0  3.89885  0  0  0.545602  0  4.188858  0  0  0.575881  0  4.184902  0  0  0.239849  0.525043  0  4.195347  0
O  O12  1  0.80282378  0.05775082  0.96967280  1  0  -1.027811  0  2.091514  0  0  -0.94498  0  2.37508  0  0  -0.990937  0  2.354898  0  0  -0.51151  -0.925713  0  2.387991  0
O  O13  1  0.19719066  0.94225160  0.03032661  1  0  -1.027828  0  2.091532  0  0  -0.944996  0  2.375102  0  0  -0.990952  0  2.354921  0  0  -0.5115  -0.925718  0  2.388012  0
O  O14  1  0.44264858  0.19860761  0.89465334  1  0  -0.916934  0  1.960413  0  0  -0.840469  0  2.235437  0  0  -0.878276  0  2.209145  0  0  -0.481965  -0.821743  0  2.24909  0
O  O15  1  0.55736100  0.80138322  0.10532805  1  0  -0.916941  0  1.960477  0  0  -0.840453  0  2.235499  0  0  -0.878269  0  2.209221  0  0  -0.481949  -0.821732  0  2.24915  0
O  O16  1  0.80409942  0.41557233  0.97723036  1  0  -1.027589  0  2.098252  0  0  -0.944855  0  2.382736  0  0  -0.990792  0  2.362533  0  0  -0.510997  -0.92548  0  2.39544  0
O  O17  1  0.19591289  0.58442674  0.02276275  1  0  -1.027499  0  2.098148  0  0  -0.94476  0  2.38261  0  0  -0.990695  0  2.362416  0  0  -0.510925  -0.925429  0  2.395407  0
O  O18  1  0.01423816  0.26941929  0.65456545  1  0  -0.656061  0  2.100052  0  0  -0.603575  0  2.336109  0  0  -0.636361  0  2.323415  0  0  -0.33575  -0.586929  0  2.342882  0
O  O19  1  0.98574320  0.73058105  0.34543293  1  0  -0.656061  0  2.09985  0  0  -0.603545  0  2.335928  0  0  -0.636344  0  2.323213  0  0  -0.335676  -0.5869  0  2.3427  0
O  O20  1  0.03494809  0.88411389  0.65731625  1  0  -0.657841  0  2.099027  0  0  -0.606388  0  2.336675  0  0  -0.638863  0  2.324359  0  0  -0.335164  -0.589851  0  2.343304  0
O  O21  1  0.96504805  0.11590303  0.34270428  1  0  -0.657894  0  2.098904  0  0  -0.606452  0  2.336512  0  0  -0.638915  0  2.324212  0  0  -0.335107  -0.589916  0  2.343146  0
O  O22  1  0.19415290  0.37685646  0.25782187  1  0  -0.893158  0  1.822781  0  0  -0.84836  0  1.999972  0  0  -0.876173  0  1.960612  0  0  -0.64823  -0.83522  0  2.022418  0
O  O23  1  0.80584856  0.62315709  0.74218588  1  0  -0.893182  0  1.822857  0  0  -0.848338  0  2.000091  0  0  -0.876155  0  1.960727  0  0  -0.648231  -0.835208  0  2.022523  0
