# generated using pymatgen
data_CuH4C3NCl
_symmetry_space_group_name_H-M   'P 1'
_cell_length_a   6.30060078
_cell_length_b   8.70298354
_cell_length_c   15.96028233
_cell_angle_alpha   89.99963913
_cell_angle_beta   90.00020733
_cell_angle_gamma   95.77038583
_symmetry_Int_Tables_number   1
_chemical_formula_structural   CuH4C3NCl
_chemical_formula_sum   'Cu8 H32 C24 N8 Cl8'
_cell_volume   870.73188083
_cell_formula_units_Z   8
loop_
 _symmetry_equiv_pos_site_id
 _symmetry_equiv_pos_as_xyz
  1  'x, y, z'
loop_
 _atom_site_type_symbol
 _atom_site_label
 _atom_site_symmetry_multiplicity
 _atom_site_fract_x
 _atom_site_fract_y
 _atom_site_fract_z
 _atom_site_occupancy
 _atom_site_hle17_bader_spin_density
 _atom_site_hle17_ddec_charge
 _atom_site_hle17_ddec_spin_density
 _atom_site_hle17_ddec_sum_bond_order
 _atom_site_hle17_magmom
 _atom_site_hse06_10hf_bader_spin_density
 _atom_site_hse06_10hf_ddec_charge
 _atom_site_hse06_10hf_ddec_spin_density
 _atom_site_hse06_10hf_ddec_sum_bond_order
 _atom_site_hse06_10hf_magmom
 _atom_site_hse06_bader_spin_density
 _atom_site_hse06_ddec_charge
 _atom_site_hse06_ddec_spin_density
 _atom_site_hse06_ddec_sum_bond_order
 _atom_site_hse06_magmom
 _atom_site_pbe_bader_spin_density
 _atom_site_pbe_cm5_charge
 _atom_site_pbe_ddec_charge
 _atom_site_pbe_ddec_spin_density
 _atom_site_pbe_ddec_sum_bond_order
 _atom_site_pbe_magmom
Cu  Cu0  1  0.23580051  0.28870853  0.86673307  1  0  0.486499  0  2.032647  0  0  0.430296  0  2.484384  0  0  0.437181  0  2.442036  0  0  0.479034  0.425261  0  2.5134  0
Cu  Cu1  1  0.76420121  0.21128577  0.36673615  1  0  0.4866  0  2.032603  0  0  0.430347  0  2.484419  0  0  0.437241  0  2.442068  0  0  0.47903  0.425312  0  2.513436  0
Cu  Cu2  1  0.76419956  0.71128415  0.13326383  1  0  0.486579  0  2.03256  0  0  0.430318  0  2.484362  0  0  0.437204  0  2.442015  0  0  0.479047  0.425279  0  2.513384  0
Cu  Cu3  1  0.23579671  0.78871385  0.63326639  1  0  0.486536  0  2.032614  0  0  0.430293  0  2.484352  0  0  0.437188  0  2.442011  0  0  0.479026  0.425262  0  2.513368  0
Cu  Cu4  1  0.23215600  0.48113489  0.99241910  1  0  0.395077  0  2.010476  0  0  0.32369  0  2.493163  0  0  0.335925  0  2.435351  0  0  0.254947  0.31661  0  2.532129  0
Cu  Cu5  1  0.76784513  0.01885808  0.49242099  1  0  0.395067  0  2.010485  0  0  0.323694  0  2.493176  0  0  0.335905  0  2.435356  0  0  0.254942  0.316607  0  2.532134  0
Cu  Cu6  1  0.76784566  0.51885778  0.00758094  1  0  0.395088  0  2.010383  0  0  0.323696  0  2.493069  0  0  0.335931  0  2.435249  0  0  0.254946  0.316617  0  2.532042  0
Cu  Cu7  1  0.23215297  0.98114269  0.50758155  1  0  0.395114  0  2.010266  0  0  0.32374  0  2.492943  0  0  0.335973  0  2.435126  0  0  0.254957  0.316653  0  2.531905  0
H  H8  1  0.57647149  0.07544109  0.65208585  1  0  0.093908  0  0.972762  0  0  0.095793  0  1.051485  0  0  0.099687  0  1.046023  0  0  0.119172  0.092738  0  1.055673  0
H  H9  1  0.42353187  0.42455663  0.15208958  1  0  0.093884  0  0.972691  0  0  0.095764  0  1.051427  0  0  0.099659  0  1.045969  0  0  0.11914  0.09271  0  1.055616  0
H  H10  1  0.42351974  0.92455625  0.34790917  1  0  0.093905  0  0.972811  0  0  0.095751  0  1.051568  0  0  0.09964  0  1.046106  0  0  0.119125  0.0927  0  1.05575  0
H  H11  1  0.57647245  0.57543256  0.84790857  1  0  0.093961  0  0.972782  0  0  0.095795  0  1.051515  0  0  0.099688  0  1.046059  0  0  0.119163  0.092743  0  1.055698  0
H  H12  1  0.58901941  0.97991262  0.91224068  1  0  0.119264  0  0.960499  0  0  0.131997  0  1.015943  0  0  0.133769  0  1.016576  0  0  0.116048  0.130637  0  1.01572  0
H  H13  1  0.41097918  0.52009397  0.41224458  1  0  0.119288  0  0.960426  0  0  0.132061  0  1.015837  0  0  0.133834  0  1.016468  0  0  0.116082  0.130701  0  1.01562  0
H  H14  1  0.41099913  0.02008690  0.08775810  1  0  0.1192  0  0.960594  0  0  0.132003  0  1.015963  0  0  0.133773  0  1.016596  0  0  0.116053  0.13064  0  1.015745  0
H  H15  1  0.58900827  0.47992072  0.58775608  1  0  0.119218  0  0.960684  0  0  0.132075  0  1.015982  0  0  0.133848  0  1.016612  0  0  0.116079  0.130713  0  1.015767  0
H  H16  1  0.28117473  0.77591072  0.83609305  1  0  0.108343  0  0.988036  0  0  0.115771  0  1.051923  0  0  0.117892  0  1.052015  0  0  0.101878  0.114116  0  1.052101  0
H  H17  1  0.71883261  0.72409548  0.33609227  1  0  0.108325  0  0.988005  0  0  0.115781  0  1.051861  0  0  0.117902  0  1.051951  0  0  0.101856  0.114126  0  1.05204  0
H  H18  1  0.71883010  0.22408193  0.16391199  1  0  0.108293  0  0.9883  0  0  0.115697  0  1.052175  0  0  0.117814  0  1.052275  0  0  0.101819  0.114042  0  1.052355  0
H  H19  1  0.28117387  0.27591912  0.66390651  1  0  0.108288  0  0.988232  0  0  0.115723  0  1.052073  0  0  0.117846  0  1.052169  0  0  0.101831  0.114066  0  1.052253  0
H  H20  1  0.83381135  0.24162959  0.73443829  1  0  0.09425  0  0.920997  0  0  0.109247  0  0.979941  0  0  0.110062  0  0.980386  0  0  0.109273  0.10856  0  0.979807  0
H  H21  1  0.16619193  0.25837304  0.23444288  1  0  0.094165  0  0.920958  0  0  0.109148  0  0.979936  0  0  0.109959  0  0.980381  0  0  0.109234  0.108463  0  0.979801  0
H  H22  1  0.16619523  0.75836422  0.26556049  1  0  0.094082  0  0.920931  0  0  0.109114  0  0.979865  0  0  0.109924  0  0.980309  0  0  0.109241  0.108432  0  0.979733  0
H  H23  1  0.83380367  0.74163237  0.76556342  1  0  0.094215  0  0.921008  0  0  0.109213  0  0.979949  0  0  0.110028  0  0.980392  0  0  0.109273  0.108528  0  0.979816  0
H  H24  1  0.74549397  0.27745175  0.83852091  1  0  0.084746  0  0.961319  0  0  0.094028  0  1.033351  0  0  0.094675  0  1.033775  0  0  0.098126  0.09339  0  1.033326  0
H  H25  1  0.25451031  0.22255092  0.33852512  1  0  0.084676  0  0.961361  0  0  0.093976  0  1.033383  0  0  0.094614  0  1.033814  0  0  0.098122  0.093341  0  1.033356  0
H  H26  1  0.25451313  0.72254551  0.16147474  1  0  0.084707  0  0.961304  0  0  0.094007  0  1.033331  0  0  0.094646  0  1.03376  0  0  0.098133  0.093371  0  1.033304  0
H  H27  1  0.74548863  0.77745563  0.66147742  1  0  0.084737  0  0.961293  0  0  0.094001  0  1.033338  0  0  0.094645  0  1.033772  0  0  0.098118  0.093363  0  1.033313  0
H  H28  1  0.07241828  0.04818222  0.79090703  1  0  0.100976  0  0.963468  0  0  0.108546  0  1.030056  0  0  0.110599  0  1.029769  0  0  0.09373  0.106985  0  1.030466  0
H  H29  1  0.92757700  0.45181638  0.29090949  1  0  0.10095  0  0.963506  0  0  0.108497  0  1.030103  0  0  0.110548  0  1.029824  0  0  0.093722  0.106937  0  1.030513  0
H  H30  1  0.92758655  0.95181044  0.20908987  1  0  0.101025  0  0.96352  0  0  0.108525  0  1.030172  0  0  0.110576  0  1.029888  0  0  0.093726  0.106964  0  1.030583  0
H  H31  1  0.07241016  0.54818560  0.70909117  1  0  0.101013  0  0.963519  0  0  0.108514  0  1.03019  0  0  0.110566  0  1.029907  0  0  0.093718  0.106956  0  1.030599  0
H  H32  1  0.93038093  0.17833701  0.96192317  1  0  0.138306  0  0.960845  0  0  0.146746  0  1.028012  0  0  0.15029  0  1.024929  0  0  0.089897  0.143998  0  1.030602  0
H  H33  1  0.06961764  0.32166207  0.46192802  1  0  0.138322  0  0.960826  0  0  0.146823  0  1.027936  0  0  0.150366  0  1.024856  0  0  0.089917  0.144069  0  1.030536  0
H  H34  1  0.06961790  0.82165798  0.03807373  1  0  0.138272  0  0.960853  0  0  0.146766  0  1.027972  0  0  0.150311  0  1.024889  0  0  0.089889  0.144017  0  1.030562  0
H  H35  1  0.93037530  0.67834682  0.53807577  1  0  0.138299  0  0.960835  0  0  0.146741  0  1.028003  0  0  0.150284  0  1.024926  0  0  0.089888  0.143993  0  1.030594  0
H  H36  1  0.13862974  0.04454270  0.94461363  1  0  0.13632  0  0.961128  0  0  0.150161  0  1.017621  0  0  0.151917  0  1.017902  0  0  0.093209  0.148896  0  1.017521  0
H  H37  1  0.86136008  0.45545198  0.44461536  1  0  0.136364  0  0.961199  0  0  0.150197  0  1.0177  0  0  0.151952  0  1.017983  0  0  0.093219  0.148934  0  1.0176  0
H  H38  1  0.86136716  0.95544999  0.05538577  1  0  0.136353  0  0.961166  0  0  0.15019  0  1.017668  0  0  0.151946  0  1.017949  0  0  0.093228  0.148925  0  1.017567  0
H  H39  1  0.13862725  0.54455115  0.55538530  1  0  0.136407  0  0.961107  0  0  0.150184  0  1.017664  0  0  0.15194  0  1.017946  0  0  0.093242  0.148921  0  1.017564  0
C  C40  1  0.53446855  0.02134414  0.71182296  1  0  0.160981  0  3.650176  0  0  0.102538  0  3.920372  0  0  0.116116  0  3.931133  0  0  0.135032  0.093653  0  3.91322  0
C  C41  1  0.46553388  0.47865410  0.21182468  1  0  0.161036  0  3.649921  0  0  0.102587  0  3.920117  0  0  0.116154  0  3.930876  0  0  0.135039  0.093706  0  3.912963  0
C  C42  1  0.46552852  0.97864970  0.28817958  1  0  0.161089  0  3.649932  0  0  0.102662  0  3.920175  0  0  0.116237  0  3.930928  0  0  0.135057  0.093778  0  3.913023  0
C  C43  1  0.53447039  0.52134549  0.78817912  1  0  0.160927  0  3.649964  0  0  0.10256  0  3.920199  0  0  0.116125  0  3.930953  0  0  0.135026  0.093677  0  3.913044  0
C  C44  1  0.53831302  0.96939192  0.84759143  1  0  -0.063694  0  3.670362  0  0  -0.101334  0  3.921858  0  0  -0.100381  0  3.941944  0  0  -0.005007  -0.102039  0  3.90871  0
C  C45  1  0.46169685  0.53061992  0.34759286  1  0  -0.063598  0  3.670419  0  0  -0.101275  0  3.921876  0  0  -0.100324  0  3.941967  0  0  -0.004997  -0.101982  0  3.908732  0
C  C46  1  0.46169198  0.03060189  0.15240609  1  0  -0.063436  0  3.669846  0  0  -0.101141  0  3.921299  0  0  -0.100185  0  3.941384  0  0  -0.004941  -0.101844  0  3.908152  0
C  C47  1  0.53830272  0.46940164  0.65240216  1  0  -0.063544  0  3.669938  0  0  -0.10129  0  3.92139  0  0  -0.100338  0  3.941478  0  0  -0.005008  -0.101999  0  3.908248  0
C  C48  1  0.38786531  0.86842108  0.80894495  1  0  -0.012593  0  3.738156  0  0  -0.039311  0  4.001979  0  0  -0.039133  0  4.022251  0  0  -0.011077  -0.039422  0  3.988496  0
C  C49  1  0.61213088  0.63158662  0.30894309  1  0  -0.012683  0  3.73836  0  0  -0.039409  0  4.002153  0  0  -0.039234  0  4.022421  0  0  -0.011103  -0.03952  0  3.988672  0
C  C50  1  0.61217034  0.13157606  0.19105446  1  0  -0.012675  0  3.737894  0  0  -0.039351  0  4.001728  0  0  -0.039176  0  4.021992  0  0  -0.011049  -0.039463  0  3.988251  0
C  C51  1  0.38783792  0.36842006  0.69105256  1  0  -0.012674  0  3.737773  0  0  -0.039368  0  4.001618  0  0  -0.039203  0  4.021885  0  0  -0.011046  -0.039479  0  3.98814  0
C  C52  1  0.80188075  0.19056905  0.79649240  1  0  -0.008561  0  3.645894  0  0  -0.068601  0  3.894631  0  0  -0.065212  0  3.905948  0  0  -0.062657  -0.070836  0  3.887141  0
C  C53  1  0.19812285  0.30943176  0.29649622  1  0  -0.008276  0  3.645637  0  0  -0.068385  0  3.894452  0  0  -0.064972  0  3.905728  0  0  -0.062619  -0.070625  0  3.886961  0
C  C54  1  0.19812301  0.80942708  0.20350325  1  0  -0.008245  0  3.645473  0  0  -0.068382  0  3.894292  0  0  -0.064965  0  3.905566  0  0  -0.062677  -0.070625  0  3.886807  0
C  C55  1  0.80187065  0.69057019  0.70350757  1  0  -0.008502  0  3.645804  0  0  -0.068523  0  3.894535  0  0  -0.06513  0  3.905842  0  0  -0.062636  -0.070762  0  3.887049  0
C  C56  1  0.99528237  0.12599964  0.83234414  1  0  -0.080596  0  3.716073  0  0  -0.099826  0  4.015742  0  0  -0.095526  0  4.023477  0  0  -0.158078  -0.10267  0  4.010374  0
C  C57  1  0.00472135  0.37399963  0.33234810  1  0  -0.080568  0  3.716045  0  0  -0.099721  0  4.015673  0  0  -0.095424  0  4.023405  0  0  -0.158042  -0.102558  0  4.010303  0
C  C58  1  0.00472524  0.87400109  0.16765213  1  0  -0.080623  0  3.71615  0  0  -0.099763  0  4.015798  0  0  -0.095466  0  4.023529  0  0  -0.158023  -0.102605  0  4.010431  0
C  C59  1  0.99527324  0.62599885  0.66765569  1  0  -0.080549  0  3.716106  0  0  -0.099736  0  4.015765  0  0  -0.095434  0  4.023499  0  0  -0.158017  -0.102579  0  4.010398  0
C  C60  1  0.03341321  0.12394478  0.91813644  1  0  -0.315116  0  3.684758  0  0  -0.364409  0  3.968659  0  0  -0.363255  0  3.971379  0  0  -0.249888  -0.365068  0  3.967015  0
C  C61  1  0.96658626  0.37605245  0.41814048  1  0  -0.315238  0  3.684897  0  0  -0.364588  0  3.968737  0  0  -0.363439  0  3.97146  0  0  -0.249917  -0.365251  0  3.967097  0
C  C62  1  0.96658403  0.87605022  0.08186171  1  0  -0.315182  0  3.684988  0  0  -0.364514  0  3.96882  0  0  -0.363359  0  3.971538  0  0  -0.249916  -0.365172  0  3.967173  0
C  C63  1  0.03341269  0.62395410  0.58186394  1  0  -0.315245  0  3.684897  0  0  -0.364468  0  3.968788  0  0  -0.363317  0  3.971511  0  0  -0.249946  -0.365131  0  3.967147  0
N  N64  1  0.38728119  0.90179653  0.72391381  1  0  -0.361468  0  3.397588  0  0  -0.297945  0  3.712707  0  0  -0.312234  0  3.72038  0  0  -0.402191  -0.288382  0  3.707401  0
N  N65  1  0.61272390  0.59820162  0.22391333  1  0  -0.361394  0  3.397426  0  0  -0.297887  0  3.712558  0  0  -0.312158  0  3.720211  0  0  -0.402198  -0.28832  0  3.707248  0
N  N66  1  0.61271814  0.09820193  0.27608935  1  0  -0.361575  0  3.397607  0  0  -0.298064  0  3.712745  0  0  -0.312337  0  3.7204  0  0  -0.402192  -0.288498  0  3.707438  0
N  N67  1  0.38727861  0.40179682  0.77608608  1  0  -0.36139  0  3.397393  0  0  -0.297929  0  3.71256  0  0  -0.312192  0  3.720207  0  0  -0.402206  -0.288363  0  3.707249  0
N  N68  1  0.62897069  0.06541424  0.78532039  1  0  -0.054744  0  3.54104  0  0  0.043249  0  3.750075  0  0  0.028253  0  3.776575  0  0  -0.240382  0.053105  0  3.732272  0
N  N69  1  0.37103543  0.43459361  0.28532464  1  0  -0.054934  0  3.540977  0  0  0.043097  0  3.750005  0  0  0.028094  0  3.776499  0  0  -0.240341  0.052956  0  3.732204  0
N  N70  1  0.37103375  0.93458650  0.21467651  1  0  -0.054944  0  3.540908  0  0  0.043093  0  3.749943  0  0  0.028089  0  3.776438  0  0  -0.240366  0.052952  0  3.73214  0
N  N71  1  0.62896351  0.56541294  0.71467539  1  0  -0.05483  0  3.541037  0  0  0.043158  0  3.7501  0  0  0.028161  0  3.7766  0  0  -0.240367  0.053016  0  3.732296  0
Cl  Cl72  1  0.48682263  0.30680114  0.97892484  1  0  -0.49411  0  1.431028  0  0  -0.421498  0  1.804727  0  0  -0.4362  0  1.767539  0  0  -0.270954  -0.411368  0  1.830242  0
Cl  Cl73  1  0.51317981  0.19319081  0.47893077  1  0  -0.494107  0  1.431015  0  0  -0.421479  0  1.804706  0  0  -0.436174  0  1.767507  0  0  -0.270918  -0.411343  0  1.830214  0
Cl  Cl74  1  0.51317428  0.69319155  0.02107019  1  0  -0.494138  0  1.43105  0  0  -0.421481  0  1.804672  0  0  -0.436203  0  1.76752  0  0  -0.270922  -0.411352  0  1.830186  0
Cl  Cl75  1  0.48681987  0.80680995  0.52107491  1  0  -0.494109  0  1.431034  0  0  -0.42148  0  1.804705  0  0  -0.436194  0  1.767542  0  0  -0.270942  -0.411346  0  1.830214  0
Cl  Cl76  1  0.00687583  0.56738778  0.89498442  1  0  -0.527826  0  1.355121  0  0  -0.459161  0  1.713258  0  0  -0.474441  0  1.677623  0  0  -0.290156  -0.448203  0  1.737419  0
Cl  Cl77  1  0.99312620  0.93261089  0.39498453  1  0  -0.527857  0  1.355125  0  0  -0.4592  0  1.713273  0  0  -0.474473  0  1.677629  0  0  -0.290167  -0.448236  0  1.737429  0
Cl  Cl78  1  0.99313269  0.43260833  0.10501624  1  0  -0.527811  0  1.355072  0  0  -0.459157  0  1.713243  0  0  -0.474437  0  1.677608  0  0  -0.290148  -0.448185  0  1.737377  0
Cl  Cl79  1  0.00685887  0.06738763  0.60501988  1  0  -0.52782  0  1.355057  0  0  -0.459179  0  1.713243  0  0  -0.474456  0  1.677605  0  0  -0.290139  -0.448196  0  1.737361  0
