# generated using pymatgen
data_PrH2C7O6
_symmetry_space_group_name_H-M   'P 1'
_cell_length_a   7.40636599
_cell_length_b   8.91112377
_cell_length_c   9.86105592
_cell_angle_alpha   90.00004139
_cell_angle_beta   89.99998078
_cell_angle_gamma   89.85419725
_symmetry_Int_Tables_number   1
_chemical_formula_structural   PrH2C7O6
_chemical_formula_sum   'Pr4 H8 C28 O24'
_cell_volume   650.81815700
_cell_formula_units_Z   4
loop_
 _symmetry_equiv_pos_site_id
 _symmetry_equiv_pos_as_xyz
  1  'x, y, z'
loop_
 _atom_site_type_symbol
 _atom_site_label
 _atom_site_symmetry_multiplicity
 _atom_site_fract_x
 _atom_site_fract_y
 _atom_site_fract_z
 _atom_site_occupancy
 _atom_site_pbe_bader_spin_density
 _atom_site_pbe_cm5_charge
 _atom_site_pbe_ddec_charge
 _atom_site_pbe_ddec_spin_density
 _atom_site_pbe_ddec_sum_bond_order
 _atom_site_pbe_magmom
Pr  Pr0  1  0.85118582  0.17576719  0.25000056  1  0  1.466114  2.142515  0  2.067218  0
Pr  Pr1  1  0.64913793  0.67573215  0.75000095  1  0  1.465701  2.143345  0  2.065702  0
Pr  Pr2  1  0.35084853  0.32435688  0.24999966  1  0  1.465501  2.143433  0  2.065303  0
Pr  Pr3  1  0.14882250  0.82416021  0.74999904  1  0  1.466303  2.141547  0  2.069382  0
H  H4  1  0.95781394  0.59282266  0.46964653  1  0  0.129685  0.153021  0  1.025323  0
H  H5  1  0.53970694  0.09368466  0.53015921  1  0  0.129786  0.153386  0  1.022812  0
H  H6  1  0.46054688  0.90645440  0.03015117  1  0  0.129818  0.153278  0  1.023103  0
H  H7  1  0.04205810  0.40698051  0.96965896  1  0  0.129716  0.153134  0  1.024667  0
H  H8  1  0.04206494  0.40698257  0.53034293  1  0  0.129734  0.153139  0  1.024721  0
H  H9  1  0.46054814  0.90645457  0.46984647  1  0  0.129832  0.153289  0  1.023117  0
H  H10  1  0.53970955  0.09368371  0.96984133  1  0  0.129793  0.153388  0  1.022822  0
H  H11  1  0.95781403  0.59282360  0.03035281  1  0  0.129694  0.153042  0  1.025306  0
C  C12  1  0.85903713  0.88916438  0.48530216  1  0  0.206298  0.558736  0  4.245369  0
C  C13  1  0.64117734  0.38888206  0.51451594  1  0  0.205813  0.557529  0  4.246606  0
C  C14  1  0.35870249  0.61125739  0.01451483  1  0  0.206173  0.557949  0  4.246668  0
C  C15  1  0.14111017  0.11074623  0.98527888  1  0  0.206255  0.55842  0  4.245729  0
C  C16  1  0.14111162  0.11074828  0.51472177  1  0  0.206219  0.558412  0  4.246019  0
C  C17  1  0.35870643  0.61125757  0.48548467  1  0  0.206196  0.558012  0  4.246494  0
C  C18  1  0.64117994  0.38888225  0.98548680  1  0  0.205793  0.557475  0  4.246672  0
C  C19  1  0.85903724  0.88916419  0.01469942  1  0  0.206307  0.558718  0  4.245386  0
C  C20  1  0.91378726  0.79694984  0.37083467  1  0  0.083688  0.107299  0  3.950171  0
C  C21  1  0.58766482  0.29682095  0.62911926  1  0  0.084185  0.108219  0  3.951845  0
C  C22  1  0.41216493  0.70337026  0.12912327  1  0  0.083958  0.108069  0  3.952521  0
C  C23  1  0.08632105  0.20289003  0.87087434  1  0  0.083799  0.107245  0  3.951035  0
C  C24  1  0.08632515  0.20289105  0.62912436  1  0  0.083788  0.107223  0  3.951142  0
C  C25  1  0.41216622  0.70337148  0.37087425  1  0  0.083994  0.10809  0  3.952334  0
C  C26  1  0.58766747  0.29682105  0.87088140  1  0  0.084185  0.108153  0  3.951922  0
C  C27  1  0.91378731  0.79694974  0.12916481  1  0  0.083671  0.107265  0  3.950254  0
C  C28  1  0.95601021  0.64742041  0.37161344  1  0  -0.072411  -0.226241  0  3.897311  0
C  C29  1  0.54374075  0.14781612  0.62837386  1  0  -0.072392  -0.226486  0  3.896712  0
C  C30  1  0.45628888  0.85233336  0.12836578  1  0  -0.07238  -0.226304  0  3.897622  0
C  C31  1  0.04391451  0.35238711  0.87159845  1  0  -0.072292  -0.225978  0  3.898376  0
C  C32  1  0.04391997  0.35238701  0.62840137  1  0  -0.072299  -0.226  0  3.898462  0
C  C33  1  0.45629018  0.85233346  0.37163182  1  0  -0.072361  -0.226248  0  3.897601  0
C  C34  1  0.54374340  0.14781621  0.87162773  1  0  -0.072385  -0.226438  0  3.896763  0
C  C35  1  0.95601027  0.64742031  0.12838796  1  0  -0.072419  -0.226267  0  3.897385  0
C  C36  1  0.98223103  0.56490982  0.24999966  1  0  0.101221  0.402887  0  4.080074  0
C  C37  1  0.51770096  0.06534943  0.75000077  1  0  0.101347  0.402767  0  4.077488  0
C  C38  1  0.48235294  0.93479002  0.24999883  1  0  0.101629  0.40315  0  4.077778  0
C  C39  1  0.01765194  0.43486622  0.74999893  1  0  0.101076  0.402565  0  4.080746  0
O  O40  1  0.81500938  0.02478579  0.46072136  1  0  -0.362556  -0.616476  0  2.363408  0
O  O41  1  0.68527026  0.52439010  0.53895859  1  0  -0.361777  -0.615877  0  2.360691  0
O  O42  1  0.31455955  0.47578646  0.03900000  1  0  -0.362076  -0.61638  0  2.361347  0
O  O43  1  0.18512990  0.97508217  0.96071790  1  0  -0.362905  -0.616339  0  2.363023  0
O  O44  1  0.18512864  0.97508312  0.53927824  1  0  -0.362905  -0.616356  0  2.363161  0
O  O45  1  0.31456486  0.47578662  0.46099841  1  0  -0.362151  -0.61646  0  2.361418  0
O  O46  1  0.68526881  0.52439027  0.96104220  1  0  -0.361797  -0.615868  0  2.360717  0
O  O47  1  0.81500947  0.02478562  0.03927967  1  0  -0.362568  -0.616461  0  2.363437  0
O  O48  1  0.85499497  0.83068564  0.60658530  1  0  -0.456312  -0.761514  0  2.377161  0
O  O49  1  0.64420739  0.33049550  0.39310803  1  0  -0.458056  -0.762411  0  2.379877  0
O  O50  1  0.35576281  0.66959141  0.89309114  1  0  -0.458008  -0.762246  0  2.380769  0
O  O51  1  0.14519167  0.16921452  0.10658091  1  0  -0.456268  -0.761814  0  2.376675  0
O  O52  1  0.14519431  0.16921351  0.39341937  1  0  -0.456256  -0.761794  0  2.376709  0
O  O53  1  0.35576557  0.66959242  0.60690678  1  0  -0.457988  -0.762261  0  2.380737  0
O  O54  1  0.64420881  0.33049651  0.10689527  1  0  -0.45804  -0.7624  0  2.379971  0
O  O55  1  0.85499491  0.83068576  0.89341564  1  0  -0.456299  -0.761485  0  2.377093  0
O  O56  1  0.02141804  0.42032171  0.24999973  1  0  -0.461465  -0.755332  0  2.385856  0
O  O57  1  0.47789773  0.92099427  0.75000004  1  0  -0.460448  -0.75482  0  2.381555  0
O  O58  1  0.52224261  0.07913162  0.24999956  1  0  -0.460895  -0.755232  0  2.381809  0
O  O59  1  0.97840952  0.57948918  0.75000088  1  0  -0.46157  -0.75543  0  2.383512  0
O  O60  1  0.90550306  0.87635278  0.25000078  1  0  -0.161215  -0.21825  0  2.763121  0
O  O61  1  0.59829449  0.37592873  0.75000086  1  0  -0.162837  -0.220525  0  2.765578  0
O  O62  1  0.40126509  0.62431449  0.24999873  1  0  -0.162173  -0.220233  0  2.765936  0
O  O63  1  0.09464850  0.12349480  0.74999780  1  0  -0.161767  -0.218773  0  2.761094  0
