# generated using pymatgen
data_Zn4H30C36Cl2O13
_symmetry_space_group_name_H-M   'P 1'
_cell_length_a   17.80597444
_cell_length_b   18.64705218
_cell_length_c   23.39570500
_cell_angle_alpha   66.58183045
_cell_angle_beta   69.60351056
_cell_angle_gamma   89.96246557
_symmetry_Int_Tables_number   1
_chemical_formula_structural   Zn4H30C36Cl2O13
_chemical_formula_sum   'Zn8 H60 C72 Cl4 O26'
_cell_volume   6594.89196715
_cell_formula_units_Z   2
loop_
 _symmetry_equiv_pos_site_id
 _symmetry_equiv_pos_as_xyz
  1  'x, y, z'
loop_
 _atom_site_type_symbol
 _atom_site_label
 _atom_site_symmetry_multiplicity
 _atom_site_fract_x
 _atom_site_fract_y
 _atom_site_fract_z
 _atom_site_occupancy
 _atom_site_pbe_bader_charge
 _atom_site_pbe_bader_spin_density
 _atom_site_pbe_cm5_charge
 _atom_site_pbe_ddec_charge
 _atom_site_pbe_ddec_spin_density
 _atom_site_pbe_ddec_sum_bond_order
 _atom_site_pbe_magmom
Zn  Zn0  1  0.11858415  0.53138304  0.94131368  1  1.314495  0  0.668669  0.958676  0  2.380463  0
Zn  Zn1  1  0.97192092  0.55962763  0.05094280  1  1.316306  0  0.66709  0.951391  0  2.40659  0
Zn  Zn2  1  0.97644523  0.38919202  0.05023612  1  1.312749  0  0.66804  0.95269  0  2.408508  0
Zn  Zn3  1  0.93882708  0.53048244  0.93444565  1  1.308903  0  0.669202  0.964484  0  2.345373  0
Zn  Zn4  1  0.38518176  0.97735473  0.04967655  1  1.313459  0  0.668088  0.956599  0  2.385562  0
Zn  Zn5  1  0.52980157  0.11616589  0.93661787  1  1.310237  0  0.668434  0.951708  0  2.411476  0
Zn  Zn6  1  0.52386155  0.94640559  0.93650886  1  1.302023  0  0.667367  0.952328  0  2.407283  0
Zn  Zn7  1  0.56745687  0.97252325  0.05051302  1  1.317419  0  0.668928  0.965375  0  2.340785  0
H  H8  1  0.49688778  0.86734933  0.26337545  1  0.083772  0  0.111822  0.120048  0  0.988492  0
H  H9  1  0.43222710  0.80424929  0.38921070  1  0.072723  0  0.112274  0.117814  0  0.979844  0
H  H10  1  0.26059660  0.87494269  0.25273642  1  0.110727  0  0.113705  0.136341  0  0.987556  0
H  H11  1  0.25119505  0.63110948  0.73763274  1  0.108263  0  0.113327  0.135696  0  0.986264  0
H  H12  1  0.01711541  0.63802578  0.72278032  1  0.128628  0  0.111435  0.119703  0  0.989855  0
H  H13  1  0.08443016  0.70085720  0.59711508  1  0.068137  0  0.111783  0.117613  0  0.980908  0
H  H14  1  0.63080850  0.02084106  0.72825887  1  0.081111  0  0.112286  0.121029  0  0.989247  0
H  H15  1  0.70021484  0.08520641  0.60257487  1  0.094701  0  0.111993  0.117137  0  0.978801  0
H  H16  1  0.62719933  0.25019344  0.73069556  1  0.115988  0  0.114072  0.136017  0  0.985403  0
H  H17  1  0.87084613  0.25527077  0.25716916  1  0.095308  0  0.114014  0.136086  0  0.985365  0
H  H18  1  0.86811830  0.48506964  0.25876697  1  0.091628  0  0.112182  0.120535  0  0.989009  0
H  H19  1  0.80948232  0.42112418  0.38491487  1  0.088262  0  0.111927  0.116965  0  0.978051  0
H  H20  1  0.19907393  0.30231810  0.91064117  1  0.030262  0  0.091812  0.086389  0  0.979578  0
H  H21  1  0.12711689  0.23055049  0.98701631  1  0.055498  0  0.093233  0.091831  0  0.983099  0
H  H22  1  0.21639684  0.13884632  0.98435051  1  0.050731  0  0.093146  0.091976  0  0.982416  0
H  H23  1  0.28816514  0.21140733  0.90832921  1  -0.000363  0  0.091855  0.08702  0  0.978282  0
H  H24  1  0.21583472  0.12479766  0.09571530  1  0.056197  0  0.093077  0.094118  0  0.984578  0
H  H25  1  0.28772228  0.18585703  0.09968354  1  0.005087  0  0.090177  0.084521  0  0.979333  0
H  H26  1  0.12753922  0.21772569  0.09836801  1  0.067949  0  0.092644  0.093947  0  0.986944  0
H  H27  1  0.20072372  0.27887300  0.10088999  1  0.00898  0  0.089937  0.084046  0  0.978796  0
H  H28  1  0.30355282  0.39196113  0.91365510  1  0.03756  0  0.090775  0.090629  0  0.985848  0
H  H29  1  0.30414459  0.38341071  0.99101982  1  0.016468  0  0.089442  0.085882  0  0.97968  0
H  H30  1  0.39254273  0.29078694  0.99013935  1  0.008976  0  0.089781  0.087272  0  0.982185  0
H  H31  1  0.39273319  0.30031106  0.91239093  1  0.023938  0  0.091303  0.091671  0  0.984619  0
H  H32  1  0.89029803  0.80024762  0.90472009  1  -0.014075  0  0.091056  0.085366  0  0.97945  0
H  H33  1  0.88707263  0.78742333  0.98467531  1  0.039435  0  0.09287  0.091904  0  0.985089  0
H  H34  1  0.79781861  0.87944538  0.98601783  1  0.042559  0  0.092761  0.091381  0  0.984004  0
H  H35  1  0.80121546  0.89126550  0.90624036  1  0.005488  0  0.091187  0.085944  0  0.97896  0
H  H36  1  0.69432861  0.77571017  0.09161212  1  0.024768  0  0.092705  0.093624  0  0.985897  0
H  H37  1  0.62249031  0.71411167  0.08807322  1  0.027039  0  0.089779  0.083802  0  0.979996  0
H  H38  1  0.78222243  0.68235942  0.09047649  1  0.049156  0  0.093379  0.094904  0  0.987759  0
H  H39  1  0.71056586  0.62226907  0.08528992  1  0.002166  0  0.089418  0.083267  0  0.979054  0
H  H40  1  0.78911407  0.71246252  0.89676343  1  -0.002336  0  0.090117  0.08848  0  0.984708  0
H  H41  1  0.71613499  0.63927800  0.97015624  1  0.005073  0  0.090003  0.08708  0  0.980752  0
H  H42  1  0.62635235  0.73045340  0.97275061  1  0.044116  0  0.089489  0.08686  0  0.982043  0
H  H43  1  0.69899471  0.80327885  0.89907051  1  0.027262  0  0.090625  0.090238  0  0.984292  0
H  H44  1  0.16249355  0.79308285  0.93680653  1  0.01433  0  0.091082  0.084957  0  0.98032  0
H  H45  1  0.24689780  0.75688039  0.89622783  1  0.035698  0  0.09396  0.093534  0  0.982464  0
H  H46  1  0.33384443  0.85280719  0.89385736  1  0.047669  0  0.093998  0.094045  0  0.983032  0
H  H47  1  0.24894465  0.88753725  0.93558427  1  0.027219  0  0.091591  0.086631  0  0.977722  0
H  H48  1  0.39399137  0.74379779  0.96084537  1  0.0523  0  0.093065  0.094261  0  0.986921  0
H  H49  1  0.35284575  0.70257410  0.04962466  1  -0.005442  0  0.089684  0.083329  0  0.980593  0
H  H50  1  0.30558458  0.64785911  0.96410846  1  0.008511  0  0.092912  0.094218  0  0.98696  0
H  H51  1  0.26434771  0.60801544  0.05289055  1  -0.006336  0  0.08956  0.083837  0  0.979957  0
H  H52  1  0.10172267  0.73518947  0.06501458  1  0.030168  0  0.09048  0.090247  0  0.984891  0
H  H53  1  0.14268277  0.65921608  0.11240289  1  0.033767  0  0.089396  0.086524  0  0.981005  0
H  H54  1  0.23166421  0.75334755  0.11008305  1  0.020623  0  0.089794  0.086926  0  0.981414  0
H  H55  1  0.18982935  0.82927192  0.06353310  1  0.058948  0  0.090509  0.089703  0  0.984164  0
H  H56  1  0.89897543  0.26784251  0.92950148  1  0.014888  0  0.091611  0.086636  0  0.980631  0
H  H57  1  0.85423563  0.34357624  0.88466868  1  0.03163  0  0.093423  0.091207  0  0.981169  0
H  H58  1  0.76846288  0.24749322  0.88613190  1  0.045946  0  0.093544  0.092898  0  0.980998  0
H  H59  1  0.81208091  0.17216538  0.93261706  1  0.025751  0  0.091159  0.085362  0  0.978176  0
H  H60  1  0.64885779  0.29774022  0.94603492  1  0.029914  0  0.092703  0.094045  0  0.986131  0
H  H61  1  0.60567390  0.25660948  0.03473597  1  0.017761  0  0.089618  0.083202  0  0.980829  0
H  H62  1  0.73536115  0.39229222  0.94620404  1  0.036214  0  0.092591  0.094204  0  0.986903  0
H  H63  1  0.69276894  0.34942752  0.03496414  1  0.025824  0  0.089435  0.084063  0  0.98031  0
H  H64  1  0.83888746  0.20530540  0.05776047  1  0.042219  0  0.090675  0.090603  0  0.988339  0
H  H65  1  0.75580352  0.23918467  0.10115482  1  0.006553  0  0.089632  0.086116  0  0.979428  0
H  H66  1  0.66654632  0.14641061  0.10235210  1  0.020527  0  0.089324  0.086249  0  0.980945  0
H  H67  1  0.74973411  0.11099395  0.06071148  1  0.028747  0  0.090527  0.08941  0  0.984905  0
C  C68  1  0.14161699  0.63499937  0.00331159  1  1.539744  0  0.235479  0.603419  0  4.097612  0
C  C69  1  0.90833814  0.41155543  0.17565513  1  1.492095  0  0.225929  0.599139  0  4.174863  0
C  C70  1  0.14550717  0.36485323  0.00052775  1  1.526116  0  0.23381  0.601393  0  4.100967  0
C  C71  1  0.86061553  0.36583691  0.99048077  1  1.558342  0  0.235241  0.60379  0  4.095096  0
C  C72  1  0.09109537  0.59324286  0.81286149  1  1.551202  0  0.227413  0.60298  0  4.167446  0
C  C73  1  0.86086380  0.64322946  0.98864008  1  1.526855  0  0.233103  0.600974  0  4.097556  0
C  C74  1  0.36133277  0.14274256  0.99653643  1  1.548234  0  0.234988  0.602683  0  4.096859  0
C  C75  1  0.58394766  0.09393780  0.81148412  1  1.537272  0  0.225608  0.598709  0  4.174606  0
C  C76  1  0.35583083  0.86326522  0.99800678  1  1.551142  0  0.235817  0.604215  0  4.093991  0
C  C77  1  0.64348538  0.86455985  0.99198053  1  1.523038  0  0.234057  0.603365  0  4.093054  0
C  C78  1  0.41958959  0.91300413  0.17530535  1  1.623561  0  0.227279  0.603479  0  4.167127  0
C  C79  1  0.64690945  0.13948931  0.99242428  1  1.538803  0  0.235648  0.604825  0  4.096521  0
C  C80  1  0.38258155  0.87491098  0.25062127  1  -0.000297  0  -0.014056  -0.018695  0  3.97032  0
C  C81  1  0.43111399  0.85484450  0.28907485  1  0.014359  0  -0.083141  -0.100649  0  3.990121  0
C  C82  1  0.39517173  0.81982445  0.35883859  1  -0.029906  0  -0.075853  -0.10601  0  3.940486  0
C  C83  1  0.30972468  0.80328733  0.39258588  1  0.209762  0  8.8e-05  0.082469  0  4.088165  0
C  C84  1  0.26189816  0.82380124  0.35270554  1  0.058861  0  0.022399  0.114463  0  4.001463  0
C  C85  1  0.29784204  0.85924726  0.28287176  1  -0.02198  0  -0.086416  -0.160659  0  3.960279  0
C  C86  1  0.27377509  0.76762551  0.46352386  1  -0.180425  0  -0.040475  -0.085957  0  4.123731  0
C  C87  1  0.24312215  0.73695209  0.52495020  1  -0.172255  0  -0.041678  -0.088723  0  4.12425  0
C  C88  1  0.20599914  0.70166428  0.59583303  1  0.122647  0  0.001886  0.085717  0  4.086341  0
C  C89  1  0.25240859  0.68134326  0.63685134  1  0.029956  0  0.020892  0.110437  0  4.001797  0
C  C90  1  0.21500272  0.64645852  0.70662751  1  0.084782  0  -0.085815  -0.158179  0  3.955604  0
C  C91  1  0.13014308  0.63082155  0.73764457  1  -0.020758  0  -0.015116  -0.021367  0  3.972805  0
C  C92  1  0.08300431  0.65049678  0.69802517  1  -0.105262  0  -0.08221  -0.098007  0  3.992979  0
C  C93  1  0.12040241  0.68531577  0.62836954  1  0.016746  0  -0.076164  -0.107139  0  3.941851  0
C  C94  1  0.62476880  0.13179311  0.73659953  1  0.072181  0  -0.015306  -0.019836  0  3.978329  0
C  C95  1  0.64547408  0.08500031  0.70069288  1  -0.081085  0  -0.082091  -0.099159  0  3.992606  0
C  C96  1  0.68391167  0.12065582  0.63121441  1  0.009356  0  -0.075439  -0.104795  0  3.941612  0
C  C97  1  0.70302368  0.20400800  0.59538334  1  0.249124  0  0.000615  0.083586  0  4.091155  0
C  C98  1  0.68209513  0.25011577  0.63268940  1  0.022228  0  0.021088  0.110899  0  4.001574  0
C  C99  1  0.64330526  0.21444827  0.70235295  1  -0.003358  0  -0.084791  -0.157276  0  3.954576  0
C  C100  1  0.74085980  0.23908072  0.52467708  1  -0.09999  0  -0.04071  -0.085868  0  4.128954  0
C  C101  1  0.77220317  0.26726571  0.46336481  1  -0.343905  0  -0.041033  -0.088895  0  4.132749  0
C  C102  1  0.80650936  0.30211427  0.39252286  1  0.165997  0  0.001179  0.085148  0  4.091052  0
C  C103  1  0.82444309  0.25575096  0.35534531  1  0.1619  0  0.020996  0.111373  0  4.000941  0
C  C104  1  0.85717117  0.29121687  0.28540314  1  -0.055644  0  -0.084944  -0.15803  0  3.956096  0
C  C105  1  0.87272276  0.37390009  0.25079370  1  0.050987  0  -0.014834  -0.019977  0  3.976901  0
C  C106  1  0.85548978  0.42089888  0.28662864  1  0.115106  0  -0.082289  -0.098268  0  3.991109  0
C  C107  1  0.82307134  0.38547321  0.35636993  1  -0.145063  0  -0.075  -0.104692  0  3.940174  0
C  C108  1  0.19057283  0.26016947  0.96207868  1  -0.05747  0  -0.154758  -0.168802  0  3.849031  0
C  C109  1  0.24977417  0.19935443  0.96054641  1  -0.016964  0  -0.155212  -0.169485  0  3.849925  0
C  C110  1  0.30465581  0.20370998  0.99826388  1  0.051144  0  -0.015879  0.021441  0  3.812653  0
C  C111  1  0.24954403  0.18513864  0.07164373  1  -0.029655  0  -0.159017  -0.173025  0  3.862377  0
C  C112  1  0.19114786  0.24663553  0.07289584  1  -0.041458  0  -0.158449  -0.170114  0  3.860413  0
C  C113  1  0.20543997  0.30654411  0.00041876  1  0.052719  0  -0.016464  0.019681  0  3.810355  0
C  C114  1  0.29381333  0.34892297  0.96496355  1  -0.012192  0  -0.163825  -0.175118  0  3.886746  0
C  C115  1  0.35256300  0.28795354  0.96411377  1  0.014583  0  -0.165088  -0.179276  0  3.890158  0
C  C116  1  0.84909961  0.78625433  0.95667977  1  0.001642  0  -0.155432  -0.168788  0  3.848819  0
C  C117  1  0.78977460  0.84710212  0.95769787  1  -0.004517  0  -0.155736  -0.169702  0  3.851262  0
C  C118  1  0.70103580  0.80408154  0.99063864  1  0.03902  0  -0.016209  0.021866  0  3.807772  0
C  C119  1  0.68603693  0.74371332  0.06315810  1  -0.019685  0  -0.158632  -0.17251  0  3.866148  0
C  C120  1  0.74467559  0.68251267  0.06189264  1  -0.022271  0  -0.15843  -0.171602  0  3.859216  0
C  C121  1  0.80098249  0.70167243  0.98856987  1  0.046024  0  -0.016833  0.020216  0  3.811354  0
C  C122  1  0.74910990  0.69957956  0.94867739  1  0.043168  0  -0.16413  -0.17512  0  3.889243  0
C  C123  1  0.68967446  0.75994964  0.95020342  1  -0.045129  0  -0.164906  -0.17811  0  3.885275  0
C  C124  1  0.21910920  0.77118035  0.93951080  1  -0.014123  0  -0.154528  -0.16823  0  3.852901  0
C  C125  1  0.27692166  0.83427812  0.93821831  1  -0.040967  0  -0.155161  -0.170331  0  3.853679  0
C  C126  1  0.29684136  0.80037542  0.00241996  1  0.037089  0  -0.016718  0.021949  0  3.809581  0
C  C127  1  0.33688958  0.72619985  0.00488154  1  -0.011159  0  -0.159124  -0.173086  0  3.860704  0
C  C128  1  0.27828073  0.66308988  0.00686962  1  0.028499  0  -0.158493  -0.172553  0  3.863799  0
C  C129  1  0.19846699  0.69436441  0.00508751  1  0.041405  0  -0.016558  0.02141  0  3.808544  0
C  C130  1  0.15899080  0.71390841  0.06584011  1  -0.018405  0  -0.163508  -0.176532  0  3.883131  0
C  C131  1  0.21753495  0.77640442  0.06449861  1  -0.043156  0  -0.164823  -0.177318  0  3.885498  0
C  C132  1  0.84076396  0.28803726  0.93011526  1  -0.020292  0  -0.154669  -0.169185  0  3.850624  0
C  C133  1  0.78311703  0.22459863  0.93142769  1  -0.042846  0  -0.154302  -0.166978  0  3.84592  0
C  C134  1  0.70323570  0.19934539  0.99424011  1  0.044768  0  -0.01698  0.019198  0  3.813278  0
C  C135  1  0.66358289  0.27389359  0.99123869  1  -0.012825  0  -0.159018  -0.171791  0  3.858197  0
C  C136  1  0.72133973  0.33617046  0.99110451  1  -0.029293  0  -0.16004  -0.1754  0  3.868755  0
C  C137  1  0.80105666  0.30490433  0.99292937  1  0.064076  0  -0.015584  0.022436  0  3.805793  0
C  C138  1  0.78194940  0.22699985  0.05651080  1  -0.013388  0  -0.164766  -0.175938  0  3.883074  0
C  C139  1  0.72323882  0.16492301  0.05771560  1  -0.017377  0  -0.164368  -0.176175  0  3.892071  0
Cl  Cl140  1  0.15731819  0.80464271  0.39105955  1  -0.215858  0  -0.021631  -0.092524  0  1.430276  0
Cl  Cl141  1  0.35709117  0.69996269  0.59996742  1  -0.178084  0  -0.021782  -0.091735  0  1.429993  0
Cl  Cl142  1  0.70483351  0.35206960  0.59131948  1  -0.203206  0  -0.02071  -0.091203  0  1.429721  0
Cl  Cl143  1  0.80533532  0.15375155  0.39724627  1  -0.194607  0  -0.020685  -0.091384  0  1.429888  0
O  O144  1  0.00099577  0.50334111  0.99309509  1  -1.236288  0  -0.573142  -1.026871  0  2.543261  0
O  O145  1  0.17177914  0.60745775  0.95957524  1  -1.170486  0  -0.317639  -0.553832  0  2.340479  0
O  O146  1  0.91859528  0.48704360  0.14687017  1  -1.148427  0  -0.314582  -0.543249  0  2.339254  0
O  O147  1  0.07155383  0.33567418  0.03945583  1  -1.176241  0  -0.316478  -0.54965  0  2.353151  0
O  O148  1  0.06797980  0.61864186  0.04428511  1  -1.182032  0  -0.313401  -0.545337  0  2.364466  0
O  O149  1  0.17280882  0.43768614  0.96096240  1  -1.178107  0  -0.312999  -0.547455  0  2.356688  0
O  O150  1  0.92563020  0.36515129  0.14652913  1  -1.176464  0  -0.314489  -0.540962  0  2.337661  0
O  O151  1  0.90040748  0.33934443  0.02841542  1  -1.189997  0  -0.315483  -0.550393  0  2.379396  0
O  O152  1  0.01359229  0.57954818  0.83888207  1  -1.174515  0  -0.314746  -0.546521  0  2.323676  0
O  O153  1  0.86760853  0.43814261  0.94998183  1  -1.178798  0  -0.316032  -0.550766  0  2.325737  0
O  O154  1  0.13895517  0.57807570  0.84457628  1  -1.183608  0  -0.316256  -0.544618  0  2.340256  0
O  O155  1  0.90020544  0.63546911  0.02661828  1  -1.169966  0  -0.317149  -0.552654  0  2.358764  0
O  O156  1  0.86780774  0.60717522  0.95123717  1  -1.16873  0  -0.312299  -0.545755  0  2.343156  0
O  O157  1  0.50181524  0.00228288  0.99458282  1  -1.227821  0  -0.572331  -1.025393  0  2.542335  0
O  O158  1  0.32933306  0.06980388  0.03105306  1  -1.182534  0  -0.316825  -0.55199  0  2.337843  0
O  O159  1  0.56496896  0.14020053  0.84062691  1  -1.171422  0  -0.314902  -0.540982  0  2.339588  0
O  O160  1  0.42704830  0.87987046  0.95260596  1  -1.184804  0  -0.318574  -0.554961  0  2.353124  0
O  O161  1  0.43633740  0.16892755  0.96028654  1  -1.182502  0  -0.313758  -0.546327  0  2.369944  0
O  O162  1  0.33005263  0.89524695  0.03881602  1  -1.173466  0  -0.312592  -0.544729  0  2.351368  0
O  O163  1  0.57165802  0.01837478  0.84017175  1  -1.17869  0  -0.313794  -0.542692  0  2.339296  0
O  O164  1  0.60319459  0.87671670  0.95436699  1  -1.167113  0  -0.312645  -0.54521  0  2.372097  0
O  O165  1  0.49681062  0.92201519  0.14745296  1  -1.183993  0  -0.314171  -0.545117  0  2.314103  0
O  O166  1  0.64017873  0.89863005  0.03046877  1  -1.162827  0  -0.317674  -0.555684  0  2.328538  0
O  O167  1  0.37017539  0.93329488  0.14530799  1  -1.185522  0  -0.316804  -0.546271  0  2.345395  0
O  O168  1  0.61860362  0.16610908  0.94603191  1  -1.175031  0  -0.319011  -0.553142  0  2.354285  0
O  O169  1  0.63268958  0.06797617  0.03626416  1  -1.180501  0  -0.313416  -0.549094  0  2.345497  0
