# generated using pymatgen
data_CuH8C4(N4Cl)2
_symmetry_space_group_name_H-M   'P 1'
_cell_length_a   8.65811550
_cell_length_b   9.68474326
_cell_length_c   13.02856314
_cell_angle_alpha   90.00382947
_cell_angle_beta   89.99545457
_cell_angle_gamma   111.68823120
_symmetry_Int_Tables_number   1
_chemical_formula_structural   CuH8C4(N4Cl)2
_chemical_formula_sum   'Cu4 H32 C16 N32 Cl8'
_cell_volume   1015.12887546
_cell_formula_units_Z   4
loop_
 _symmetry_equiv_pos_site_id
 _symmetry_equiv_pos_as_xyz
  1  'x, y, z'
loop_
 _atom_site_type_symbol
 _atom_site_label
 _atom_site_symmetry_multiplicity
 _atom_site_fract_x
 _atom_site_fract_y
 _atom_site_fract_z
 _atom_site_occupancy
 _atom_site_pbe_cm5_charge
 _atom_site_pbe_ddec_charge
 _atom_site_pbe_ddec_spin_density
 _atom_site_pbe_ddec_sum_bond_order
 _atom_site_pbe_magmom
Cu  Cu0  1  0.61421676  0.13299752  0.38884031  1  0.609284  0.631629  -0.708863  2.416947  -0.534
Cu  Cu1  1  0.88579382  0.36701417  0.88884027  1  0.609358  0.631684  0.708914  2.417635  0.534
Cu  Cu2  1  0.38574268  0.86700898  0.61115057  1  0.609365  0.631648  -0.708884  2.416841  -0.534
Cu  Cu3  1  0.11423184  0.63297659  0.11115368  1  0.609316  0.631645  0.708856  2.416399  0.534
H  H4  1  0.84116130  0.28523479  0.59315757  1  0.12626  0.115492  0.000193  1.035524  0.0
H  H5  1  0.65880324  0.21479826  0.09315081  1  0.126131  0.115264  -0.000193  1.035746  0.0
H  H6  1  0.15882467  0.71476608  0.40681796  1  0.126223  0.115412  0.000193  1.035727  0.0
H  H7  1  0.34114904  0.78519379  0.90683086  1  0.12623  0.115524  -0.000193  1.035597  0.0
H  H8  1  0.71969289  0.72323052  0.42843194  1  0.111588  0.137768  0.000496  1.038501  0.0
H  H9  1  0.78033274  0.77679587  0.92842846  1  0.111581  0.137649  -0.000495  1.038434  0.0
H  H10  1  0.28031365  0.27680590  0.57156047  1  0.111563  0.137606  0.000495  1.038559  0.0
H  H11  1  0.21968463  0.22322495  0.07156012  1  0.111611  0.13777  -0.000495  1.038556  0.0
H  H12  1  0.90388199  0.77933967  0.50522202  1  0.109312  0.149904  -0.000343  0.995865  0.0
H  H13  1  0.59613222  0.72072150  0.00522348  1  0.109269  0.149921  0.000342  0.995957  0.0
H  H14  1  0.09612892  0.22068227  0.49477653  1  0.109336  0.149921  -0.000343  0.995966  0.0
H  H15  1  0.40389555  0.27931042  0.99477430  1  0.109303  0.149953  0.000342  0.995649  0.0
H  H16  1  0.70290788  0.72887060  0.56567176  1  0.100767  0.139375  -0.000141  1.035336  0.0
H  H17  1  0.79707133  0.77115978  0.06566351  1  0.100779  0.139376  0.000141  1.0356  0.0
H  H18  1  0.29706842  0.27114586  0.43433063  1  0.100749  0.139436  -0.000141  1.035524  0.0
H  H19  1  0.20294513  0.22886437  0.93432583  1  0.100787  0.139479  0.000141  1.035326  0.0
H  H20  1  0.79546032  0.44070854  0.24619110  1  0.130478  0.117793  9.6e-05  1.023794  0.0
H  H21  1  0.70450246  0.05920019  0.74616177  1  0.130458  0.117783  -9.6e-05  1.023485  0.0
H  H22  1  0.20450160  0.55919562  0.75377061  1  0.130396  0.117555  9.6e-05  1.023512  0.0
H  H23  1  0.29546918  0.94075511  0.25380608  1  0.130468  0.117716  -9.6e-05  1.02366  0.0
H  H24  1  0.15748438  0.12051919  0.28081179  1  0.102395  0.146003  -0.000815  1.035457  0.0
H  H25  1  0.34258237  0.37949731  0.78087452  1  0.102415  0.14584  0.000816  1.035101  0.0
H  H26  1  0.84249810  0.87943163  0.71918599  1  0.102354  0.145918  -0.000815  1.035282  0.0
H  H27  1  0.65747655  0.62053453  0.21916164  1  0.102381  0.14593  0.000815  1.035286  0.0
H  H28  1  0.95871347  0.04962874  0.34638547  1  0.110021  0.152755  0.000137  1.007863  0.0
H  H29  1  0.54136434  0.45038803  0.84641391  1  0.110111  0.15262  -0.000137  1.008119  0.0
H  H30  1  0.04129235  0.95036429  0.65362383  1  0.109976  0.152707  0.000137  1.007752  0.0
H  H31  1  0.45867101  0.54959826  0.15364298  1  0.110079  0.152801  -0.000137  1.007824  0.0
H  H32  1  0.97183218  0.01262082  0.21275935  1  0.103436  0.134837  0.000274  1.024314  0.0
H  H33  1  0.52823163  0.48737687  0.71279030  1  0.103331  0.134591  -0.000274  1.024375  0.0
H  H34  1  0.02813162  0.98735452  0.78726453  1  0.103441  0.134781  0.000273  1.024305  0.0
H  H35  1  0.47186928  0.51265042  0.28727196  1  0.10343  0.134745  -0.000274  1.024432  0.0
C  C36  1  0.79779851  0.36234324  0.55335269  1  0.150803  0.118611  -0.000357  3.947693  -0.001
C  C37  1  0.70217302  0.13769520  0.05334446  1  0.150865  0.11869  0.000356  3.94713  0.001
C  C38  1  0.20219418  0.63768209  0.44662591  1  0.150696  0.118523  -0.000357  3.94726  -0.001
C  C39  1  0.29778504  0.86230796  0.94662954  1  0.150815  0.118385  0.000356  3.947806  0.001
C  C40  1  0.77237888  0.70656045  0.50136834  1  -0.129861  -0.337226  -0.000891  3.820222  -0.001
C  C41  1  0.72762553  0.79347604  0.00137639  1  -0.129791  -0.337146  0.000891  3.82072  0.001
C  C42  1  0.22761912  0.29346375  0.49862177  1  -0.129866  -0.337135  -0.000891  3.820672  -0.001
C  C43  1  0.27237175  0.20652147  0.99862908  1  -0.130015  -0.337537  0.000891  3.82031  0.001
C  C44  1  0.88220818  0.38481650  0.23920584  1  0.154588  0.115845  0.000188  3.998066  0.001
C  C45  1  0.61777490  0.11514738  0.73918923  1  0.154742  0.115948  -0.000186  3.997248  -0.001
C  C46  1  0.11774040  0.61516111  0.76077966  1  0.154848  0.116122  0.000185  3.99781  0.001
C  C47  1  0.38221452  0.88483123  0.26080011  1  0.154575  0.115883  -0.000187  3.997494  -0.001
C  C48  1  0.02334434  0.09383278  0.27435504  1  -0.128036  -0.33835  0.000378  3.802694  0.001
C  C49  1  0.47673062  0.40616551  0.77439048  1  -0.127994  -0.337665  -0.000378  3.802774  -0.001
C  C50  1  0.97666192  0.90613912  0.72565273  1  -0.127845  -0.338304  0.000378  3.80295  0.001
C  C51  1  0.52332989  0.59383407  0.22565336  1  -0.127983  -0.338221  -0.000379  3.802614  -0.001
N  N52  1  0.84162402  0.50540638  0.57730242  1  -0.19668  -0.231925  -0.003136  3.082235  -0.003
N  N53  1  0.65835363  0.99461803  0.07730173  1  -0.196603  -0.231918  0.003138  3.081439  0.003
N  N54  1  0.15835550  0.49460118  0.42268309  1  -0.196466  -0.23162  -0.003137  3.081341  -0.003
N  N55  1  0.34160164  0.00535622  0.92268301  1  -0.19654  -0.231454  0.003134  3.082142  0.003
N  N56  1  0.76128543  0.55312258  0.50663407  1  0.004944  0.335098  -0.001575  3.794138  -0.002
N  N57  1  0.73872609  0.94690197  0.00663983  1  0.004917  0.335289  0.001576  3.793868  0.002
N  N58  1  0.23869802  0.44689164  0.49335451  1  0.004832  0.334947  -0.001575  3.794195  -0.002
N  N59  1  0.26127303  0.05308329  0.99335718  1  0.004993  0.334991  0.001573  3.793528  0.002
N  N60  1  0.67105554  0.44934127  0.44234977  1  -0.059633  -0.076202  -0.000407  3.070262  0.0
N  N61  1  0.82895441  0.05068698  0.94235949  1  -0.059808  -0.076627  0.000408  3.070496  0.0
N  N62  1  0.32892237  0.55067631  0.55763036  1  -0.059754  -0.076439  -0.000409  3.070653  0.0
N  N63  1  0.17104288  0.94932722  0.05766286  1  -0.059804  -0.076347  0.000407  3.069295  0.0
N  N64  1  0.69350419  0.32629713  0.47146449  1  -0.230172  -0.180407  -0.049456  3.555253  -0.062
N  N65  1  0.80648917  0.17372178  0.97146071  1  -0.230026  -0.180007  0.049486  3.554939  0.062
N  N66  1  0.30647788  0.67371933  0.52851641  1  -0.230066  -0.180142  -0.049462  3.55496  -0.062
N  N67  1  0.19350049  0.82627130  0.02853631  1  -0.23009  -0.180277  0.049441  3.554435  0.062
N  N68  1  0.85929043  0.25254071  0.27915696  1  -0.204672  -0.259735  0.004243  3.287403  0.004
N  N69  1  0.64075375  0.24743987  0.77916941  1  -0.204948  -0.260208  -0.004238  3.287  -0.004
N  N70  1  0.14072461  0.74744674  0.72082394  1  -0.204757  -0.259816  0.004234  3.287283  0.004
N  N71  1  0.35926244  0.75253090  0.22084833  1  -0.204739  -0.259968  -0.004242  3.287003  -0.004
N  N72  1  0.99664701  0.23043548  0.25128248  1  0.003593  0.337467  0.001821  3.781748  0.003
N  N73  1  0.50339957  0.26956790  0.75130559  1  0.003926  0.33785  -0.001825  3.781925  -0.003
N  N74  1  0.00337312  0.76956976  0.74872145  1  0.003542  0.337608  0.001828  3.782012  0.003
N  N75  1  0.49661940  0.73043178  0.24872213  1  0.003638  0.337585  -0.001824  3.781704  -0.003
N  N76  1  0.10070058  0.34014640  0.19624681  1  -0.053906  -0.064166  0.000152  3.069786  0.0
N  N77  1  0.39934204  0.15986287  0.69626736  1  -0.054075  -0.064504  -0.000156  3.071084  0.0
N  N78  1  0.89933616  0.65984322  0.80376019  1  -0.054106  -0.064462  0.00016  3.071135  0.0
N  N79  1  0.60067049  0.84016574  0.30374117  1  -0.054252  -0.064662  -0.000156  3.07073  0.0
N  N80  1  0.02821774  0.43898070  0.18831781  1  -0.231944  -0.173454  0.055196  3.620361  0.07
N  N81  1  0.47177439  0.06102155  0.68832354  1  -0.231908  -0.173193  -0.055203  3.621156  -0.07
N  N82  1  0.97177216  0.56102128  0.81167077  1  -0.231879  -0.173209  0.055215  3.621793  0.07
N  N83  1  0.52821668  0.93899711  0.31166274  1  -0.231622  -0.172902  -0.055211  3.620993  -0.07
Cl  Cl84  1  0.47051012  0.22612467  0.27581244  1  -0.291126  -0.476732  -0.095892  1.23287  -0.112
Cl  Cl85  1  0.02946020  0.27391957  0.77583209  1  -0.291201  -0.476686  0.095879  1.233542  0.112
Cl  Cl86  1  0.52941539  0.77386967  0.72419762  1  -0.291237  -0.476789  -0.095878  1.23276  -0.112
Cl  Cl87  1  0.97054150  0.72613021  0.22425013  1  -0.291204  -0.476736  0.095911  1.232301  0.112
Cl  Cl88  1  0.74401626  0.03289102  0.50374501  1  -0.291415  -0.494381  -0.098759  1.286527  -0.116
Cl  Cl89  1  0.75604299  0.46712200  0.00377772  1  -0.291415  -0.494354  0.098708  1.286737  0.116
Cl  Cl90  1  0.25599812  0.96713092  0.49622284  1  -0.291423  -0.494363  -0.09876  1.286576  -0.116
Cl  Cl91  1  0.24402974  0.53285419  0.99620164  1  -0.291437  -0.494407  0.098771  1.286276  0.116
