# generated using pymatgen
data_ZnH20C19(NO2)2
_symmetry_space_group_name_H-M   'P 1'
_cell_length_a   9.05790626
_cell_length_b   9.60748653
_cell_length_c   11.61472121
_cell_angle_alpha   80.88398447
_cell_angle_beta   87.38538016
_cell_angle_gamma   64.98636792
_symmetry_Int_Tables_number   1
_chemical_formula_structural   ZnH20C19(NO2)2
_chemical_formula_sum   'Zn2 H40 C38 N4 O8'
_cell_volume   904.12754958
_cell_formula_units_Z   2
loop_
 _symmetry_equiv_pos_site_id
 _symmetry_equiv_pos_as_xyz
  1  'x, y, z'
loop_
 _atom_site_type_symbol
 _atom_site_label
 _atom_site_symmetry_multiplicity
 _atom_site_fract_x
 _atom_site_fract_y
 _atom_site_fract_z
 _atom_site_occupancy
 _atom_site_hle17_bader_spin_density
 _atom_site_hle17_ddec_charge
 _atom_site_hle17_ddec_spin_density
 _atom_site_hle17_ddec_sum_bond_order
 _atom_site_hle17_magmom
 _atom_site_hse06_10hf_bader_spin_density
 _atom_site_hse06_10hf_ddec_charge
 _atom_site_hse06_10hf_ddec_spin_density
 _atom_site_hse06_10hf_ddec_sum_bond_order
 _atom_site_hse06_10hf_magmom
 _atom_site_hse06_bader_spin_density
 _atom_site_hse06_ddec_charge
 _atom_site_hse06_ddec_spin_density
 _atom_site_hse06_ddec_sum_bond_order
 _atom_site_hse06_magmom
 _atom_site_pbe_bader_spin_density
 _atom_site_pbe_cm5_charge
 _atom_site_pbe_ddec_charge
 _atom_site_pbe_ddec_spin_density
 _atom_site_pbe_ddec_sum_bond_order
 _atom_site_pbe_magmom
Zn  Zn0  1  0.18671952  0.29640403  0.53789729  1  0  1.078019  0  1.754251  0  0  0.89954  0  2.219106  0  0  0.946681  0  2.161479  0  0  0.703238  0.866483  0  2.258409  0
Zn  Zn1  1  0.81328040  0.70359442  0.46210244  1  0  1.078026  0  1.754189  0  0  0.899555  0  2.219049  0  0  0.946702  0  2.161425  0  0  0.703249  0.866511  0  2.258357  0
H  H2  1  0.36753154  0.02322614  0.63581459  1  0  0.263657  0  0.945482  0  0  0.25409  0  0.999276  0  0  0.260756  0  0.995427  0  0  0.28823  0.249735  0  1.0014  0
H  H3  1  0.63246675  0.97677351  0.36418762  1  0  0.263642  0  0.945486  0  0  0.254074  0  0.999277  0  0  0.260742  0  0.99543  0  0  0.288195  0.249719  0  1.001401  0
H  H4  1  0.41879482  0.38669556  0.04457739  1  0  0.127333  0  0.966145  0  0  0.141984  0  1.035497  0  0  0.14478  0  1.034089  0  0  0.096148  0.140178  0  1.036202  0
H  H5  1  0.58120285  0.61330294  0.95542672  1  0  0.127434  0  0.965999  0  0  0.142047  0  1.035379  0  0  0.144842  0  1.033971  0  0  0.096191  0.140239  0  1.036086  0
H  H6  1  0.29930126  0.39582859  0.17256171  1  0  0.116895  0  0.935157  0  0  0.140666  0  0.98925  0  0  0.142358  0  0.988851  0  0  0.094407  0.138977  0  0.990693  0
H  H7  1  0.70069642  0.60416991  0.82744153  1  0  0.116803  0  0.935289  0  0  0.140601  0  0.989347  0  0  0.142294  0  0.988947  0  0  0.094393  0.138913  0  0.990787  0
H  H8  1  0.43687931  0.21314226  0.13877366  1  0  0.11736  0  0.951999  0  0  0.136254  0  1.016627  0  0  0.138275  0  1.016389  0  0  0.092867  0.134922  0  1.016753  0
H  H9  1  0.56311493  0.78685396  0.86122743  1  0  0.117344  0  0.952027  0  0  0.136218  0  1.016677  0  0  0.13824  0  1.016435  0  0  0.092841  0.134886  0  1.016802  0
H  H10  1  0.90726209  0.40085720  0.04167444  1  0  0.116878  0  0.946132  0  0  0.138676  0  1.00685  0  0  0.140542  0  1.006141  0  0  0.097719  0.137407  0  1.007156  0
H  H11  1  0.09273884  0.59913891  0.95832212  1  0  0.11682  0  0.94614  0  0  0.138637  0  1.006853  0  0  0.140503  0  1.006143  0  0  0.097691  0.137369  0  1.007158  0
H  H12  1  0.00082380  0.42880413  0.16350591  1  0  0.115864  0  0.951862  0  0  0.137848  0  1.009716  0  0  0.139542  0  1.009306  0  0  0.092883  0.135813  0  1.011566  0
H  H13  1  0.99917651  0.57119084  0.83649169  1  0  0.115832  0  0.951842  0  0  0.137828  0  1.009697  0  0  0.139514  0  1.009295  0  0  0.092883  0.135792  0  1.011547  0
H  H14  1  0.82713203  0.58318977  0.09062250  1  0  0.114997  0  0.946115  0  0  0.140416  0  1.002264  0  0  0.142109  0  1.001767  0  0  0.097217  0.139085  0  1.002555  0
H  H15  1  0.17286667  0.41680639  0.90937586  1  0  0.114951  0  0.94617  0  0  0.140383  0  1.002315  0  0  0.142073  0  1.00182  0  0  0.097188  0.13905  0  1.002608  0
H  H16  1  0.73075326  0.37322144  0.55330953  1  0  0.10542  0  0.977209  0  0  0.116571  0  1.037953  0  0  0.120134  0  1.03613  0  0  0.102178  0.114099  0  1.039208  0
H  H17  1  0.26924763  0.62678508  0.44668737  1  0  0.105452  0  0.977162  0  0  0.116567  0  1.037949  0  0  0.120123  0  1.03614  0  0  0.102199  0.114096  0  1.039203  0
H  H18  1  0.67721415  0.07816590  0.54537609  1  0  0.099772  0  0.955902  0  0  0.111812  0  1.017612  0  0  0.114616  0  1.016069  0  0  0.102504  0.109726  0  1.018497  0
H  H19  1  0.32278995  0.92183827  0.45462274  1  0  0.099879  0  0.955851  0  0  0.111893  0  1.017578  0  0  0.114697  0  1.016035  0  0  0.102554  0.109806  0  1.018467  0
H  H20  1  0.64934060  0.37777749  0.72884642  1  0  0.090275  0  0.979384  0  0  0.099378  0  1.044701  0  0  0.101337  0  1.0453  0  0  0.096771  0.097987  0  1.044189  0
H  H21  1  0.35065683  0.62222677  0.27115176  1  0  0.090261  0  0.979393  0  0  0.099374  0  1.0447  0  0  0.101333  0  1.045298  0  0  0.096753  0.097983  0  1.044186  0
H  H22  1  0.70184652  0.32066425  0.94398001  1  0  0.088654  0  0.992683  0  0  0.092807  0  1.065055  0  0  0.096034  0  1.063551  0  0  0.094302  0.090444  0  1.066204  0
H  H23  1  0.29815041  0.67934117  0.05601803  1  0  0.08865  0  0.992683  0  0  0.092762  0  1.065089  0  0  0.095985  0  1.063591  0  0  0.094305  0.090401  0  1.066243  0
H  H24  1  0.80747362  0.04963940  0.04535092  1  0  0.077529  0  0.975497  0  0  0.088495  0  1.039781  0  0  0.091041  0  1.039349  0  0  0.093933  0.086585  0  1.040323  0
H  H25  1  0.19252504  0.95036715  0.95464692  1  0  0.077632  0  0.975413  0  0  0.088613  0  1.039688  0  0  0.091161  0  1.039255  0  0  0.09399  0.086699  0  1.040228  0
H  H26  1  0.84839972  0.83421526  0.93483274  1  0  0.075508  0  0.969755  0  0  0.089546  0  1.026947  0  0  0.0917  0  1.026682  0  0  0.094256  0.087984  0  1.027172  0
H  H27  1  0.15160499  0.16579006  0.06516591  1  0  0.075554  0  0.969801  0  0  0.089618  0  1.026954  0  0  0.091779  0  1.02668  0  0  0.09431  0.088057  0  1.027179  0
H  H28  1  0.79152431  0.89149724  0.72019479  1  0  0.098901  0  0.963077  0  0  0.106479  0  1.029785  0  0  0.10942  0  1.028936  0  0  0.097358  0.104301  0  1.030503  0
H  H29  1  0.20847868  0.10850694  0.27980322  1  0  0.098841  0  0.963077  0  0  0.106396  0  1.029816  0  0  0.109338  0  1.028967  0  0  0.097326  0.104219  0  1.030536  0
H  H30  1  0.21176224  0.23338417  0.80788737  1  0  0.088399  0  0.955969  0  0  0.110725  0  1.015667  0  0  0.111117  0  1.01599  0  0  0.099592  0.110722  0  1.01487  0
H  H31  1  0.78823223  0.76661668  0.19211309  1  0  0.088386  0  0.955943  0  0  0.110762  0  1.015584  0  0  0.111158  0  1.015909  0  0  0.099577  0.110756  0  1.014795  0
H  H32  1  0.41031792  0.18868678  0.75133629  1  0  0.097846  0  0.954317  0  0  0.118472  0  1.014944  0  0  0.118335  0  1.017173  0  0  0.102315  0.118296  0  1.013722  0
H  H33  1  0.58967765  0.81131406  0.24866758  1  0  0.097813  0  0.954329  0  0  0.118438  0  1.014971  0  0  0.11831  0  1.017192  0  0  0.102309  0.118259  0  1.013751  0
H  H34  1  0.36811081  0.03937746  0.83785363  1  0  0.081022  0  0.952691  0  0  0.101943  0  1.016578  0  0  0.102235  0  1.017314  0  0  0.095647  0.101534  0  1.016195  0
H  H35  1  0.63188365  0.96062340  0.16214855  1  0  0.081019  0  0.952715  0  0  0.101944  0  1.016615  0  0  0.102235  0  1.017353  0  0  0.095658  0.101535  0  1.016232  0
H  H36  1  0.18090333  0.94700816  0.75658128  1  0  0.081448  0  0.963097  0  0  0.099489  0  1.032031  0  0  0.099116  0  1.034462  0  0  0.093203  0.099732  0  1.030379  0
H  H37  1  0.81909770  0.05299029  0.24342014  1  0  0.081438  0  0.963119  0  0  0.0995  0  1.03202  0  0  0.099126  0  1.034454  0  0  0.093215  0.099742  0  1.03037  0
H  H38  1  0.10196707  0.02565750  0.61082199  1  0  0.107331  0  0.935247  0  0  0.128222  0  0.995311  0  0  0.128617  0  0.99647  0  0  0.105455  0.127509  0  0.995509  0
H  H39  1  0.89803384  0.97433864  0.38917974  1  0  0.107304  0  0.935254  0  0  0.128206  0  0.995311  0  0  0.128601  0  0.99647  0  0  0.105458  0.127493  0  0.995509  0
H  H40  1  0.02953828  0.14220771  0.72350048  1  0  0.093808  0  0.948612  0  0  0.115759  0  1.007919  0  0  0.115666  0  1.010044  0  0  0.100051  0.115587  0  1.006621  0
H  H41  1  0.97045990  0.85778962  0.27650118  1  0  0.093831  0  0.948552  0  0  0.115767  0  1.007883  0  0  0.115675  0  1.010009  0  0  0.100064  0.115597  0  1.006584  0
C  C42  1  0.43695529  0.26597942  0.39194080  1  0  0.668215  0  3.920048  0  0  0.615833  0  4.218325  0  0  0.6503  0  4.211115  0  0  0.21145  0.592923  0  4.222562  0
C  C43  1  0.56305044  0.73401319  0.60806209  1  0  0.668008  0  3.920122  0  0  0.615659  0  4.21836  0  0  0.650119  0  4.211147  0  0  0.211378  0.592752  0  4.222592  0
C  C44  1  0.56141615  0.30979223  0.32622027  1  0  -0.213644  0  3.679787  0  0  -0.197994  0  3.9189  0  0  -0.209847  0  3.937391  0  0  -0.015757  -0.191587  0  3.907372  0
C  C45  1  0.43858960  0.69020037  0.67378090  1  0  -0.213552  0  3.67975  0  0  -0.197948  0  3.918938  0  0  -0.209799  0  3.937427  0  0  -0.015797  -0.191556  0  3.907424  0
C  C46  1  0.55120697  0.34368348  0.20358322  1  0  0.299031  0  3.736674  0  0  0.295907  0  3.997329  0  0  0.307372  0  4.013672  0  0  0.123942  0.28861  0  3.98567  0
C  C47  1  0.44879333  0.65631151  0.79641868  1  0  0.298949  0  3.736631  0  0  0.295845  0  3.997275  0  0  0.307311  0  4.013612  0  0  0.123926  0.28856  0  3.985601  0
C  C48  1  0.41933026  0.33423704  0.13555331  1  0  -0.373332  0  3.692356  0  0  -0.453531  0  3.930221  0  0  -0.457449  0  3.936317  0  0  -0.240792  -0.450526  0  3.926288  0
C  C49  1  0.58066631  0.66576147  0.86444911  1  0  -0.373324  0  3.692359  0  0  -0.453497  0  3.930255  0  0  -0.457412  0  3.936346  0  0  -0.240814  -0.450495  0  3.926317  0
C  C50  1  0.77253446  0.40749548  0.19765576  1  0  0.300281  0  3.742706  0  0  0.298261  0  4.001078  0  0  0.309019  0  4.019596  0  0  0.122153  0.291489  0  3.987211  0
C  C51  1  0.22746585  0.59249950  0.80234270  1  0  0.300179  0  3.742853  0  0  0.298335  0  4.001001  0  0  0.309052  0  4.019577  0  0  0.122135  0.291563  0  3.987131  0
C  C52  1  0.88470024  0.45687354  0.11996545  1  0  -0.364141  0  3.713791  0  0  -0.451104  0  3.956631  0  0  -0.454222  0  3.96356  0  0  -0.235992  -0.448161  0  3.951769  0
C  C53  1  0.11529897  0.54312144  0.88003218  1  0  -0.363983  0  3.713778  0  0  -0.451036  0  3.956577  0  0  -0.454132  0  3.963522  0  0  -0.235924  -0.448098  0  3.951734  0
C  C54  1  0.78887628  0.37838669  0.31973318  1  0  -0.218499  0  3.674215  0  0  -0.202716  0  3.910675  0  0  -0.215881  0  3.930654  0  0  -0.015458  -0.195279  0  3.898229  0
C  C55  1  0.21112303  0.62161062  0.68026586  1  0  -0.218567  0  3.674265  0  0  -0.202851  0  3.910775  0  0  -0.216008  0  3.93077  0  0  -0.015486  -0.195413  0  3.898327  0
C  C56  1  0.68358367  0.32476228  0.38667418  1  0  0.141563  0  3.756045  0  0  0.135687  0  3.997361  0  0  0.144695  0  4.017111  0  0  0.015126  0.129954  0  3.985167  0
C  C57  1  0.31641686  0.67523733  0.61332537  1  0  0.14164  0  3.755945  0  0  0.135757  0  3.997296  0  0  0.144766  0  4.017042  0  0  0.015165  0.130024  0  3.985105  0
C  C58  1  0.70253488  0.29125261  0.51378103  1  0  -0.115091  0  3.721049  0  0  -0.134434  0  3.979737  0  0  -0.139201  0  3.998912  0  0  -0.09422  -0.131647  0  3.96747  0
C  C59  1  0.29746761  0.70875274  0.48621683  1  0  -0.115096  0  3.721146  0  0  -0.134396  0  3.979813  0  0  -0.139163  0  3.998992  0  0  -0.094202  -0.131607  0  3.967545  0
C  C60  1  0.69562886  0.16730226  0.58275009  1  0  -0.095749  0  3.711833  0  0  -0.119344  0  3.961589  0  0  -0.118814  0  3.979982  0  0  -0.087164  -0.119098  0  3.949285  0
C  C61  1  0.30437524  0.83270191  0.41724874  1  0  -0.095886  0  3.712041  0  0  -0.119459  0  3.961803  0  0  -0.118928  0  3.980193  0  0  -0.087246  -0.119213  0  3.949502  0
C  C62  1  0.72126652  0.13756545  0.70936707  1  0  0.076772  0  3.829744  0  0  0.101045  0  4.054475  0  0  0.101081  0  4.078283  0  0  -0.013867  0.100627  0  4.039285  0
C  C63  1  0.27873597  0.86243990  0.29063252  1  0  0.076798  0  3.829701  0  0  0.101044  0  4.054445  0  0  0.10108  0  4.078254  0  0  -0.013819  0.100625  0  4.039254  0
C  C64  1  0.69544004  0.25826598  0.77373226  1  0  -0.119892  0  3.727589  0  0  -0.137192  0  3.965078  0  0  -0.1397  0  3.986789  0  0  -0.092466  -0.135149  0  3.949999  0
C  C65  1  0.30456133  0.74173939  0.22626736  1  0  -0.119968  0  3.727477  0  0  -0.137263  0  3.96495  0  0  -0.139768  0  3.986652  0  0  -0.092482  -0.135221  0  3.949878  0
C  C66  1  0.72515770  0.22690220  0.89370158  1  0  -0.07874  0  3.788905  0  0  -0.088046  0  4.033635  0  0  -0.09087  0  4.056174  0  0  -0.09883  -0.086238  0  4.018099  0
C  C67  1  0.27483934  0.77310554  0.10629702  1  0  -0.078587  0  3.788756  0  0  -0.087852  0  4.033481  0  0  -0.090673  0  4.056024  0  0  -0.098765  -0.086049  0  4.017949  0
C  C68  1  0.78206647  0.07388944  0.95174015  1  0  -0.076841  0  3.791007  0  0  -0.090951  0  4.036068  0  0  -0.093124  0  4.059184  0  0  -0.097093  -0.089465  0  4.020949  0
C  C69  1  0.21793663  0.92611706  0.04825841  1  0  -0.077062  0  3.790916  0  0  -0.091194  0  4.036004  0  0  -0.09337  0  4.059119  0  0  -0.097198  -0.0897  0  4.02088  0
C  C70  1  0.80557465  0.95333868  0.88950995  1  0  -0.083743  0  3.812538  0  0  -0.093479  0  4.055611  0  0  -0.096071  0  4.079124  0  0  -0.099408  -0.091668  0  4.039575  0
C  C71  1  0.19443166  0.04666546  0.11048966  1  0  -0.083844  0  3.812635  0  0  -0.093612  0  4.05573  0  0  -0.096207  0  4.079245  0  0  -0.099471  -0.0918  0  4.039692  0
C  C72  1  0.77447533  0.98465734  0.76942577  1  0  -0.110574  0  3.710322  0  0  -0.128823  0  3.951648  0  0  -0.131561  0  3.973169  0  0  -0.09041  -0.127195  0  3.937435  0
C  C73  1  0.22553421  0.01534445  0.23057405  1  0  -0.110463  0  3.710314  0  0  -0.128676  0  3.951635  0  0  -0.131413  0  3.973152  0  0  -0.090405  -0.12705  0  3.937427  0
C  C74  1  0.91989720  0.39716070  0.38060947  1  0  0.704741  0  3.855179  0  0  0.649246  0  4.147827  0  0  0.685845  0  4.137321  0  0  0.228421  0.625222  0  4.153735  0
C  C75  1  0.08010000  0.60283894  0.61939019  1  0  0.704817  0  3.855136  0  0  0.64926  0  4.147885  0  0  0.685855  0  4.137379  0  0  0.228452  0.625235  0  4.153792  0
C  C76  1  0.31725345  0.14455661  0.77212894  1  0  -0.137502  0  3.651883  0  0  -0.230901  0  3.897508  0  0  -0.227649  0  3.90857  0  0  -0.14883  -0.232095  0  3.888995  0
C  C77  1  0.68274385  0.85544535  0.22787213  1  0  -0.137432  0  3.65184  0  0  -0.230873  0  3.897439  0  0  -0.227631  0  3.908502  0  0  -0.148791  -0.232062  0  3.888927  0
C  C78  1  0.13740256  0.05224214  0.69067710  1  0  -0.14616  0  3.641213  0  0  -0.241773  0  3.894147  0  0  -0.239538  0  3.907003  0  0  -0.152561  -0.24333  0  3.88581  0
C  C79  1  0.86259513  0.94775635  0.30932357  1  0  -0.146136  0  3.641116  0  0  -0.241755  0  3.894065  0  0  -0.239524  0  3.906924  0  0  -0.152562  -0.243313  0  3.885729  0
N  N80  1  0.65620786  0.38951586  0.14195954  1  0  -0.40169  0  3.017072  0  0  -0.365798  0  3.280916  0  0  -0.380999  0  3.294686  0  0  -0.314293  -0.355425  0  3.270551  0
N  N81  1  0.34379022  0.61047915  0.85804071  1  0  -0.401563  0  3.017028  0  0  -0.365708  0  3.280761  0  0  -0.380894  0  3.294546  0  0  -0.31422  -0.355337  0  3.270392  0
N  N82  1  0.26503626  0.11029547  0.66531634  1  0  -0.369124  0  3.291727  0  0  -0.272677  0  3.556738  0  0  -0.293513  0  3.566022  0  0  -0.496869  -0.258478  0  3.549182  0
N  N83  1  0.73496253  0.88970300  0.33468515  1  0  -0.369171  0  3.291702  0  0  -0.272724  0  3.556729  0  0  -0.293565  0  3.566021  0  0  -0.496908  -0.258528  0  3.549176  0
O  O84  1  0.33087486  0.37260109  0.44527043  1  0  -0.644479  0  2.056805  0  0  -0.571927  0  2.329197  0  0  -0.602232  0  2.315667  0  0  -0.321007  -0.550849  0  2.338035  0
O  O85  1  0.66912695  0.62739039  0.55472844  1  0  -0.644419  0  2.056801  0  0  -0.571863  0  2.329154  0  0  -0.602184  0  2.315672  0  0  -0.320954  -0.550797  0  2.338014  0
O  O86  1  0.43825845  0.13487212  0.39193801  1  0  -0.604132  0  1.947495  0  0  -0.55358  0  2.173984  0  0  -0.577287  0  2.165743  0  0  -0.301058  -0.536676  0  2.178168  0
O  O87  1  0.56174445  0.86511938  0.60806599  1  0  -0.604095  0  1.947594  0  0  -0.553534  0  2.174053  0  0  -0.577265  0  2.165876  0  0  -0.301048  -0.53663  0  2.178234  0
O  O88  1  0.02144798  0.27589063  0.44407677  1  0  -0.615565  0  2.048013  0  0  -0.542277  0  2.318067  0  0  -0.569854  0  2.302298  0  0  -0.300149  -0.522618  0  2.327566  0
O  O89  1  0.97855207  0.72411013  0.55592093  1  0  -0.615536  0  2.047996  0  0  -0.542257  0  2.318127  0  0  -0.569811  0  2.302326  0  0  -0.300156  -0.522603  0  2.327631  0
O  O90  1  0.92545010  0.52908871  0.36633737  1  0  -0.658575  0  2.036512  0  0  -0.588583  0  2.306814  0  0  -0.61488  0  2.289092  0  0  -0.325146  -0.570416  0  2.318449  0
O  O91  1  0.07455094  0.47090971  0.63365974  1  0  -0.658663  0  2.036538  0  0  -0.588608  0  2.306849  0  0  -0.614895  0  2.289105  0  0  -0.325152  -0.570438  0  2.318481  0
