# generated using pymatgen
data_AgH2C3N5O6
_symmetry_space_group_name_H-M   'P 1'
_cell_length_a   5.35245605
_cell_length_b   10.53506901
_cell_length_c   15.12558265
_cell_angle_alpha   99.94238765
_cell_angle_beta   89.99984651
_cell_angle_gamma   89.99959537
_symmetry_Int_Tables_number   1
_chemical_formula_structural   AgH2C3N5O6
_chemical_formula_sum   'Ag4 H8 C12 N20 O24'
_cell_volume   840.09972374
_cell_formula_units_Z   4
loop_
 _symmetry_equiv_pos_site_id
 _symmetry_equiv_pos_as_xyz
  1  'x, y, z'
loop_
 _atom_site_type_symbol
 _atom_site_label
 _atom_site_symmetry_multiplicity
 _atom_site_fract_x
 _atom_site_fract_y
 _atom_site_fract_z
 _atom_site_occupancy
 _atom_site_hle17_bader_spin_density
 _atom_site_hle17_ddec_charge
 _atom_site_hle17_ddec_spin_density
 _atom_site_hle17_ddec_sum_bond_order
 _atom_site_hle17_magmom
 _atom_site_hse06_10hf_bader_spin_density
 _atom_site_hse06_10hf_ddec_charge
 _atom_site_hse06_10hf_ddec_spin_density
 _atom_site_hse06_10hf_ddec_sum_bond_order
 _atom_site_hse06_10hf_magmom
 _atom_site_hse06_bader_spin_density
 _atom_site_hse06_ddec_charge
 _atom_site_hse06_ddec_spin_density
 _atom_site_hse06_ddec_sum_bond_order
 _atom_site_hse06_magmom
 _atom_site_pbe_bader_spin_density
 _atom_site_pbe_cm5_charge
 _atom_site_pbe_ddec_charge
 _atom_site_pbe_ddec_spin_density
 _atom_site_pbe_ddec_sum_bond_order
 _atom_site_pbe_magmom
Ag  Ag0  1  0.34852307  0.83070548  0.23144996  1  0  0.655279  0  1.209807  0  0  0.52961  0  1.623808  0  0  0.556523  0  1.571639  0  0  0.463536  0.511099  0  1.660666  0
Ag  Ag1  1  0.84852228  0.16928708  0.26855120  1  0  0.655233  0  1.209927  0  0  0.52958  0  1.623932  0  0  0.556489  0  1.571765  0  0  0.4635  0.511065  0  1.660788  0
Ag  Ag2  1  0.65147439  0.16929094  0.76855105  1  0  0.655268  0  1.209873  0  0  0.529601  0  1.623886  0  0  0.55651  0  1.571722  0  0  0.463515  0.511091  0  1.660742  0
Ag  Ag3  1  0.15147518  0.83070745  0.73144693  1  0  0.655254  0  1.209869  0  0  0.529609  0  1.623865  0  0  0.556518  0  1.571703  0  0  0.463515  0.511095  0  1.660721  0
H  H4  1  0.67951647  0.95267518  0.12559376  1  0  0.4231  0  0.869564  0  0  0.390236  0  0.94285  0  0  0.400002  0  0.928436  0  0  0.294924  0.383361  0  0.952982  0
H  H5  1  0.17952518  0.04732672  0.37440874  1  0  0.423026  0  0.869612  0  0  0.390157  0  0.942965  0  0  0.399925  0  0.928548  0  0  0.294883  0.38328  0  0.9531  0
H  H6  1  0.32048286  0.04732510  0.87440774  1  0  0.42309  0  0.86955  0  0  0.390209  0  0.942894  0  0  0.399979  0  0.928476  0  0  0.294907  0.383333  0  0.95303  0
H  H7  1  0.82047602  0.95267358  0.62559078  1  0  0.422997  0  0.869661  0  0  0.390122  0  0.943018  0  0  0.399891  0  0.928602  0  0  0.294871  0.383245  0  0.953154  0
H  H8  1  0.45633536  0.04860312  0.15813640  1  0  0.407619  0  0.897996  0  0  0.373367  0  0.97205  0  0  0.384405  0  0.955952  0  0  0.286797  0.3656  0  0.983346  0
H  H9  1  0.95634745  0.95139380  0.34186720  1  0  0.407617  0  0.897999  0  0  0.373395  0  0.972003  0  0  0.384431  0  0.955907  0  0  0.286836  0.36563  0  0.983298  0
H  H10  1  0.54365837  0.95139715  0.84186510  1  0  0.407653  0  0.897968  0  0  0.373395  0  0.972018  0  0  0.384434  0  0.955919  0  0  0.286818  0.365629  0  0.983314  0
H  H11  1  0.04365749  0.04860551  0.65813418  1  0  0.407662  0  0.897906  0  0  0.373407  0  0.971983  0  0  0.384443  0  0.955888  0  0  0.286819  0.365641  0  0.983279  0
C  C12  1  0.35447127  0.53495916  0.40456933  1  0  0.210405  0  3.760935  0  0  0.186834  0  4.051302  0  0  0.188799  0  4.064946  0  0  0.222771  0.185499  0  4.04224  0
C  C13  1  0.85447704  0.46504206  0.09543227  1  0  0.210463  0  3.760966  0  0  0.187039  0  4.051171  0  0  0.189002  0  4.064818  0  0  0.222909  0.185705  0  4.042107  0
C  C14  1  0.64553180  0.46504208  0.59543164  1  0  0.210384  0  3.761067  0  0  0.187054  0  4.051131  0  0  0.189021  0  4.064776  0  0  0.222833  0.18572  0  4.042068  0
C  C15  1  0.14553724  0.53496111  0.90456960  1  0  0.210573  0  3.760946  0  0  0.186965  0  4.051344  0  0  0.18893  0  4.064989  0  0  0.222881  0.185631  0  4.04228  0
C  C16  1  0.38163174  0.66871790  0.39514331  1  0  0.115888  0  3.778716  0  0  0.095672  0  4.053351  0  0  0.10663  0  4.066918  0  0  0.134197  0.088311  0  4.044728  0
C  C17  1  0.88163182  0.33128036  0.10485524  1  0  0.11592  0  3.778635  0  0  0.095694  0  4.053211  0  0  0.106664  0  4.066758  0  0  0.1342  0.088331  0  4.044586  0
C  C18  1  0.61836199  0.33128432  0.60485712  1  0  0.115906  0  3.778658  0  0  0.095618  0  4.053219  0  0  0.106579  0  4.066774  0  0  0.134198  0.088259  0  4.044594  0
C  C19  1  0.11837872  0.66872089  0.89514573  1  0  0.115845  0  3.778709  0  0  0.095673  0  4.053265  0  0  0.106637  0  4.066824  0  0  0.134147  0.088312  0  4.044642  0
C  C20  1  0.48086558  0.77387454  0.46019273  1  0  -0.024704  0  3.563223  0  0  -0.078894  0  3.856387  0  0  -0.090002  0  3.870784  0  0  0.165151  -0.072393  0  3.847908  0
C  C21  1  0.98086014  0.22612529  0.03980394  1  0  -0.024596  0  3.562988  0  0  -0.078746  0  3.856221  0  0  -0.089861  0  3.87062  0  0  0.165171  -0.072243  0  3.847743  0
C  C22  1  0.51912815  0.22612575  0.53980745  1  0  -0.024728  0  3.563052  0  0  -0.078821  0  3.85624  0  0  -0.089929  0  3.870634  0  0  0.165144  -0.072323  0  3.847763  0
C  C23  1  0.01913546  0.77387503  0.96019426  1  0  -0.024721  0  3.56312  0  0  -0.078808  0  3.856263  0  0  -0.089924  0  3.87067  0  0  0.165154  -0.072308  0  3.847786  0
N  N24  1  0.29650469  0.67992486  0.31508597  1  0  -0.151894  0  2.958342  0  0  -0.129794  0  3.287963  0  0  -0.131361  0  3.28553  0  0  -0.21412  -0.129169  0  3.290321  0
N  N25  1  0.79650805  0.32007178  0.18491443  1  0  -0.151939  0  2.958344  0  0  -0.129842  0  3.287969  0  0  -0.131414  0  3.285529  0  0  -0.214102  -0.12921  0  3.290323  0
N  N26  1  0.70349277  0.32007252  0.68491516  1  0  -0.15195  0  2.958274  0  0  -0.12982  0  3.287935  0  0  -0.131394  0  3.285497  0  0  -0.214094  -0.129181  0  3.290294  0
N  N27  1  0.20349689  0.67992852  0.81508509  1  0  -0.151848  0  2.958248  0  0  -0.129761  0  3.28788  0  0  -0.131328  0  3.285443  0  0  -0.214025  -0.129126  0  3.290236  0
N  N28  1  0.24536507  0.47041666  0.33205379  1  0  -0.103116  0  2.684824  0  0  -0.118522  0  2.974544  0  0  -0.112529  0  2.978387  0  0  -0.154184  -0.122717  0  2.97277  0
N  N29  1  0.74535631  0.52958016  0.16794800  1  0  -0.103123  0  2.684664  0  0  -0.118605  0  2.974372  0  0  -0.112616  0  2.978217  0  0  -0.15423  -0.122795  0  2.972601  0
N  N30  1  0.75464547  0.52958072  0.66794734  1  0  -0.103165  0  2.6847  0  0  -0.118619  0  2.974374  0  0  -0.112633  0  2.978215  0  0  -0.154229  -0.122799  0  2.972605  0
N  N31  1  0.25465049  0.47042109  0.83205296  1  0  -0.103242  0  2.684671  0  0  -0.118605  0  2.974407  0  0  -0.112611  0  2.978252  0  0  -0.154224  -0.122791  0  2.972635  0
N  N32  1  0.43934469  0.46563622  0.46838255  1  0  -0.09492  0  2.95113  0  0  -0.080527  0  3.235499  0  0  -0.076781  0  3.23918  0  0  -0.120625  -0.083054  0  3.233359  0
N  N33  1  0.93932943  0.53436374  0.03161616  1  0  -0.094996  0  2.951151  0  0  -0.080641  0  3.23549  0  0  -0.076894  0  3.23917  0  0  -0.120719  -0.083168  0  3.233351  0
N  N34  1  0.56066959  0.53436600  0.53161788  1  0  -0.094967  0  2.951152  0  0  -0.0806  0  3.235445  0  0  -0.076853  0  3.239126  0  0  -0.120705  -0.083128  0  3.233306  0
N  N35  1  0.06066803  0.46563755  0.96838216  1  0  -0.094952  0  2.95108  0  0  -0.080516  0  3.235455  0  0  -0.076769  0  3.239136  0  0  -0.120673  -0.083044  0  3.233317  0
N  N36  1  0.67107873  0.85216651  0.43780138  1  0  0.493707  0  3.960737  0  0  0.518097  0  4.265861  0  0  0.540863  0  4.277392  0  0  0.024059  0.502728  0  4.258081  0
N  N37  1  0.17106974  0.14783068  0.06219524  1  0  0.493734  0  3.960846  0  0  0.518136  0  4.265952  0  0  0.540906  0  4.277484  0  0  0.02398  0.502765  0  4.258172  0
N  N38  1  0.32891873  0.14783566  0.56220168  1  0  0.493731  0  3.960843  0  0  0.518133  0  4.265957  0  0  0.540902  0  4.277488  0  0  0.024033  0.502765  0  4.258176  0
N  N39  1  0.82892586  0.85217061  0.93780309  1  0  0.493687  0  3.960797  0  0  0.518064  0  4.265941  0  0  0.540831  0  4.277475  0  0  0.024002  0.502697  0  4.258159  0
N  N40  1  0.37788624  0.79126094  0.54586827  1  0  0.459416  0  4.03307  0  0  0.502493  0  4.309094  0  0  0.525685  0  4.321033  0  0  0.018147  0.486974  0  4.301058  0
N  N41  1  0.87788910  0.20873854  0.95412567  1  0  0.459275  0  4.033303  0  0  0.50211  0  4.309627  0  0  0.525303  0  4.32157  0  0  0.017988  0.486586  0  4.301594  0
N  N42  1  0.62211309  0.20873648  0.45413022  1  0  0.459436  0  4.032981  0  0  0.502253  0  4.309278  0  0  0.525443  0  4.32122  0  0  0.017987  0.486732  0  4.301243  0
N  N43  1  0.12211024  0.79125986  0.04587162  1  0  0.459235  0  4.033187  0  0  0.502051  0  4.309491  0  0  0.525244  0  4.321438  0  0  0.017938  0.486531  0  4.301454  0
O  O44  1  0.58140778  0.99016430  0.17884815  1  0  -0.808024  0  1.993945  0  0  -0.72709  0  2.220227  0  0  -0.752654  0  2.18368  0  0  -0.578722  -0.708406  0  2.245398  0
O  O45  1  0.08141367  0.00983607  0.32115358  1  0  -0.807988  0  1.994016  0  0  -0.727092  0  2.220314  0  0  -0.752655  0  2.183769  0  0  -0.578722  -0.708408  0  2.245485  0
O  O46  1  0.41859156  0.00983889  0.82115239  1  0  -0.808046  0  1.993868  0  0  -0.727121  0  2.220181  0  0  -0.752686  0  2.18363  0  0  -0.578727  -0.708436  0  2.245353  0
O  O47  1  0.91858379  0.99016423  0.67884594  1  0  -0.807986  0  1.993904  0  0  -0.727047  0  2.220232  0  0  -0.752612  0  2.183692  0  0  -0.578695  -0.708362  0  2.2454  0
O  O48  1  0.20979036  0.55665641  0.27638495  1  0  0.017829  0  2.299209  0  0  0.073728  0  2.556287  0  0  0.058983  0  2.563629  0  0  0.081593  0.083263  0  2.551383  0
O  O49  1  0.70978985  0.44333863  0.22361665  1  0  0.017827  0  2.299041  0  0  0.073745  0  2.556115  0  0  0.059005  0  2.563453  0  0  0.081608  0.083269  0  2.551214  0
O  O50  1  0.79021644  0.44333906  0.72361528  1  0  0.017929  0  2.29888  0  0  0.073799  0  2.556016  0  0  0.059069  0  2.563348  0  0  0.081662  0.083304  0  2.551127  0
O  O51  1  0.29021135  0.55666070  0.77638341  1  0  0.017839  0  2.299039  0  0  0.073742  0  2.556135  0  0  0.058994  0  2.56348  0  0  0.081601  0.08326  0  2.551237  0
O  O52  1  0.74658473  0.82813667  0.35643808  1  0  -0.440503  0  1.799255  0  0  -0.417643  0  2.037396  0  0  -0.435007  0  2.029912  0  0  -0.169179  -0.405674  0  2.04268  0
O  O53  1  0.24656731  0.17185537  0.14356046  1  0  -0.440533  0  1.799402  0  0  -0.417702  0  2.037576  0  0  -0.435066  0  2.030092  0  0  -0.169169  -0.405732  0  2.042863  0
O  O54  1  0.25341273  0.17186070  0.64356371  1  0  -0.440589  0  1.799333  0  0  -0.417665  0  2.037489  0  0  -0.435026  0  2.030003  0  0  -0.169175  -0.405697  0  2.04278  0
O  O55  1  0.75343389  0.82814589  0.85643985  1  0  -0.440525  0  1.799368  0  0  -0.417623  0  2.037546  0  0  -0.434985  0  2.030062  0  0  -0.169132  -0.405654  0  2.042832  0
O  O56  1  0.76293667  0.94187285  0.49279032  1  0  -0.375182  0  1.85043  0  0  -0.361779  0  2.084062  0  0  -0.374752  0  2.0812  0  0  -0.144418  -0.352906  0  2.086141  0
O  O57  1  0.26293867  0.05812591  0.00720642  1  0  -0.375218  0  1.850323  0  0  -0.361817  0  2.083978  0  0  -0.374798  0  2.081121  0  0  -0.144388  -0.352945  0  2.086066  0
O  O58  1  0.23705519  0.05813035  0.50720957  1  0  -0.375183  0  1.850337  0  0  -0.361858  0  2.084031  0  0  -0.374844  0  2.08118  0  0  -0.144422  -0.352983  0  2.086113  0
O  O59  1  0.73705132  0.94187536  0.99279256  1  0  -0.375175  0  1.850277  0  0  -0.361803  0  2.083933  0  0  -0.374778  0  2.081072  0  0  -0.144405  -0.35293  0  2.086016  0
O  O60  1  0.47528751  0.86259243  0.61204780  1  0  -0.383471  0  1.873177  0  0  -0.35961  0  2.106575  0  0  -0.375027  0  2.098507  0  0  -0.144844  -0.34887  0  2.112429  0
O  O61  1  0.97528625  0.13740570  0.88794654  1  0  -0.383495  0  1.873616  0  0  -0.359508  0  2.107036  0  0  -0.37493  0  2.098974  0  0  -0.144711  -0.348763  0  2.112887  0
O  O62  1  0.52471556  0.13740504  0.38794805  1  0  -0.3834  0  1.873466  0  0  -0.35947  0  2.10691  0  0  -0.37489  0  2.098847  0  0  -0.144675  -0.348726  0  2.11276  0
O  O63  1  0.02470187  0.86259559  0.11205113  1  0  -0.383363  0  1.873474  0  0  -0.359418  0  2.106876  0  0  -0.37484  0  2.098815  0  0  -0.144675  -0.348674  0  2.112726  0
O  O64  1  0.17978880  0.72875558  0.55437911  1  0  -0.401392  0  1.77038  0  0  -0.396177  0  1.999602  0  0  -0.413772  0  1.994239  0  0  -0.165101  -0.383647  0  2.003098  0
O  O65  1  0.67979646  0.27124756  0.94561680  1  0  -0.401278  0  1.770428  0  0  -0.395991  0  1.999745  0  0  -0.413585  0  1.994385  0  0  -0.165065  -0.383461  0  2.003242  0
O  O66  1  0.82020680  0.27124378  0.44561897  1  0  -0.401352  0  1.770257  0  0  -0.39607  0  1.99957  0  0  -0.413662  0  1.994209  0  0  -0.165066  -0.38354  0  2.003066  0
O  O67  1  0.32020288  0.72875176  0.05438391  1  0  -0.401261  0  1.770331  0  0  -0.39598  0  1.999642  0  0  -0.413573  0  1.994282  0  0  -0.165055  -0.383448  0  2.003139  0
