# generated using pymatgen
data_ZnH28C32(NO2)4
_symmetry_space_group_name_H-M   'P 1'
_cell_length_a   6.42675105
_cell_length_b   8.39460825
_cell_length_c   13.30650634
_cell_angle_alpha   83.95507582
_cell_angle_beta   87.81600786
_cell_angle_gamma   84.19398021
_symmetry_Int_Tables_number   1
_chemical_formula_structural   ZnH28C32(NO2)4
_chemical_formula_sum   'Zn1 H28 C32 N4 O8'
_cell_volume   709.95930246
_cell_formula_units_Z   1
loop_
 _symmetry_equiv_pos_site_id
 _symmetry_equiv_pos_as_xyz
  1  'x, y, z'
loop_
 _atom_site_type_symbol
 _atom_site_label
 _atom_site_symmetry_multiplicity
 _atom_site_fract_x
 _atom_site_fract_y
 _atom_site_fract_z
 _atom_site_occupancy
 _atom_site_hle17_bader_spin_density
 _atom_site_hle17_ddec_charge
 _atom_site_hle17_ddec_spin_density
 _atom_site_hle17_ddec_sum_bond_order
 _atom_site_hle17_magmom
 _atom_site_hse06_10hf_bader_spin_density
 _atom_site_hse06_10hf_ddec_charge
 _atom_site_hse06_10hf_ddec_spin_density
 _atom_site_hse06_10hf_ddec_sum_bond_order
 _atom_site_hse06_10hf_magmom
 _atom_site_hse06_bader_spin_density
 _atom_site_hse06_ddec_charge
 _atom_site_hse06_ddec_spin_density
 _atom_site_hse06_ddec_sum_bond_order
 _atom_site_hse06_magmom
 _atom_site_pbe_bader_spin_density
 _atom_site_pbe_cm5_charge
 _atom_site_pbe_ddec_charge
 _atom_site_pbe_ddec_spin_density
 _atom_site_pbe_ddec_sum_bond_order
 _atom_site_pbe_magmom
Zn  Zn0  1  0.99999973  0.50000216  0.50000043  1  0  0.961544  0  1.908554  0  0  0.769119  0  2.36459  0  0  0.812937  0  2.318385  0  0  0.714154  0.738831  0  2.396067  0
H  H1  1  0.45166065  0.80703474  0.23881561  1  0  0.11935  0  0.973355  0  0  0.126329  0  1.037014  0  0  0.130249  0  1.034586  0  0  0.105938  0.123538  0  1.038761  0
H  H2  1  0.54834429  0.19296892  0.76118377  1  0  0.119353  0  0.973429  0  0  0.126329  0  1.03709  0  0  0.130251  0  1.034661  0  0  0.105951  0.123539  0  1.038838  0
H  H3  1  0.77603365  0.70023789  0.12428643  1  0  0.116892  0  0.96837  0  0  0.125652  0  1.029591  0  0  0.129759  0  1.026521  0  0  0.105904  0.12275  0  1.031758  0
H  H4  1  0.22397176  0.29977420  0.87571388  1  0  0.11689  0  0.968343  0  0  0.125673  0  1.02955  0  0  0.129784  0  1.026475  0  0  0.105897  0.122772  0  1.031718  0
H  H5  1  0.51055073  0.35744280  0.19431544  1  0  0.111034  0  0.97943  0  0  0.122729  0  1.037954  0  0  0.125552  0  1.037194  0  0  0.104942  0.120703  0  1.038566  0
H  H6  1  0.48944954  0.64256084  0.80568405  1  0  0.11102  0  0.979449  0  0  0.122722  0  1.037966  0  0  0.125539  0  1.037214  0  0  0.104942  0.120696  0  1.038578  0
H  H7  1  0.71633036  0.22619863  0.35935692  1  0  0.117273  0  0.974024  0  0  0.129048  0  1.03155  0  0  0.132093  0  1.030019  0  0  0.107988  0.126948  0  1.0326  0
H  H8  1  0.28366588  0.77380019  0.64064373  1  0  0.11728  0  0.973994  0  0  0.129043  0  1.031538  0  0  0.132088  0  1.030008  0  0  0.107963  0.126943  0  1.032588  0
H  H9  1  0.02007480  0.04255815  0.61682373  1  0  0.068161  0  0.933195  0  0  0.081258  0  0.992929  0  0  0.08239  0  0.991888  0  0  0.105994  0.080314  0  0.993873  0
H  H10  1  0.97992243  0.95744550  0.38318258  1  0  0.068124  0  0.933254  0  0  0.081195  0  0.993008  0  0  0.082326  0  0.991971  0  0  0.105952  0.080251  0  0.993952  0
H  H11  1  0.90270621  0.85898188  0.61569502  1  0  0.069773  0  0.94608  0  0  0.081932  0  1.011237  0  0  0.08188  0  1.011622  0  0  0.104028  0.081825  0  1.011156  0
H  H12  1  0.09729383  0.14102297  0.38429913  1  0  0.069774  0  0.946054  0  0  0.08187  0  1.011284  0  0  0.08183  0  1.011655  0  0  0.104008  0.081763  0  1.011203  0
H  H13  1  0.05731527  0.86836703  0.78325148  1  0  0.10422  0  0.953533  0  0  0.129671  0  1.01015  0  0  0.129665  0  1.012027  0  0  0.093537  0.129594  0  1.008885  0
H  H14  1  0.94266275  0.13160405  0.21674691  1  0  0.104185  0  0.953578  0  0  0.129619  0  1.010207  0  0  0.129613  0  1.012086  0  0  0.093514  0.129542  0  1.008941  0
H  H15  1  0.78201173  0.87638687  0.79847956  1  0  0.108879  0  0.967602  0  0  0.12601  0  1.036052  0  0  0.127505  0  1.036142  0  0  0.087653  0.124844  0  1.036084  0
H  H16  1  0.21796355  0.12360466  0.20151300  1  0  0.108888  0  0.96739  0  0  0.125962  0  1.035904  0  0  0.127457  0  1.035991  0  0  0.087645  0.124797  0  1.035933  0
H  H17  1  0.91179944  0.05610847  0.79908395  1  0  0.106961  0  0.965782  0  0  0.122729  0  1.034687  0  0  0.124454  0  1.034575  0  0  0.085791  0.121425  0  1.034819  0
H  H18  1  0.08819472  0.94387109  0.20092330  1  0  0.106928  0  0.965779  0  0  0.122675  0  1.034701  0  0  0.1244  0  1.034594  0  0  0.085785  0.121371  0  1.03483  0
H  H19  1  0.23349722  0.61323973  0.95303282  1  0  0.05826  0  0.943756  0  0  0.06909  0  1.01108  0  0  0.070235  0  1.009522  0  0  0.102498  0.068126  0  1.012328  0
H  H20  1  0.76650601  0.38676514  0.04696727  1  0  0.058217  0  0.943759  0  0  0.069032  0  1.011086  0  0  0.070177  0  1.009527  0  0  0.10251  0.068068  0  1.012334  0
H  H21  1  0.05403464  0.78881839  0.95717819  1  0  0.060778  0  0.925584  0  0  0.078679  0  0.982765  0  0  0.078403  0  0.982695  0  0  0.106071  0.078774  0  0.98296  0
H  H22  1  0.94596686  0.21118767  0.04282036  1  0  0.060752  0  0.925602  0  0  0.078647  0  0.982768  0  0  0.078371  0  0.982696  0  0  0.10607  0.078741  0  0.982963  0
H  H23  1  0.39456848  0.87838768  0.89127939  1  0  0.108789  0  0.948074  0  0  0.131479  0  1.007988  0  0  0.132061  0  1.009093  0  0  0.094822  0.131032  0  1.007223  0
H  H24  1  0.60543472  0.12161718  0.10871845  1  0  0.108827  0  0.948101  0  0  0.13154  0  1.007992  0  0  0.132124  0  1.009095  0  0  0.094847  0.131092  0  1.007225  0
H  H25  1  0.52879208  0.76357202  0.99287762  1  0  0.116566  0  0.96105  0  0  0.135958  0  1.023652  0  0  0.13766  0  1.023019  0  0  0.091186  0.134656  0  1.024225  0
H  H26  1  0.47121081  0.23643524  0.00712007  1  0  0.116586  0  0.960999  0  0  0.135961  0  1.023631  0  0  0.137662  0  1.022999  0  0  0.091172  0.134659  0  1.024205  0
H  H27  1  0.35135960  0.93539862  0.01570265  1  0  0.107165  0  0.955047  0  0  0.130867  0  1.012017  0  0  0.131888  0  1.012746  0  0  0.092559  0.130094  0  1.011535  0
H  H28  1  0.64864035  0.06460743  0.98429668  1  0  0.107179  0  0.955071  0  0  0.13088  0  1.012034  0  0  0.131901  0  1.012763  0  0  0.092586  0.130107  0  1.011553  0
C  C29  1  0.64909311  0.69093231  0.36915510  1  0  0.246024  0  3.767275  0  0  0.227393  0  4.024759  0  0  0.236541  0  4.04608  0  0  0.101093  0.221343  0  4.01032  0
C  C30  1  0.35090716  0.30907134  0.63084514  1  0  0.245997  0  3.767413  0  0  0.22734  0  4.024938  0  0  0.236489  0  4.04626  0  0  0.101064  0.221288  0  4.010501  0
C  C31  1  0.59586025  0.73998063  0.26455223  1  0  -0.155761  0  3.712521  0  0  -0.17792  0  3.97197  0  0  -0.179711  0  3.98906  0  0  -0.102183  -0.176517  0  3.960291  0
C  C32  1  0.40414453  0.26002423  0.73544707  1  0  -0.155783  0  3.712668  0  0  -0.177928  0  3.972109  0  0  -0.179723  0  3.989206  0  0  -0.102216  -0.176523  0  3.960431  0
C  C33  1  0.76140156  0.68551814  0.20611940  1  0  -0.172239  0  3.729529  0  0  -0.193091  0  3.988342  0  0  -0.195862  0  4.005463  0  0  -0.105397  -0.191196  0  3.976606  0
C  C34  1  0.23860448  0.31448914  0.79388122  1  0  -0.17231  0  3.729465  0  0  -0.193172  0  3.98828  0  0  -0.195944  0  4.005402  0  0  -0.105433  -0.191276  0  3.976544  0
C  C35  1  0.91605387  0.60121447  0.27432814  1  0  0.238936  0  3.801156  0  0  0.220534  0  4.056926  0  0  0.229243  0  4.079548  0  0  0.096447  0.214805  0  4.041493  0
C  C36  1  0.08395075  0.39879160  0.72567109  1  0  0.239049  0  3.801077  0  0  0.220588  0  4.056894  0  0  0.229298  0  4.079515  0  0  0.09647  0.214859  0  4.041462  0
C  C37  1  0.10920895  0.52304223  0.24436152  1  0  -0.200433  0  3.688733  0  0  -0.184221  0  3.933631  0  0  -0.194797  0  3.954507  0  0  -0.00452  -0.177426  0  3.919716  0
C  C38  1  0.89079569  0.47696383  0.75563846  1  0  -0.200387  0  3.68869  0  0  -0.184171  0  3.93357  0  0  -0.194752  0  3.954444  0  0  -0.00449  -0.177371  0  3.919662  0
C  C39  1  0.25966000  0.43394387  0.30727080  1  0  0.234642  0  3.805845  0  0  0.218367  0  4.059133  0  0  0.226657  0  4.082443  0  0  0.097497  0.212916  0  4.043342  0
C  C40  1  0.74034042  0.56605857  0.69272876  1  0  0.234516  0  3.805957  0  0  0.218259  0  4.05925  0  0  0.226549  0  4.082559  0  0  0.09745  0.212809  0  4.043457  0
C  C41  1  0.45826341  0.35830374  0.27257322  1  0  -0.163588  0  3.731528  0  0  -0.183629  0  3.986136  0  0  -0.186734  0  4.004796  0  0  -0.101892  -0.181504  0  3.973646  0
C  C42  1  0.54173561  0.64169749  0.72742646  1  0  -0.163554  0  3.731601  0  0  -0.1836  0  3.986203  0  0  -0.186699  0  4.004867  0  0  -0.101921  -0.181476  0  3.973714  0
C  C43  1  0.56231452  0.29140140  0.35632028  1  0  -0.141916  0  3.697614  0  0  -0.166607  0  3.95608  0  0  -0.16709  0  3.971685  0  0  -0.097698  -0.166334  0  3.945484  0
C  C44  1  0.43768450  0.70859983  0.64367939  1  0  -0.141942  0  3.697626  0  0  -0.166625  0  3.956099  0  0  -0.167109  0  3.971703  0  0  -0.097671  -0.166351  0  3.945503  0
C  C45  1  0.42887848  0.32664527  0.44331583  1  0  0.246391  0  3.766455  0  0  0.227358  0  4.025796  0  0  0.236522  0  4.046975  0  0  0.102362  0.221363  0  4.011371  0
C  C46  1  0.57112054  0.67335596  0.55668384  1  0  0.246498  0  3.766504  0  0  0.227467  0  4.025843  0  0  0.236631  0  4.047023  0  0  0.10244  0.221472  0  4.011417  0
C  C47  1  0.47870726  0.27831550  0.54504966  1  0  -0.192798  0  3.664078  0  0  -0.179019  0  3.913441  0  0  -0.189391  0  3.933035  0  0  -0.002208  -0.172571  0  3.90064  0
C  C48  1  0.52129161  0.72168694  0.45494994  1  0  -0.192821  0  3.664121  0  0  -0.178993  0  3.913389  0  0  -0.189366  0  3.932985  0  0  -0.002201  -0.172548  0  3.900591  0
C  C49  1  0.69260378  0.19299418  0.56072854  1  0  0.615514  0  3.768498  0  0  0.559523  0  4.06614  0  0  0.593905  0  4.057542  0  0  0.243825  0.536202  0  4.071537  0
C  C50  1  0.30739541  0.80700585  0.43927121  1  0  0.615576  0  3.768422  0  0  0.559579  0  4.066071  0  0  0.593953  0  4.057469  0  0  0.243847  0.536259  0  4.071466  0
C  C51  1  0.89682053  0.97151223  0.65113408  1  0  0.143934  0  3.554651  0  0  0.087156  0  3.826873  0  0  0.096723  0  3.830885  0  0  -0.071629  0.080658  0  3.824215  0
C  C52  1  0.10317555  0.02848780  0.34886649  1  0  0.143962  0  3.554616  0  0  0.087255  0  3.826795  0  0  0.096808  0  3.830802  0  0  -0.071604  0.080763  0  3.824131  0
C  C53  1  0.91038063  0.94275074  0.76490042  1  0  -0.329545  0  3.711462  0  0  -0.408318  0  3.959652  0  0  -0.41175  0  3.969231  0  0  -0.251276  -0.40566  0  3.953098  0
C  C54  1  0.08960626  0.05723602  0.23509898  1  0  -0.329434  0  3.711236  0  0  -0.408123  0  3.95941  0  0  -0.411559  0  3.968995  0  0  -0.251228  -0.405467  0  3.952851  0
C  C55  1  0.16332781  0.53581275  0.13333990  1  0  0.610883  0  3.799506  0  0  0.558214  0  4.099951  0  0  0.591453  0  4.09241  0  0  0.241816  0.535616  0  4.104646  0
C  C56  1  0.83667683  0.46419332  0.86666083  1  0  0.610728  0  3.799596  0  0  0.558105  0  4.099978  0  0  0.591361  0  4.092424  0  0  0.24182  0.535488  0  4.104696  0
C  C57  1  0.20128098  0.72725836  0.98665419  1  0  0.150282  0  3.588695  0  0  0.090567  0  3.865194  0  0  0.100455  0  3.869252  0  0  -0.069069  0.083924  0  3.862359  0
C  C58  1  0.79872226  0.27274650  0.01334590  1  0  0.150341  0  3.588621  0  0  0.090675  0  3.865064  0  0  0.100568  0  3.869119  0  0  -0.069069  0.084033  0  3.862226  0
C  C59  1  0.37989269  0.83204900  0.97136087  1  0  -0.334794  0  3.715832  0  0  -0.413612  0  3.962549  0  0  -0.416891  0  3.971818  0  0  -0.250093  -0.411083  0  3.956104  0
C  C60  1  0.62010881  0.16795706  0.02863768  1  0  -0.334839  0  3.715784  0  0  -0.413674  0  3.962497  0  0  -0.416954  0  3.971766  0  0  -0.250111  -0.411147  0  3.956059  0
N  N61  1  0.84252300  0.60466435  0.37229319  1  0  -0.456189  0  3.143666  0  0  -0.380249  0  3.421401  0  0  -0.401783  0  3.435204  0  0  -0.355431  -0.365512  0  3.411734  0
N  N62  1  0.15748023  0.39534051  0.62770690  1  0  -0.45615  0  3.143713  0  0  -0.380155  0  3.421456  0  0  -0.401684  0  3.435251  0  0  -0.35537  -0.365418  0  3.411789  0
N  N63  1  0.24534644  0.41155475  0.41099546  1  0  -0.465572  0  3.15026  0  0  -0.390077  0  3.431772  0  0  -0.411691  0  3.445044  0  0  -0.359378  -0.375108  0  3.422408  0
N  N64  1  0.75465399  0.58844769  0.58900410  1  0  -0.465556  0  3.150356  0  0  -0.390124  0  3.431938  0  0  -0.411736  0  3.445207  0  0  -0.35943  -0.375157  0  3.422575  0
O  O65  1  0.85209266  0.23939436  0.51759231  1  0  -0.545627  0  2.062236  0  0  -0.497462  0  2.313513  0  0  -0.518781  0  2.304639  0  0  -0.264364  -0.482858  0  2.319387  0
O  O66  1  0.14790499  0.76060567  0.48240973  1  0  -0.5457  0  2.062188  0  0  -0.497512  0  2.313433  0  0  -0.518831  0  2.304558  0  0  -0.264393  -0.482907  0  2.319307  0
O  O67  1  0.69349441  0.05877354  0.62538753  1  0  -0.318762  0  2.263475  0  0  -0.24231  0  2.497133  0  0  -0.265364  0  2.497142  0  0  -0.158522  -0.226466  0  2.496682  0
O  O68  1  0.30650166  0.94122648  0.37461229  1  0  -0.318762  0  2.263463  0  0  -0.242333  0  2.497113  0  0  -0.265362  0  2.497108  0  0  -0.158505  -0.226491  0  2.496661  0
O  O69  1  0.20547997  0.42080563  0.08402746  1  0  -0.532041  0  1.95801  0  0  -0.493642  0  2.179094  0  0  -0.51412  0  2.172784  0  0  -0.272676  -0.479386  0  2.182986  0
O  O70  1  0.79452314  0.57920044  0.91597555  1  0  -0.531957  0  1.957896  0  0  -0.493594  0  2.178975  0  0  -0.514066  0  2.172638  0  0  -0.272686  -0.47933  0  2.182876  0
O  O71  1  0.16240221  0.69156934  0.09515187  1  0  -0.332249  0  2.270406  0  0  -0.254971  0  2.506586  0  0  -0.277837  0  2.506046  0  0  -0.162683  -0.239271  0  2.506562  0
O  O72  1  0.83760226  0.30843793  0.90484804  1  0  -0.332212  0  2.270472  0  0  -0.254942  0  2.5066  0  0  -0.277825  0  2.506063  0  0  -0.162696  -0.239235  0  2.506583  0
