# generated using pymatgen
data_ZnH6C25(N2O5)2
_symmetry_space_group_name_H-M   'P 1'
_cell_length_a   13.20478487
_cell_length_b   14.43634676
_cell_length_c   28.06669169
_cell_angle_alpha   89.99996249
_cell_angle_beta   90.00009076
_cell_angle_gamma   89.97601552
_symmetry_Int_Tables_number   1
_chemical_formula_structural   ZnH6C25(N2O5)2
_chemical_formula_sum   'Zn2 H12 C50 N8 O20'
_cell_volume   5350.32078278
_cell_formula_units_Z   2
loop_
 _symmetry_equiv_pos_site_id
 _symmetry_equiv_pos_as_xyz
  1  'x, y, z'
loop_
 _atom_site_type_symbol
 _atom_site_label
 _atom_site_symmetry_multiplicity
 _atom_site_fract_x
 _atom_site_fract_y
 _atom_site_fract_z
 _atom_site_occupancy
 _atom_site_pbe_bader_charge
 _atom_site_pbe_bader_spin_density
 _atom_site_pbe_cm5_charge
 _atom_site_pbe_ddec_charge
 _atom_site_pbe_ddec_spin_density
 _atom_site_pbe_ddec_sum_bond_order
 _atom_site_pbe_magmom
Zn  Zn0  1  0.39443661  0.50001510  0.49999979  1  1.334806  0  0.688742  0.881947  0  2.417937  0
Zn  Zn1  1  0.60556312  0.49998463  0.50000015  1  1.315993  0  0.688724  0.881925  0  2.417992  0
H  H2  1  0.33783699  0.51533388  0.65271141  1  0.176344  0  0.125711  0.141341  0  0.981358  0
H  H3  1  0.33792982  0.48399185  0.34729173  1  0.179581  0  0.125756  0.141211  0  0.982195  0
H  H4  1  0.66216225  0.48466615  0.65271284  1  0.1765  0  0.125689  0.14125  0  0.981287  0
H  H5  1  0.66207115  0.51600896  0.34729173  1  0.179556  0  0.125749  0.141188  0  0.982214  0
H  H6  1  0.47677908  0.73203318  0.87783592  1  0.134468  0  0.11965  0.125001  0  0.971984  0
H  H7  1  0.47810370  0.26788828  0.12216759  1  0.116258  0  0.119733  0.125081  0  0.972798  0
H  H8  1  0.52321486  0.26796421  0.87783663  1  0.13439  0  0.11962  0.124944  0  0.972002  0
H  H9  1  0.52189197  0.73210964  0.12216794  1  0.116336  0  0.119731  0.125135  0  0.972823  0
H  H10  1  0.51755724  0.73463325  0.03403002  1  0.063453  0  0.109406  0.107745  0  1.003452  0
H  H11  1  0.51908296  0.26544199  0.96598204  1  0.063932  0  0.10945  0.107942  0  1.003006  0
H  H12  1  0.48243557  0.26536490  0.03402966  1  0.063442  0  0.109451  0.107825  0  1.003412  0
H  H13  1  0.48091309  0.73455725  0.96598097  1  0.063982  0  0.109425  0.107933  0  1.003062  0
C  C14  1  0.49997819  0.67974688  0.49999694  1  1.618674  0  0.222934  0.657585  0  4.250992  0
C  C15  1  0.50002003  0.32025285  0.49999587  1  1.618682  0  0.222986  0.657724  0  4.250838  0
C  C16  1  0.49999942  0.50000044  0.59303997  1  1.572171  0  0.224427  0.603395  0  4.159422  0
C  C17  1  0.49999955  0.50000068  0.40696211  1  1.572421  0  0.224456  0.603182  0  4.159066  0
C  C18  1  0.49021856  0.58674648  0.82068454  1  1.293156  0  0.242307  0.452123  0  4.104496  0
C  C19  1  0.49067901  0.41322000  0.17932609  1  1.299681  0  0.242987  0.454414  0  4.10268  0
C  C20  1  0.50977727  0.41324897  0.82068490  1  1.298471  0  0.242146  0.452035  0  4.104526  0
C  C21  1  0.50932234  0.58677639  0.17932609  1  1.299539  0  0.242938  0.454185  0  4.103003  0
C  C22  1  0.59012041  0.49295625  0.72122287  1  0.179345  0  0.09456  0.022851  0  3.864803  0
C  C23  1  0.59007668  0.50747988  0.27878348  1  0.177295  0  0.09502  0.023247  0  3.864075  0
C  C24  1  0.40987627  0.50703876  0.72122180  1  0.179311  0  0.094507  0.022756  0  3.864782  0
C  C25  1  0.40992535  0.49251557  0.27878312  1  0.17709  0  0.095108  0.023318  0  3.864054  0
C  C26  1  0.59079404  0.49174894  0.67169798  1  0.06118  0  -0.050579  -0.095367  0  3.889743  0
C  C27  1  0.59074350  0.50864493  0.32830766  1  0.059481  0  -0.051265  -0.097001  0  3.891687  0
C  C28  1  0.40920382  0.50824896  0.67169726  1  0.061284  0  -0.050596  -0.095476  0  3.889804  0
C  C29  1  0.40925811  0.49135385  0.32830766  1  0.059461  0  -0.051236  -0.096986  0  3.891592  0
C  C30  1  0.49999767  0.49999747  0.74744292  1  0.400572  0  0.129272  0.145069  0  3.966652  0
C  C31  1  0.50000130  0.49999741  0.25256486  1  0.400465  0  0.129256  0.145513  0  3.96629  0
C  C32  1  0.49999893  0.49999867  0.89814469  1  0.040798  0  0.01174  0.045046  0  3.978535  0
C  C33  1  0.50000080  0.49999829  0.10186416  1  0.04219  0  0.011845  0.046861  0  3.979735  0
C  C34  1  0.49202420  0.58497450  0.87310112  1  -0.000489  0  -0.00535  -0.060072  0  3.97746  0
C  C35  1  0.49245162  0.41500792  0.12691164  1  -0.002168  0  -0.005814  -0.061697  0  3.978414  0
C  C36  1  0.50797350  0.41502290  0.87310183  1  -0.000299  0  -0.00543  -0.060333  0  3.977686  0
C  C37  1  0.50754863  0.58498999  0.12691200  1  -0.002188  0  -0.005782  -0.061591  0  3.978391  0
C  C38  1  0.48441940  0.66786040  0.89798328  1  0.06219  0  -0.061724  -0.058898  0  3.954965  0
C  C39  1  0.48536176  0.33209777  0.10202592  1  0.080939  0  -0.061892  -0.059014  0  3.955848  0
C  C40  1  0.51557620  0.33213693  0.89798400  1  0.062027  0  -0.061665  -0.058733  0  3.955098  0
C  C41  1  0.51463605  0.66790021  0.10202627  1  0.080895  0  -0.062041  -0.059328  0  3.956055  0
C  C42  1  0.49999960  0.49999899  0.64663482  1  0.093766  0  0.000491  3.8e-05  0  3.929804  0
C  C43  1  0.50000089  0.49999936  0.35336940  1  0.090848  0  0.000803  0.002031  0  3.92892  0
C  C44  1  0.50292737  0.58634642  0.02600770  1  -0.101106  0  0.008946  0.044961  0  3.972595  0
C  C45  1  0.50354197  0.41366786  0.97400186  1  -0.001046  0  0.009099  0.044517  0  3.971426  0
C  C46  1  0.49707295  0.41365244  0.02600805  1  -0.101097  0  0.008954  0.044994  0  3.972545  0
C  C47  1  0.49645792  0.58633067  0.97400151  1  -0.001036  0  0.009085  0.044484  0  3.971438  0
C  C48  1  0.50000062  0.49999974  0.05090767  1  0.027949  0  0.00698  -0.00155  0  3.917788  0
C  C49  1  0.49999986  0.49999929  0.94910046  1  0.023436  0  0.007332  0.001968  0  3.91341  0
C  C50  1  0.51182987  0.66835468  0.05232038  1  -0.026077  0  -0.076934  -0.118277  0  3.965743  0
C  C51  1  0.51296161  0.33169354  0.94769132  1  -0.043084  0  -0.077297  -0.119329  0  3.966338  0
C  C52  1  0.48816609  0.33164342  0.05232002  1  -0.02613  0  -0.077042  -0.118562  0  3.96579  0
C  C53  1  0.48703584  0.66830505  0.94769060  1  -0.043064  0  -0.077292  -0.119355  0  3.96631  0
C  C54  1  0.49994617  0.77949304  0.49999373  1  0.211577  0  -0.007205  -0.125782  0  3.837428  0
C  C55  1  0.50005204  0.22050600  0.49999195  1  0.211605  0  -0.007192  -0.125802  0  3.837386  0
C  C56  1  0.49994969  0.86446399  0.49998768  1  -0.208514  0  -0.011965  0.021713  0  4.265356  0
C  C57  1  0.50004928  0.13553505  0.49998554  1  -0.20854  0  -0.011974  0.021668  0  4.26541  0
C  C58  1  0.49997916  0.95728111  0.49998590  1  0.0691  0  -0.000901  -0.003171  0  4.197329  0
C  C59  1  0.50001981  0.04271862  0.49998447  1  -0.162944  0  -0.000718  -0.002934  0  4.197334  0
C  C60  1  0.85130435  0.49998324  0.49999730  1  0.873935  0  0.278299  0.354134  0  4.006922  0
C  C61  1  0.14869463  0.50001788  0.49999765  1  0.873939  0  0.278312  0.35408  0  4.00714  0
C  C62  1  0.95376417  0.49999571  0.49999694  1  0.295278  0  0.082615  0.018621  0  4.003454  0
C  C63  1  0.04623404  0.50000679  0.49999730  1  0.059319  0  0.082671  0.018765  0  4.003403  0
N  N64  1  0.49999708  0.49999741  0.79822090  1  -1.173441  0  -0.242224  -0.24519  0  3.69337  0
N  N65  1  0.50000113  0.49999817  0.20178973  1  -1.176752  0  -0.241755  -0.246448  0  3.693598  0
N  N66  1  0.76299167  0.49997077  0.49999694  1  -0.980729  0  -0.20033  -0.193513  0  2.946313  0
N  N67  1  0.23700655  0.50002896  0.49999801  1  -0.980691  0  -0.200348  -0.193499  0  2.946547  0
N  N68  1  0.31015769  0.51421575  0.74523888  1  0.420574  0  0.065704  0.528831  0  4.193579  0
N  N69  1  0.31023761  0.48491187  0.25476961  1  0.421013  0  0.065516  0.529763  0  4.191137  0
N  N70  1  0.68983839  0.48577989  0.74524067  1  0.420453  0  0.065658  0.528706  0  4.194  0
N  N71  1  0.68976350  0.51508502  0.25476996  1  0.421233  0  0.065504  0.529693  0  4.191471  0
O  O72  1  0.41348429  0.64057007  0.49949564  1  -1.134426  0  -0.310888  -0.538482  0  2.258003  0
O  O73  1  0.58651392  0.35942897  0.49949599  1  -1.134368  0  -0.310915  -0.53854  0  2.25799  0
O  O74  1  0.41349709  0.35944282  0.50050003  1  -1.134626  0  -0.310884  -0.538376  0  2.257542  0
O  O75  1  0.58650113  0.64055621  0.50050145  1  -1.134577  0  -0.310863  -0.53832  0  2.257603  0
O  O76  1  0.41390353  0.50113579  0.57271517  1  -1.157766  0  -0.313163  -0.544805  0  2.302185  0
O  O77  1  0.58609516  0.50114291  0.42728584  1  -1.157963  0  -0.313168  -0.54481  0  2.302072  0
O  O78  1  0.41390408  0.49885909  0.42728513  1  -1.158021  0  -0.313172  -0.544851  0  2.302097  0
O  O79  1  0.58609594  0.49886514  0.57271552  1  -1.157739  0  -0.313173  -0.544871  0  2.302249  0
O  O80  1  0.48053360  0.65735995  0.79655060  1  -1.107575  0  -0.284291  -0.444211  0  2.049895  0
O  O81  1  0.48140723  0.34255874  0.20345540  1  -1.110066  0  -0.284806  -0.444947  0  2.04847  0
O  O82  1  0.51945828  0.34263418  0.79655167  1  -1.107585  0  -0.284199  -0.444147  0  2.049907  0
O  O83  1  0.51859580  0.65743759  0.20345576  1  -1.109945  0  -0.284745  -0.444816  0  2.048519  0
O  O84  1  0.24378275  0.55820822  0.72385019  1  -0.433933  0  -0.130095  -0.324925  0  1.853624  0
O  O85  1  0.29922972  0.47504790  0.78411415  1  -0.43852  0  -0.124583  -0.317137  0  1.891372  0
O  O86  1  0.24409250  0.44070744  0.27617505  1  -0.429843  0  -0.129239  -0.324456  0  1.853148  0
O  O87  1  0.29910090  0.52398829  0.21588081  1  -0.440724  0  -0.125352  -0.318369  0  1.890185  0
O  O88  1  0.75621470  0.44178817  0.72385268  1  -0.433881  0  -0.130031  -0.324808  0  1.85371  0
O  O89  1  0.70076435  0.52494626  0.78411628  1  -0.438406  0  -0.124624  -0.317201  0  1.891702  0
O  O90  1  0.75590799  0.55929078  0.27617505  1  -0.429818  0  -0.129205  -0.324402  0  1.853242  0
O  O91  1  0.70090070  0.47600731  0.21588152  1  -0.441212  0  -0.125354  -0.318352  0  1.890409  0
