# generated using pymatgen
data_ZnH16C20(N3O2)2
_symmetry_space_group_name_H-M   'P 1'
_cell_length_a   10.21207493
_cell_length_b   10.41924902
_cell_length_c   11.66131270
_cell_angle_alpha   96.84732598
_cell_angle_beta   98.30811774
_cell_angle_gamma   119.32050943
_symmetry_Int_Tables_number   1
_chemical_formula_structural   ZnH16C20(N3O2)2
_chemical_formula_sum   'Zn2 H32 C40 N12 O8'
_cell_volume   1044.20556469
_cell_formula_units_Z   2
loop_
 _symmetry_equiv_pos_site_id
 _symmetry_equiv_pos_as_xyz
  1  'x, y, z'
loop_
 _atom_site_type_symbol
 _atom_site_label
 _atom_site_symmetry_multiplicity
 _atom_site_fract_x
 _atom_site_fract_y
 _atom_site_fract_z
 _atom_site_occupancy
 _atom_site_pbe_bader_spin_density
 _atom_site_pbe_cm5_charge
 _atom_site_pbe_ddec_charge
 _atom_site_pbe_ddec_spin_density
 _atom_site_pbe_ddec_sum_bond_order
 _atom_site_pbe_magmom
Zn  Zn0  1  0.71134955  0.76627987  0.14023150  1  0  0.693519  0.777011  0  2.382519  0
Zn  Zn1  1  0.28864772  0.23372469  0.85977129  1  0  0.693531  0.777045  0  2.382452  0
H  H2  1  0.24964064  0.40855245  0.17036499  1  0  0.100824  0.102532  0  1.018602  0
H  H3  1  0.75035188  0.59144870  0.82963768  1  0  0.100798  0.102459  0  1.018622  0
H  H4  1  0.81102581  0.38342503  0.13775317  1  0  0.101434  0.098376  0  1.009256  0
H  H5  1  0.18896988  0.61657843  0.86224501  1  0  0.101448  0.098351  0  1.009289  0
H  H6  1  0.96523172  0.25819099  0.15292500  1  0  0.100255  0.102172  0  0.991481  0
H  H7  1  0.03476138  0.74181129  0.84707787  1  0  0.100253  0.102157  0  0.991454  0
H  H8  1  0.22442609  0.80650975  0.15788075  1  0  0.102578  0.10883  0  1.029848  0
H  H9  1  0.77557375  0.19349594  0.84212248  1  0  0.10259  0.108851  0  1.029808  0
H  H10  1  0.68523023  0.97708253  0.35229077  1  0  0.145299  0.136144  0  1.009448  0
H  H11  1  0.31477359  0.02292323  0.64770782  1  0  0.145318  0.136205  0  1.009466  0
H  H12  1  0.08290263  0.00529596  0.26528913  1  0  0.135142  0.106238  0  1.044485  0
H  H13  1  0.91709979  0.99471093  0.73470855  1  0  0.135123  0.106213  0  1.044538  0
H  H14  1  0.03359050  0.22581378  0.61586948  1  0  0.121375  0.114409  0  0.992919  0
H  H15  1  0.96641372  0.77419086  0.38412817  1  0  0.121389  0.114434  0  0.9929  0
H  H16  1  0.83146292  0.15214660  0.57524917  1  0  0.123955  0.114765  0  0.953909  0
H  H17  1  0.16853894  0.84785352  0.42475025  1  0  0.123962  0.114764  0  0.95387  0
H  H18  1  0.43357246  0.58781850  0.90808337  1  0  0.144703  0.130913  0  1.026735  0
H  H19  1  0.56642542  0.41218156  0.09191899  1  0  0.144712  0.130903  0  1.026708  0
H  H20  1  0.86202072  0.98961981  0.94722626  1  0  0.139296  0.121798  0  1.005181  0
H  H21  1  0.13798354  0.01037357  0.05277185  1  0  0.139303  0.121773  0  1.00517  0
H  H22  1  0.40185939  0.73983410  0.64444795  1  0  0.117772  0.107124  0  0.968131  0
H  H23  1  0.59813933  0.26015250  0.35554870  1  0  0.117735  0.107037  0  0.968166  0
H  H24  1  0.31364304  0.57227558  0.70052056  1  0  0.120559  0.112512  0  0.997079  0
H  H25  1  0.68635923  0.42771779  0.29947816  1  0  0.120528  0.112467  0  0.997061  0
H  H26  1  0.38612433  0.37655437  0.65871420  1  0  0.099022  0.104859  0  1.037951  0
H  H27  1  0.61388013  0.62343559  0.34128869  1  0  0.099001  0.104875  0  1.03802  0
H  H28  1  0.54928583  0.75692623  0.49313302  1  0  0.099233  0.096886  0  1.006218  0
H  H29  1  0.45071941  0.24306710  0.50687120  1  0  0.099242  0.096896  0  1.006358  0
H  H30  1  0.79183891  0.35850354  0.60171387  1  0  0.098975  0.09748  0  1.031399  0
H  H31  1  0.20816056  0.64149767  0.39828710  1  0  0.09898  0.097503  0  1.031381  0
H  H32  1  0.15608046  0.39426093  0.43609320  1  0  0.102103  0.104714  0  1.036532  0
H  H33  1  0.84391842  0.60573915  0.56390757  1  0  0.102121  0.104721  0  1.036533  0
C  C34  1  0.42564978  0.71101755  0.17816979  1  0  0.194769  0.566375  0  4.228506  0
C  C35  1  0.57434670  0.28898364  0.82183167  1  0  0.194739  0.566247  0  4.228663  0
C  C36  1  0.25447135  0.61688931  0.16661579  1  0  -0.023011  -0.044248  0  3.98294  0
C  C37  1  0.74552414  0.38311188  0.83338468  1  0  -0.023036  -0.044222  0  3.982849  0
C  C38  1  0.18087429  0.46198613  0.16434720  1  0  -0.079669  -0.07652  0  3.939224  0
C  C39  1  0.81911922  0.53801505  0.83565303  1  0  -0.079668  -0.076502  0  3.939378  0
C  C40  1  0.91777264  0.68094305  0.13443279  1  0  0.19794  0.559948  0  4.213935  0
C  C41  1  0.08222522  0.31906265  0.86556848  1  0  0.197867  0.559875  0  4.214151  0
C  C42  1  0.00735057  0.60287809  0.14652674  1  0  -0.020756  -0.040686  0  3.988954  0
C  C43  1  0.99264452  0.39712423  0.85347210  1  0  -0.020733  -0.04073  0  3.989259  0
C  C44  1  0.93545713  0.44859106  0.14659522  1  0  -0.079828  -0.081535  0  3.95693  0
C  C45  1  0.06453538  0.55141012  0.85340403  1  0  -0.079815  -0.081425  0  3.956876  0
C  C46  1  0.02197940  0.37862500  0.15503623  1  0  -0.089316  -0.077184  0  4.008414  0
C  C47  1  0.97801411  0.62137616  0.84496571  1  0  -0.089328  -0.077193  0  4.008505  0
C  C48  1  0.16703607  0.68639236  0.15722114  1  0  -0.078815  -0.113444  0  3.94011  0
C  C49  1  0.83296061  0.31361110  0.84277802  1  0  -0.078797  -0.113422  0  3.940036  0
C  C50  1  0.80461066  0.00857690  0.35681160  1  0  0.168634  0.086208  0  3.867799  0
C  C51  1  0.19539276  0.99143000  0.64318621  1  0  0.168627  0.086162  0  3.867723  0
C  C52  1  0.00827660  0.02472885  0.31280090  1  0  0.144237  0.127751  0  3.985786  0
C  C53  1  0.99172424  0.97527691  0.68719646  1  0  0.144258  0.127721  0  3.985701  0
C  C54  1  0.93943668  0.21023045  0.54593052  1  0  -0.038368  -0.139048  0  3.904475  0
C  C55  1  0.06056378  0.78977080  0.45406714  1  0  -0.038422  -0.139121  0  3.904389  0
C  C56  1  0.96996519  0.35980317  0.52079318  1  0  -0.016794  0.079793  0  3.986878  0
C  C57  1  0.03003428  0.64019803  0.47920865  1  0  -0.016792  0.079792  0  3.986829  0
C  C58  1  0.88249151  0.41981995  0.55613616  1  0  -0.092588  -0.13142  0  4.010402  0
C  C59  1  0.11750756  0.58018239  0.44386403  1  0  -0.092576  -0.131392  0  4.010277  0
C  C60  1  0.08763299  0.44052723  0.46425226  1  0  -0.092588  -0.127252  0  3.981027  0
C  C61  1  0.91236667  0.55947623  0.53574813  1  0  -0.092654  -0.127283  0  3.981121  0
C  C62  1  0.53140211  0.68747227  0.89343061  1  0  0.171173  0.099772  0  3.846218  0
C  C63  1  0.46859797  0.31252444  0.10657078  1  0  0.171208  0.099842  0  3.846294  0
C  C64  1  0.74816337  0.89029988  0.91028649  1  0  0.15256  0.143196  0  3.95751  0
C  C65  1  0.25183909  0.10969574  0.08971164  1  0  0.152622  0.143332  0  3.957476  0
C  C66  1  0.41968282  0.65391425  0.67740256  1  0  -0.039175  -0.139876  0  3.894154  0
C  C67  1  0.58031926  0.34607687  0.32259502  1  0  -0.03913  -0.139736  0  3.894085  0
C  C68  1  0.46241797  0.57515718  0.58573522  1  0  -0.013442  0.083462  0  3.979262  0
C  C69  1  0.53758650  0.42483280  0.41426595  1  0  -0.0134  0.083629  0  3.979177  0
C  C70  1  0.43543220  0.43043940  0.58875674  1  0  -0.089443  -0.11959  0  3.969462  0
C  C71  1  0.56457305  0.56955392  0.41124834  1  0  -0.089468  -0.11977  0  3.969772  0
C  C72  1  0.52709860  0.64386468  0.49607409  1  0  -0.089503  -0.124668  0  3.993578  0
C  C73  1  0.47290944  0.35612644  0.50392765  1  0  -0.089425  -0.124746  0  3.993536  0
N  N74  1  0.66397694  0.78757995  0.97236320  1  0  -0.349246  -0.310931  0  3.574469  0
N  N75  1  0.33602311  0.21242238  0.02763883  1  0  -0.349266  -0.311013  0  3.574512  0
N  N76  1  0.67469202  0.85882630  0.79798024  1  0  -0.220733  -0.263277  0  3.090672  0
N  N77  1  0.32531204  0.14116482  0.20201759  1  0  -0.220813  -0.263367  0  3.090849  0
N  N78  1  0.53767411  0.72978269  0.78924875  1  0  -0.126328  0.177357  0  3.72237  0
N  N79  1  0.46232776  0.27021180  0.21074918  1  0  -0.126341  0.177306  0  3.722504  0
N  N80  1  0.85064669  0.95057731  0.27358347  1  0  -0.348895  -0.315019  0  3.567255  0
N  N81  1  0.14935435  0.04943071  0.72641246  1  0  -0.348926  -0.315012  0  3.567186  0
N  N82  1  0.06040855  0.12333864  0.41523196  1  0  -0.216218  -0.253488  0  3.116935  0
N  N83  1  0.93959328  0.87666712  0.58476553  1  0  -0.216288  -0.253508  0  3.11693  0
N  N84  1  0.92939988  0.11069266  0.44170293  1  0  -0.131663  0.169228  0  3.764167  0
N  N85  1  0.07060177  0.88931084  0.55829514  1  0  -0.131565  0.169288  0  3.764128  0
O  O86  1  0.49364844  0.63677842  0.15306757  1  0  -0.340342  -0.572822  0  2.325548  0
O  O87  1  0.50634844  0.36322165  0.84693380  1  0  -0.340296  -0.572742  0  2.325529  0
O  O88  1  0.78391218  0.61848344  0.16197993  1  0  -0.336056  -0.567926  0  2.283988  0
O  O89  1  0.21608726  0.38152341  0.83801996  1  0  -0.336024  -0.567951  0  2.283952  0
O  O90  1  0.97288429  0.80393119  0.10162494  1  0  -0.318388  -0.55734  0  2.187148  0
O  O91  1  0.02711577  0.19607118  0.89837195  1  0  -0.318351  -0.55728  0  2.187281  0
O  O92  1  0.49299070  0.85178731  0.20963085  1  0  -0.344205  -0.57352  0  2.109105  0
O  O93  1  0.50700618  0.14821274  0.79037139  1  0  -0.344231  -0.573493  0  2.10912  0
