# generated using pymatgen
data_CuH7C9S2N3
_symmetry_space_group_name_H-M   'P 1'
_cell_length_a   10.24577837
_cell_length_b   10.24582697
_cell_length_c   10.38248636
_cell_angle_alpha   94.13146316
_cell_angle_beta   94.13098371
_cell_angle_gamma   111.09368426
_symmetry_Int_Tables_number   1
_chemical_formula_structural   CuH7C9S2N3
_chemical_formula_sum   'Cu4 H28 C36 S8 N12'
_cell_volume   1008.60648766
_cell_formula_units_Z   4
loop_
 _symmetry_equiv_pos_site_id
 _symmetry_equiv_pos_as_xyz
  1  'x, y, z'
loop_
 _atom_site_type_symbol
 _atom_site_label
 _atom_site_symmetry_multiplicity
 _atom_site_fract_x
 _atom_site_fract_y
 _atom_site_fract_z
 _atom_site_occupancy
 _atom_site_hle17_bader_spin_density
 _atom_site_hle17_ddec_charge
 _atom_site_hle17_ddec_spin_density
 _atom_site_hle17_ddec_sum_bond_order
 _atom_site_hle17_magmom
 _atom_site_hse06_10hf_bader_spin_density
 _atom_site_hse06_10hf_ddec_charge
 _atom_site_hse06_10hf_ddec_spin_density
 _atom_site_hse06_10hf_ddec_sum_bond_order
 _atom_site_hse06_10hf_magmom
 _atom_site_hse06_bader_spin_density
 _atom_site_hse06_ddec_charge
 _atom_site_hse06_ddec_spin_density
 _atom_site_hse06_ddec_sum_bond_order
 _atom_site_hse06_magmom
 _atom_site_pbe_bader_spin_density
 _atom_site_pbe_cm5_charge
 _atom_site_pbe_ddec_charge
 _atom_site_pbe_ddec_spin_density
 _atom_site_pbe_ddec_sum_bond_order
 _atom_site_pbe_magmom
Cu  Cu0  1  0.86002565  0.13997579  0.74999983  1  0  0.338995  0  2.113858  0  0  0.242808  0  2.586084  0  0  0.239928  0  2.546139  0  0  0.454243  0.248519  0  2.610255  0
Cu  Cu1  1  0.13997627  0.86002259  0.25000178  1  0  0.339052  0  2.113758  0  0  0.242887  0  2.585975  0  0  0.23998  0  2.546014  0  0  0.454267  0.248611  0  2.610117  0
Cu  Cu2  1  0.03055799  0.96943272  0.74999878  1  0  0.494965  0  2.14623  0  0  0.409304  0  2.654585  0  0  0.406549  0  2.611616  0  0  0.500465  0.415022  0  2.679391  0
Cu  Cu3  1  0.96943514  0.03056569  0.24999834  1  0  0.49493  0  2.146197  0  0  0.40925  0  2.654534  0  0  0.406518  0  2.61157  0  0  0.500449  0.414986  0  2.67935  0
H  H4  1  0.71627298  0.64622527  0.64267441  1  0  0.090791  0  0.968579  0  0  0.101192  0  1.033381  0  0  0.10332  0  1.033427  0  0  0.090661  0.099752  0  1.03323  0
H  H5  1  0.35377675  0.28372777  0.85732421  1  0  0.090804  0  0.968621  0  0  0.101216  0  1.0334  0  0  0.103344  0  1.033444  0  0  0.090693  0.099774  0  1.033249  0
H  H6  1  0.28372892  0.35377309  0.35733105  1  0  0.090772  0  0.968673  0  0  0.101192  0  1.033435  0  0  0.103318  0  1.033481  0  0  0.090671  0.099751  0  1.033284  0
H  H7  1  0.64622363  0.71627170  0.14266870  1  0  0.090784  0  0.968647  0  0  0.101192  0  1.033427  0  0  0.10332  0  1.033473  0  0  0.090678  0.099752  0  1.033276  0
H  H8  1  0.69203058  0.87393156  0.57981582  1  0  0.080894  0  0.956973  0  0  0.094329  0  1.01721  0  0  0.095762  0  1.015714  0  0  0.11276  0.093346  0  1.017975  0
H  H9  1  0.12607081  0.30796749  0.92018757  1  0  0.080936  0  0.956973  0  0  0.094394  0  1.017165  0  0  0.095828  0  1.015668  0  0  0.112799  0.093411  0  1.017931  0
H  H10  1  0.30796663  0.12606999  0.42018664  1  0  0.080894  0  0.957018  0  0  0.094383  0  1.017195  0  0  0.095817  0  1.015698  0  0  0.112773  0.093399  0  1.017963  0
H  H11  1  0.87392933  0.69203405  0.07981415  1  0  0.080954  0  0.956934  0  0  0.094416  0  1.017129  0  0  0.095849  0  1.015634  0  0  0.112815  0.093432  0  1.017896  0
H  H12  1  0.49064585  0.67616211  0.67254748  1  0  0.092782  0  0.971835  0  0  0.098895  0  1.043988  0  0  0.101625  0  1.042913  0  0  0.094362  0.096716  0  1.045213  0
H  H13  1  0.32383819  0.50935178  0.82745093  1  0  0.092775  0  0.971832  0  0  0.098888  0  1.043979  0  0  0.101606  0  1.042946  0  0  0.094358  0.096711  0  1.045203  0
H  H14  1  0.50935449  0.32383731  0.32745602  1  0  0.092775  0  0.971849  0  0  0.098903  0  1.043985  0  0  0.101628  0  1.042934  0  0  0.094373  0.096724  0  1.045208  0
H  H15  1  0.67616316  0.49064768  0.17254398  1  0  0.092796  0  0.97184  0  0  0.098915  0  1.04399  0  0  0.101634  0  1.042952  0  0  0.094384  0.096735  0  1.045212  0
H  H16  1  0.85467981  0.56588526  0.48043689  1  0  0.099839  0  0.973438  0  0  0.110634  0  1.042743  0  0  0.110926  0  1.044499  0  0  0.091025  0.111182  0  1.039578  0
H  H17  1  0.43411536  0.14532144  0.01956550  1  0  0.099832  0  0.973366  0  0  0.110635  0  1.04267  0  0  0.110929  0  1.044425  0  0  0.091022  0.111184  0  1.039506  0
H  H18  1  0.14531934  0.43411627  0.51956860  1  0  0.099852  0  0.973467  0  0  0.11064  0  1.042769  0  0  0.11094  0  1.04453  0  0  0.091035  0.111189  0  1.039604  0
H  H19  1  0.56588499  0.85467800  0.98043415  1  0  0.099838  0  0.973428  0  0  0.110635  0  1.042734  0  0  0.11093  0  1.044488  0  0  0.091035  0.111183  0  1.039569  0
H  H20  1  0.76488483  0.41232899  0.36919504  1  0  0.115208  0  0.953609  0  0  0.124558  0  1.024422  0  0  0.127087  0  1.021979  0  0  0.104763  0.123021  0  1.025782  0
H  H21  1  0.58767046  0.23511759  0.13080611  1  0  0.115223  0  0.953562  0  0  0.124615  0  1.024328  0  0  0.127134  0  1.021899  0  0  0.104778  0.123075  0  1.025691  0
H  H22  1  0.23511609  0.58766938  0.63080939  1  0  0.115204  0  0.953617  0  0  0.124576  0  1.024399  0  0  0.127106  0  1.021968  0  0  0.104759  0.123036  0  1.025763  0
H  H23  1  0.41233107  0.76488501  0.86919290  1  0  0.115216  0  0.953575  0  0  0.124601  0  1.024344  0  0  0.127118  0  1.02192  0  0  0.104775  0.123062  0  1.025707  0
H  H24  1  0.57085647  0.81485823  0.35308363  1  0  0.122546  0  0.942348  0  0  0.131731  0  1.002517  0  0  0.135241  0  1.002381  0  0  0.110685  0.128908  0  1.003388  0
H  H25  1  0.18514538  0.42914640  0.14691948  1  0  0.122586  0  0.942369  0  0  0.131774  0  1.002534  0  0  0.135284  0  1.002398  0  0  0.110713  0.128956  0  1.003399  0
H  H26  1  0.42914033  0.18514752  0.64692008  1  0  0.122631  0  0.942239  0  0  0.131795  0  1.002427  0  0  0.135305  0  1.002289  0  0  0.110724  0.128977  0  1.003294  0
H  H27  1  0.81485631  0.57086462  0.85308016  1  0  0.122537  0  0.942349  0  0  0.131766  0  1.002473  0  0  0.135274  0  1.002338  0  0  0.110711  0.128949  0  1.00334  0
H  H28  1  0.55854312  0.01964411  0.23344512  1  0  0.069419  0  0.953276  0  0  0.07947  0  1.017802  0  0  0.081998  0  1.014507  0  0  0.107558  0.077399  0  1.020177  0
H  H29  1  0.98035698  0.44146249  0.26655557  1  0  0.069421  0  0.953278  0  0  0.079483  0  1.017803  0  0  0.082012  0  1.014509  0  0  0.107557  0.077413  0  1.020177  0
H  H30  1  0.44145857  0.98036163  0.76655894  1  0  0.069394  0  0.953208  0  0  0.07946  0  1.017726  0  0  0.081993  0  1.014426  0  0  0.107542  0.077391  0  1.020099  0
H  H31  1  0.01964317  0.55854433  0.73344268  1  0  0.06941  0  0.953211  0  0  0.07947  0  1.017735  0  0  0.081999  0  1.014439  0  0  0.107562  0.0774  0  1.020109  0
C  C32  1  0.62134858  0.58159950  0.57978670  1  0  -0.122435  0  3.746341  0  0  -0.13992  0  3.98872  0  0  -0.142783  0  4.011172  0  0  -0.100759  -0.138663  0  3.973617  0
C  C33  1  0.41840286  0.37865048  0.92021002  1  0  -0.122426  0  3.746357  0  0  -0.139904  0  3.988724  0  0  -0.142764  0  4.011166  0  0  -0.100772  -0.138647  0  3.973622  0
C  C34  1  0.37865059  0.41839678  0.42021648  1  0  -0.122468  0  3.7463  0  0  -0.139956  0  3.988698  0  0  -0.142816  0  4.011139  0  0  -0.100773  -0.138699  0  3.973593  0
C  C35  1  0.58160007  0.62134792  0.07978396  1  0  -0.122454  0  3.746283  0  0  -0.139936  0  3.988672  0  0  -0.142797  0  4.011118  0  0  -0.100766  -0.138678  0  3.973568  0
C  C36  1  0.82890264  0.94997547  0.97570236  1  0  0.292012  0  3.960539  0  0  0.281263  0  4.247622  0  0  0.297504  0  4.26387  0  0  0.144307  0.270575  0  4.236289  0
C  C37  1  0.05002696  0.17109544  0.52429210  1  0  0.292002  0  3.96055  0  0  0.281249  0  4.247642  0  0  0.297489  0  4.263892  0  0  0.144239  0.270563  0  4.236309  0
C  C38  1  0.17109796  0.05001663  0.02429002  1  0  0.291888  0  3.960616  0  0  0.281136  0  4.247712  0  0  0.297374  0  4.263957  0  0  0.14415  0.270449  0  4.236383  0
C  C39  1  0.94997344  0.82889877  0.47569946  1  0  0.29204  0  3.960317  0  0  0.281291  0  4.247418  0  0  0.297532  0  4.263665  0  0  0.144291  0.270605  0  4.23608  0
C  C40  1  0.72992246  0.19090499  0.50716832  1  0  0.343044  0  3.78869  0  0  0.325786  0  4.063646  0  0  0.342528  0  4.076972  0  0  0.237904  0.314473  0  4.055698  0
C  C41  1  0.80909498  0.27007672  0.99283282  1  0  0.34312  0  3.788657  0  0  0.325864  0  4.063595  0  0  0.342602  0  4.076923  0  0  0.23794  0.314549  0  4.055649  0
C  C42  1  0.27007866  0.80909655  0.49283443  1  0  0.343052  0  3.788788  0  0  0.325839  0  4.063683  0  0  0.342569  0  4.07702  0  0  0.237943  0.314524  0  4.055735  0
C  C43  1  0.19090342  0.72991745  0.00716919  1  0  0.343024  0  3.788774  0  0  0.325829  0  4.063644  0  0  0.342555  0  4.076986  0  0  0.237972  0.314513  0  4.055698  0
C  C44  1  0.68347729  0.95603301  0.52268402  1  0  0.196737  0  3.648686  0  0  0.160812  0  3.898513  0  0  0.172295  0  3.913362  0  0  0.060844  0.153129  0  3.888933  0
C  C45  1  0.04396994  0.31652359  0.97731712  1  0  0.196641  0  3.648737  0  0  0.160705  0  3.898546  0  0  0.172187  0  3.913396  0  0  0.060796  0.15302  0  3.888969  0
C  C46  1  0.31651895  0.04396854  0.47731741  1  0  0.196788  0  3.648671  0  0  0.160827  0  3.898476  0  0  0.172307  0  3.913322  0  0  0.060872  0.153141  0  3.888898  0
C  C47  1  0.95603021  0.68347796  0.02268267  1  0  0.196607  0  3.648617  0  0  0.160667  0  3.898454  0  0  0.172147  0  3.913301  0  0  0.060773  0.152982  0  3.888877  0
C  C48  1  0.49453885  0.59851803  0.59701751  1  0  -0.115569  0  3.751212  0  0  -0.134061  0  3.997783  0  0  -0.136868  0  4.020172  0  0  -0.096286  -0.132037  0  3.982976  0
C  C49  1  0.40148084  0.50545822  0.90298040  1  0  -0.115621  0  3.75129  0  0  -0.134122  0  3.997873  0  0  -0.136935  0  4.020257  0  0  -0.09635  -0.132098  0  3.983066  0
C  C50  1  0.50545894  0.40147718  0.40298934  1  0  -0.115497  0  3.751178  0  0  -0.134013  0  3.997744  0  0  -0.136823  0  4.02013  0  0  -0.096303  -0.131986  0  3.982934  0
C  C51  1  0.59851878  0.49453915  0.09701038  1  0  -0.115534  0  3.751246  0  0  -0.134044  0  3.997816  0  0  -0.136857  0  4.020203  0  0  -0.096307  -0.132017  0  3.983007  0
C  C52  1  0.76562928  0.46502606  0.46518556  1  0  -0.186354  0  3.659034  0  0  -0.226651  0  3.909023  0  0  -0.225673  0  3.91869  0  0  -0.14776  -0.227166  0  3.90065  0
C  C53  1  0.53497461  0.23437259  0.03481490  1  0  -0.186337  0  3.659012  0  0  -0.226666  0  3.909004  0  0  -0.225686  0  3.918685  0  0  -0.147749  -0.22718  0  3.900631  0
C  C54  1  0.23437046  0.53497442  0.53481797  1  0  -0.186347  0  3.658988  0  0  -0.22664  0  3.908988  0  0  -0.225703  0  3.918721  0  0  -0.147738  -0.227154  0  3.900614  0
C  C55  1  0.46502575  0.76562686  0.96518282  1  0  -0.186296  0  3.658948  0  0  -0.22663  0  3.908986  0  0  -0.225654  0  3.918671  0  0  -0.147737  -0.227143  0  3.900611  0
C  C56  1  0.62882836  0.48305753  0.48249300  1  0  0.095126  0  3.770193  0  0  0.11733  0  4.002545  0  0  0.116305  0  4.028575  0  0  -0.020919  0.118263  0  3.984436  0
C  C57  1  0.51694208  0.37117148  0.01750886  1  0  0.095129  0  3.770147  0  0  0.117325  0  4.002518  0  0  0.116304  0  4.028541  0  0  -0.020914  0.11826  0  3.984409  0
C  C58  1  0.37117081  0.51693874  0.51751210  1  0  0.09521  0  3.770033  0  0  0.117376  0  4.002426  0  0  0.116364  0  4.028459  0  0  -0.020888  0.118311  0  3.984314  0
C  C59  1  0.48306064  0.62882903  0.98248719  1  0  0.095169  0  3.770032  0  0  0.117355  0  4.002404  0  0  0.116337  0  4.028427  0  0  -0.020899  0.118289  0  3.984297  0
C  C60  1  0.61668826  0.92326780  0.39697716  1  0  -0.184037  0  3.712313  0  0  -0.200936  0  3.974957  0  0  -0.211314  0  3.993522  0  0  -0.091553  -0.195068  0  3.963834  0
C  C61  1  0.07673477  0.38331490  0.10302424  1  0  -0.184076  0  3.712436  0  0  -0.200989  0  3.975101  0  0  -0.211369  0  3.993667  0  0  -0.091585  -0.195126  0  3.96398  0
C  C62  1  0.38330737  0.07673480  0.60302623  1  0  -0.184167  0  3.712414  0  0  -0.201082  0  3.975081  0  0  -0.211462  0  3.993649  0  0  -0.09161  -0.195218  0  3.963958  0
C  C63  1  0.92326773  0.61669297  0.89697234  1  0  -0.184015  0  3.712362  0  0  -0.200976  0  3.975033  0  0  -0.211354  0  3.993595  0  0  -0.09158  -0.195115  0  3.963908  0
C  C64  1  0.61068040  0.03558935  0.33189908  1  0  0.191498  0  3.694214  0  0  0.158033  0  3.96011  0  0  0.171801  0  3.969748  0  0  0.064396  0.149217  0  3.953957  0
C  C65  1  0.96441150  0.38932263  0.16810222  1  0  0.191482  0  3.694267  0  0  0.15798  0  3.960202  0  0  0.171748  0  3.96984  0  0  0.06437  0.149165  0  3.954049  0
C  C66  1  0.38931896  0.96441535  0.66810184  1  0  0.19148  0  3.694223  0  0  0.158032  0  3.960087  0  0  0.171799  0  3.969729  0  0  0.064389  0.149215  0  3.953935  0
C  C67  1  0.03558845  0.61068103  0.83189868  1  0  0.191502  0  3.694237  0  0  0.158031  0  3.960152  0  0  0.171802  0  3.969786  0  0  0.064388  0.149217  0  3.953999  0
S  S68  1  0.79022193  0.90548321  0.81930382  1  0  -0.324614  0  2.573486  0  0  -0.292964  0  2.984345  0  0  -0.300389  0  2.96617  0  0  -0.157193  -0.288137  0  2.995452  0
S  S69  1  0.09451568  0.20977128  0.68069482  1  0  -0.324655  0  2.573335  0  0  -0.293018  0  2.984225  0  0  -0.300444  0  2.966051  0  0  -0.157161  -0.288189  0  2.995332  0
S  S70  1  0.20977200  0.09451205  0.18069216  1  0  -0.324684  0  2.573433  0  0  -0.29305  0  2.98432  0  0  -0.300472  0  2.966138  0  0  -0.157181  -0.288226  0  2.99543  0
S  S71  1  0.90548391  0.79022607  0.31930173  1  0  -0.32467  0  2.573551  0  0  -0.293027  0  2.984405  0  0  -0.300446  0  2.966226  0  0  -0.157208  -0.288206  0  2.995519  0
S  S72  1  0.81098752  0.36098097  0.58482667  1  0  -0.023569  0  2.410598  0  0  -0.031362  0  2.77187  0  0  -0.034755  0  2.767829  0  0  0.029892  -0.028407  0  2.772274  0
S  S73  1  0.63902014  0.18901289  0.91517407  1  0  -0.023576  0  2.410627  0  0  -0.031385  0  2.77193  0  0  -0.034778  0  2.767892  0  0  0.029885  -0.02843  0  2.772335  0
S  S74  1  0.18901751  0.63902055  0.41517733  1  0  -0.023562  0  2.410585  0  0  -0.031399  0  2.771867  0  0  -0.034771  0  2.767838  0  0  0.029845  -0.028445  0  2.772267  0
S  S75  1  0.36098062  0.81098234  0.08482530  1  0  -0.023551  0  2.410614  0  0  -0.03138  0  2.77189  0  0  -0.03476  0  2.767846  0  0  0.029864  -0.028424  0  2.77229  0
N  N76  1  0.85868680  0.98454808  0.08842506  1  0  -0.507266  0  3.126553  0  0  -0.459151  0  3.456669  0  0  -0.470414  0  3.456397  0  0  -0.438657  -0.452075  0  3.456056  0
N  N77  1  0.01545483  0.14131163  0.41157427  1  0  -0.507218  0  3.12674  0  0  -0.4591  0  3.456867  0  0  -0.470362  0  3.456596  0  0  -0.43861  -0.452029  0  3.456266  0
N  N78  1  0.14131495  0.01544716  0.91157150  1  0  -0.507098  0  3.126644  0  0  -0.459  0  3.456787  0  0  -0.470257  0  3.456514  0  0  -0.43852  -0.451918  0  3.456164  0
N  N79  1  0.98454084  0.85868045  0.58842642  1  0  -0.507299  0  3.126298  0  0  -0.459185  0  3.456412  0  0  -0.470444  0  3.456134  0  0  -0.438645  -0.452104  0  3.455785  0
N  N80  1  0.73986904  0.08905029  0.58041196  1  0  -0.375334  0  3.3408  0  0  -0.300211  0  3.62564  0  0  -0.315742  0  3.632533  0  0  -0.362345  -0.291978  0  3.622273  0
N  N81  1  0.91095078  0.26013061  0.91958977  1  0  -0.375369  0  3.340858  0  0  -0.300219  0  3.625645  0  0  -0.31575  0  3.632545  0  0  -0.362364  -0.291983  0  3.622278  0
N  N82  1  0.26013071  0.91095020  0.41959061  1  0  -0.375356  0  3.34088  0  0  -0.30023  0  3.625694  0  0  -0.31575  0  3.63257  0  0  -0.362364  -0.291997  0  3.622326  0
N  N83  1  0.08904704  0.73986463  0.08041034  1  0  -0.375326  0  3.340931  0  0  -0.300218  0  3.62574  0  0  -0.315737  0  3.63262  0  0  -0.362355  -0.291979  0  3.622364  0
N  N84  1  0.66681778  0.16871505  0.38645810  1  0  -0.367705  0  3.067051  0  0  -0.324818  0  3.332688  0  0  -0.341675  0  3.345697  0  0  -0.31105  -0.314217  0  3.323843  0
N  N85  1  0.83128617  0.33318571  0.11354359  1  0  -0.367698  0  3.067096  0  0  -0.324793  0  3.332738  0  0  -0.341644  0  3.345742  0  0  -0.311019  -0.314189  0  3.32389  0
N  N86  1  0.33318586  0.83129068  0.61354707  1  0  -0.367709  0  3.067052  0  0  -0.324852  0  3.332687  0  0  -0.341705  0  3.345699  0  0  -0.31105  -0.31425  0  3.323843  0
N  N87  1  0.16871223  0.66681374  0.88645591  1  0  -0.367716  0  3.067054  0  0  -0.324846  0  3.332686  0  0  -0.341696  0  3.345698  0  0  -0.31108  -0.314245  0  3.323842  0
