# generated using pymatgen
data_ZnH11C8N7
_symmetry_space_group_name_H-M   'P 1'
_cell_length_a   6.15450868
_cell_length_b   9.48122605
_cell_length_c   9.62715795
_cell_angle_alpha   85.67779318
_cell_angle_beta   76.14122907
_cell_angle_gamma   81.86020132
_symmetry_Int_Tables_number   1
_chemical_formula_structural   ZnH11C8N7
_chemical_formula_sum   'Zn2 H22 C16 N14'
_cell_volume   539.41605633
_cell_formula_units_Z   2
loop_
 _symmetry_equiv_pos_site_id
 _symmetry_equiv_pos_as_xyz
  1  'x, y, z'
loop_
 _atom_site_type_symbol
 _atom_site_label
 _atom_site_symmetry_multiplicity
 _atom_site_fract_x
 _atom_site_fract_y
 _atom_site_fract_z
 _atom_site_occupancy
 _atom_site_hle17_bader_spin_density
 _atom_site_hle17_ddec_charge
 _atom_site_hle17_ddec_spin_density
 _atom_site_hle17_ddec_sum_bond_order
 _atom_site_hle17_magmom
 _atom_site_hse06_10hf_bader_spin_density
 _atom_site_hse06_10hf_ddec_charge
 _atom_site_hse06_10hf_ddec_spin_density
 _atom_site_hse06_10hf_ddec_sum_bond_order
 _atom_site_hse06_10hf_magmom
 _atom_site_hse06_bader_spin_density
 _atom_site_hse06_ddec_charge
 _atom_site_hse06_ddec_spin_density
 _atom_site_hse06_ddec_sum_bond_order
 _atom_site_hse06_magmom
 _atom_site_pbe_bader_spin_density
 _atom_site_pbe_cm5_charge
 _atom_site_pbe_ddec_charge
 _atom_site_pbe_ddec_spin_density
 _atom_site_pbe_ddec_sum_bond_order
 _atom_site_pbe_magmom
Zn  Zn0  1  0.71824215  0.04593737  0.54580927  1  0  0.947879  0  2.017896  0  0  0.779362  0  2.490618  0  0  0.815598  0  2.450955  0  0  0.718967  0.755256  0  2.517292  0
Zn  Zn1  1  0.28176075  0.95405705  0.45419049  1  0  0.947861  0  2.01793  0  0  0.779338  0  2.490654  0  0  0.815578  0  2.450988  0  0  0.718969  0.755235  0  2.517331  0
H  H2  1  0.96529716  0.25801758  0.61037425  1  0  0.080116  0  0.961162  0  0  0.087324  0  1.032261  0  0  0.089539  0  1.030755  0  0  0.113094  0.085464  0  1.033809  0
H  H3  1  0.03470929  0.74197579  0.38962191  1  0  0.080128  0  0.961075  0  0  0.087379  0  1.032172  0  0  0.089594  0  1.030669  0  0  0.11311  0.085536  0  1.03367  0
H  H4  1  0.65227411  0.39959499  0.03552447  1  0  0.100874  0  0.940222  0  0  0.111304  0  1.003998  0  0  0.113588  0  1.002667  0  0  0.110292  0.109777  0  1.00449  0
H  H5  1  0.34772978  0.60040265  0.96447075  1  0  0.100884  0  0.940225  0  0  0.111315  0  1.004004  0  0  0.113601  0  1.002666  0  0  0.110289  0.109789  0  1.004496  0
H  H6  1  0.35709320  0.24316060  0.04386557  1  0  0.101648  0  0.985583  0  0  0.105595  0  1.058167  0  0  0.10836  0  1.057664  0  0  0.102516  0.103869  0  1.058115  0
H  H7  1  0.64291882  0.75683813  0.95612624  1  0  0.101611  0  0.985377  0  0  0.10548  0  1.058064  0  0  0.108243  0  1.057564  0  0  0.10248  0.10375  0  1.058016  0
H  H8  1  0.26977037  0.08131879  0.74192726  1  0  0.113061  0  0.975582  0  0  0.129324  0  1.048684  0  0  0.130876  0  1.048487  0  0  0.091316  0.128039  0  1.049327  0
H  H9  1  0.73021749  0.91867559  0.25807691  1  0  0.113082  0  0.975595  0  0  0.129364  0  1.04868  0  0  0.130924  0  1.048476  0  0  0.091329  0.128076  0  1.049325  0
H  H10  1  0.19727812  0.08176999  0.93282347  1  0  0.131529  0  0.960112  0  0  0.148125  0  1.024122  0  0  0.149876  0  1.023783  0  0  0.095748  0.146824  0  1.024316  0
H  H11  1  0.80272137  0.91823294  0.06718037  1  0  0.131483  0  0.960007  0  0  0.148075  0  1.024039  0  0  0.149825  0  1.023701  0  0  0.095735  0.146775  0  1.024232  0
H  H12  1  0.41301283  0.95332907  0.84350145  1  0  0.118721  0  0.960761  0  0  0.136967  0  1.02671  0  0  0.137506  0  1.028271  0  0  0.093117  0.136539  0  1.025511  0
H  H13  1  0.58698812  0.04667493  0.15650313  1  0  0.118742  0  0.960731  0  0  0.137002  0  1.026665  0  0  0.137542  0  1.028229  0  0  0.09314  0.136575  0  1.025464  0
H  H14  1  0.09742024  0.40482137  0.90155178  1  0  0.070019  0  0.943611  0  0  0.090618  0  1.005202  0  0  0.089892  0  1.007268  0  0  0.092706  0.091264  0  1.004001  0
H  H15  1  0.90256696  0.59517622  0.09845226  1  0  0.070059  0  0.943613  0  0  0.090645  0  1.005188  0  0  0.08992  0  1.007251  0  0  0.092712  0.091288  0  1.003991  0
H  H16  1  0.92326818  0.54801596  0.84327373  1  0  0.071413  0  0.958729  0  0  0.084223  0  1.032641  0  0  0.084209  0  1.033108  0  0  0.091433  0.084125  0  1.032487  0
H  H17  1  0.07673750  0.45198915  0.15671861  1  0  0.071426  0  0.958729  0  0  0.08422  0  1.032634  0  0  0.084208  0  1.033101  0  0  0.091432  0.084124  0  1.032476  0
H  H18  1  0.28521955  0.34934848  0.64451285  1  0  0.086076  0  0.981443  0  0  0.106501  0  1.04613  0  0  0.107023  0  1.048199  0  0  0.078434  0.106066  0  1.044643  0
H  H19  1  0.71479341  0.65064593  0.35548951  1  0  0.086055  0  0.981461  0  0  0.106469  0  1.046193  0  0  0.106985  0  1.048263  0  0  0.078422  0.106031  0  1.04471  0
H  H20  1  0.30278954  0.52638615  0.68161357  1  0  0.100202  0  0.970925  0  0  0.117572  0  1.037999  0  0  0.118802  0  1.038316  0  0  0.082287  0.116681  0  1.037642  0
H  H21  1  0.69722533  0.47360720  0.31839065  1  0  0.100179  0  0.970963  0  0  0.117577  0  1.038  0  0  0.118806  0  1.038319  0  0  0.082296  0.116686  0  1.037646  0
H  H22  1  0.10452515  0.49230543  0.58519167  1  0  0.087638  0  0.970557  0  0  0.105484  0  1.041212  0  0  0.106502  0  1.041607  0  0  0.080209  0.104594  0  1.041055  0
H  H23  1  0.89549216  0.50769221  0.41480771  1  0  0.087603  0  0.970646  0  0  0.10547  0  1.041278  0  0  0.106487  0  1.041673  0  0  0.080193  0.104588  0  1.041113  0
C  C24  1  0.83527077  0.25857109  0.70982005  1  0  0.079595  0  3.65968  0  0  0.042466  0  3.905005  0  0  0.048961  0  3.922984  0  0  0.040815  0.038114  0  3.893602  0
C  C25  1  0.16474321  0.74143409  0.29015854  1  0  0.079389  0  3.66056  0  0  0.04216  0  3.90597  0  0  0.048652  0  3.923959  0  0  0.040705  0.037814  0  3.894569  0
C  C26  1  0.83517563  0.34432600  0.82101907  1  0  0.06203  0  3.712771  0  0  0.08447  0  3.95193  0  0  0.079514  0  3.977406  0  0  0.00289  0.087602  0  3.934694  0
C  C27  1  0.16480795  0.65568116  0.17899005  1  0  0.062218  0  3.712682  0  0  0.08468  0  3.951815  0  0  0.07972  0  3.977296  0  0  0.003048  0.08781  0  3.93458  0
C  C28  1  0.65986206  0.33651175  0.94391993  1  0  -0.03478  0  3.691412  0  0  -0.064963  0  3.948051  0  0  -0.061466  0  3.966355  0  0  -0.058792  -0.066564  0  3.93458  0
C  C29  1  0.34015653  0.66349557  0.05606090  1  0  -0.034784  0  3.69092  0  0  -0.064983  0  3.947573  0  0  -0.061474  0  3.965864  0  0  -0.058811  -0.066585  0  3.934105  0
C  C30  1  0.49614469  0.24827655  0.94990124  1  0  -0.169319  0  3.715649  0  0  -0.183991  0  3.963168  0  0  -0.192366  0  3.98529  0  0  -0.086222  -0.179008  0  3.948271  0
C  C31  1  0.50383508  0.75173275  0.05010416  1  0  -0.169205  0  3.715893  0  0  -0.183867  0  3.963364  0  0  -0.192247  0  3.985492  0  0  -0.086128  -0.178878  0  3.94847  0
C  C32  1  0.50752414  0.16413654  0.83449630  1  0  0.318377  0  3.702149  0  0  0.324674  0  3.93786  0  0  0.333953  0  3.957803  0  0  0.121811  0.31835  0  3.92464  0
C  C33  1  0.49248865  0.83586648  0.16548885  1  0  0.318087  0  3.702196  0  0  0.324602  0  3.937605  0  0  0.333886  0  3.957548  0  0  0.121629  0.318272  0  3.924395  0
C  C34  1  0.33724108  0.06519878  0.83854073  1  0  -0.389067  0  3.71362  0  0  -0.470191  0  3.950047  0  0  -0.473599  0  3.958284  0  0  -0.248271  -0.467487  0  3.944206  0
C  C35  1  0.66275631  0.93480627  0.16146433  1  0  -0.388983  0  3.713588  0  0  -0.470216  0  3.949989  0  0  -0.47362  0  3.958201  0  0  -0.248247  -0.467508  0  3.944149  0
C  C36  1  0.01130557  0.44114848  0.81476047  1  0  -0.107434  0  3.745033  0  0  -0.148046  0  3.99615  0  0  -0.148147  0  4.012647  0  0  -0.161973  -0.148178  0  3.985537  0
C  C37  1  0.98869288  0.55885127  0.18523856  1  0  -0.107507  0  3.745168  0  0  -0.148067  0  3.996233  0  0  -0.148168  0  4.01273  0  0  -0.161967  -0.148196  0  3.985625  0
C  C38  1  0.18464226  0.45259098  0.67348436  1  0  -0.284433  0  3.718166  0  0  -0.356096  0  3.960814  0  0  -0.358664  0  3.972103  0  0  -0.254482  -0.353753  0  3.952765  0
C  C39  1  0.81536881  0.54740450  0.32651821  1  0  -0.284367  0  3.718352  0  0  -0.356059  0  3.960951  0  0  -0.358621  0  3.972239  0  0  -0.254487  -0.35373  0  3.952902  0
N  N40  1  0.98047779  0.09776583  0.38911667  1  0  -0.628657  0  2.8417  0  0  -0.583335  0  3.172962  0  0  -0.607934  0  3.176725  0  0  -0.330441  -0.566728  0  3.170505  0
N  N41  1  0.01951776  0.90223177  0.61088504  1  0  -0.628717  0  2.841601  0  0  -0.583393  0  3.17284  0  0  -0.607993  0  3.176602  0  0  -0.330451  -0.566786  0  3.170385  0
N  N42  1  0.97502043  0.14607518  0.26985014  1  0  0.415197  0  4.189797  0  0  0.448597  0  4.465521  0  0  0.463662  0  4.494416  0  0  0.09643  0.438615  0  4.445745  0
N  N43  1  0.02497260  0.85392666  0.73015685  1  0  0.41516  0  4.189754  0  0  0.44859  0  4.465435  0  0  0.463655  0  4.494328  0  0  0.09641  0.438608  0  4.445663  0
N  N44  1  0.97612202  0.19214593  0.15436189  1  0  -0.344484  0  2.410491  0  0  -0.338361  0  2.632676  0  0  -0.34387  0  2.643613  0  0  -0.156261  -0.334547  0  2.625194  0
N  N45  1  0.02386989  0.80786126  0.84564075  1  0  -0.344417  0  2.410584  0  0  -0.338293  0  2.632743  0  0  -0.343798  0  2.643678  0  0  -0.156228  -0.334481  0  2.625261  0
N  N46  1  0.43754650  0.13095724  0.45300298  1  0  -0.64169  0  2.900859  0  0  -0.590372  0  3.244211  0  0  -0.615444  0  3.245587  0  0  -0.338467  -0.57378  0  3.243397  0
N  N47  1  0.56244763  0.86903928  0.54700319  1  0  -0.641565  0  2.900802  0  0  -0.590273  0  3.244154  0  0  -0.615348  0  3.245535  0  0  -0.338481  -0.573673  0  3.243316  0
N  N48  1  0.40534801  0.23973485  0.38177001  1  0  0.412054  0  4.186838  0  0  0.441242  0  4.46892  0  0  0.456359  0  4.496888  0  0  0.097487  0.431192  0  4.450143  0
N  N49  1  0.59464613  0.76026165  0.61823927  1  0  0.411586  0  4.186549  0  0  0.440816  0  4.46859  0  0  0.455931  0  4.496555  0  0  0.097221  0.430768  0  4.449817  0
N  N50  1  0.37319882  0.34419923  0.31495881  1  0  -0.313445  0  2.39066  0  0  -0.310302  0  2.611594  0  0  -0.31476  0  2.623067  0  0  -0.139198  -0.306947  0  2.603538  0
N  N51  1  0.62679511  0.65579833  0.68505250  1  0  -0.313079  0  2.390419  0  0  -0.309941  0  2.611299  0  0  -0.314394  0  2.622767  0  0  -0.138942  -0.306594  0  2.603251  0
N  N52  1  0.67775509  0.17043637  0.71636915  1  0  -0.38312  0  3.30167  0  0  -0.298217  0  3.565561  0  0  -0.318006  0  3.581629  0  0  -0.33544  -0.285411  0  3.554931  0
N  N53  1  0.32222866  0.82956976  0.28363171  1  0  -0.382932  0  3.301541  0  0  -0.298065  0  3.565356  0  0  -0.317858  0  3.581426  0  0  -0.33538  -0.285262  0  3.554732  0
