# generated using pymatgen
data_H7PbC8S(O2F)3
_symmetry_space_group_name_H-M   'P 1'
_cell_length_a   7.68778406
_cell_length_b   8.13511493
_cell_length_c   10.01285798
_cell_angle_alpha   85.14986579
_cell_angle_beta   77.63757403
_cell_angle_gamma   87.59422937
_symmetry_Int_Tables_number   1
_chemical_formula_structural   H7PbC8S(O2F)3
_chemical_formula_sum   'H14 Pb2 C16 S2 O12 F6'
_cell_volume   609.32041256
_cell_formula_units_Z   2
loop_
 _symmetry_equiv_pos_site_id
 _symmetry_equiv_pos_as_xyz
  1  'x, y, z'
loop_
 _atom_site_type_symbol
 _atom_site_label
 _atom_site_symmetry_multiplicity
 _atom_site_fract_x
 _atom_site_fract_y
 _atom_site_fract_z
 _atom_site_occupancy
 _atom_site_hle17_bader_spin_density
 _atom_site_hle17_ddec_charge
 _atom_site_hle17_ddec_spin_density
 _atom_site_hle17_ddec_sum_bond_order
 _atom_site_hle17_magmom
 _atom_site_hse06_10hf_bader_spin_density
 _atom_site_hse06_10hf_ddec_charge
 _atom_site_hse06_10hf_ddec_spin_density
 _atom_site_hse06_10hf_ddec_sum_bond_order
 _atom_site_hse06_10hf_magmom
 _atom_site_hse06_bader_spin_density
 _atom_site_hse06_ddec_charge
 _atom_site_hse06_ddec_spin_density
 _atom_site_hse06_ddec_sum_bond_order
 _atom_site_hse06_magmom
 _atom_site_pbe_bader_spin_density
 _atom_site_pbe_cm5_charge
 _atom_site_pbe_ddec_charge
 _atom_site_pbe_ddec_spin_density
 _atom_site_pbe_ddec_sum_bond_order
 _atom_site_pbe_magmom
H  H0  1  0.86906671  0.77751690  0.75217477  1  0  0.089064  0  0.991343  0  0  0.096644  0  1.063773  0  0  0.100152  0  1.062371  0  0  0.097088  0.094297  0  1.064699  0
H  H1  1  0.13095127  0.22252110  0.24783366  1  0  0.088975  0  0.991234  0  0  0.096573  0  1.063674  0  0  0.10008  0  1.062267  0  0  0.097025  0.09422  0  1.0646  0
H  H2  1  0.45275550  0.51224248  0.87524392  1  0  0.095755  0  0.958633  0  0  0.106554  0  1.02322  0  0  0.109767  0  1.022021  0  0  0.101345  0.104345  0  1.024218  0
H  H3  1  0.54723698  0.48775832  0.12473736  1  0  0.095713  0  0.958401  0  0  0.106528  0  1.022999  0  0  0.109864  0  1.021486  0  0  0.10131  0.104324  0  1.023988  0
H  H4  1  0.32112168  0.64326277  0.07304985  1  0  0.083838  0  0.957646  0  0  0.0931  0  1.023425  0  0  0.096286  0  1.019812  0  0  0.097987  0.090723  0  1.026295  0
H  H5  1  0.67889835  0.35675170  0.92693594  1  0  0.083891  0  0.957464  0  0  0.093022  0  1.023378  0  0  0.096071  0  1.020071  0  0  0.097988  0.090649  0  1.026244  0
H  H6  1  0.05612257  0.80363423  0.11580251  1  0  0.098225  0  0.961991  0  0  0.106393  0  1.027037  0  0  0.109823  0  1.025909  0  0  0.100037  0.104132  0  1.027678  0
H  H7  1  0.94389517  0.19636672  0.88420059  1  0  0.098096  0  0.96222  0  0  0.106258  0  1.027281  0  0  0.109673  0  1.026178  0  0  0.099982  0.104  0  1.027923  0
H  H8  1  0.86262441  0.86949879  0.96559582  1  0  0.087252  0  0.953343  0  0  0.094444  0  1.019291  0  0  0.097668  0  1.015956  0  0  0.097273  0.092279  0  1.021365  0
H  H9  1  0.13739314  0.13050836  0.03441887  1  0  0.087211  0  0.953475  0  0  0.094393  0  1.01942  0  0  0.09736  0  1.016535  0  0  0.097262  0.092228  0  1.021493  0
H  H10  1  0.97632912  0.21708425  0.64703821  1  0  0.420317  0  0.883527  0  0  0.390208  0  0.946969  0  0  0.400329  0  0.93235  0  0  0.293874  0.383003  0  0.957365  0
H  H11  1  0.02365949  0.78291050  0.35298108  1  0  0.42039  0  0.883426  0  0  0.390307  0  0.94682  0  0  0.400426  0  0.932206  0  0  0.293923  0.383104  0  0.957215  0
H  H12  1  0.13259375  0.09568419  0.58515928  1  0  0.428458  0  0.856653  0  0  0.402488  0  0.917749  0  0  0.412083  0  0.903853  0  0  0.299459  0.395691  0  0.92758  0
H  H13  1  0.86739246  0.90430189  0.41485603  1  0  0.428522  0  0.856619  0  0  0.402556  0  0.917663  0  0  0.412151  0  0.903768  0  0  0.299448  0.395762  0  0.927491  0
Pb  Pb14  1  0.27015536  0.40574502  0.46448330  1  0  1.356918  0  1.42847  0  0  1.180383  0  1.824446  0  0  1.234117  0  1.784214  0  0  0.643869  1.140295  0  1.854081  0
Pb  Pb15  1  0.72987646  0.59418439  0.53552557  1  0  1.356881  0  1.428425  0  0  1.18035  0  1.824405  0  0  1.234086  0  1.784141  0  0  0.643797  1.14026  0  1.854043  0
C  C16  1  0.09642423  0.62184593  0.72096756  1  0  0.300418  0  3.799628  0  0  0.289708  0  4.046026  0  0  0.305624  0  4.059435  0  0  0.10972  0.278503  0  4.037137  0
C  C17  1  0.90356794  0.37816478  0.27902606  1  0  0.300465  0  3.799775  0  0  0.289779  0  4.046128  0  0  0.305696  0  4.059559  0  0  0.109711  0.278577  0  4.037234  0
C  C18  1  0.26940369  0.56162994  0.74982671  1  0  0.304709  0  3.806269  0  0  0.291058  0  4.059804  0  0  0.307577  0  4.072342  0  0  0.109707  0.279752  0  4.051325  0
C  C19  1  0.73060075  0.43837094  0.25016958  1  0  0.304839  0  3.806656  0  0  0.291212  0  4.060144  0  0  0.30781  0  4.07244  0  0  0.109784  0.279908  0  4.051662  0
C  C20  1  0.97751658  0.73040869  0.80067803  1  0  -0.16601  0  3.701242  0  0  -0.185265  0  3.950218  0  0  -0.194563  0  3.97065  0  0  -0.093243  -0.179017  0  3.9364  0
C  C21  1  0.02247811  0.26960696  0.19931283  1  0  -0.165974  0  3.701351  0  0  -0.185237  0  3.950291  0  0  -0.194545  0  3.970731  0  0  -0.093195  -0.17898  0  3.936452  0
C  C22  1  0.32554860  0.57663868  0.87361391  1  0  -0.162572  0  3.7036  0  0  -0.185237  0  3.961122  0  0  -0.19435  0  3.981414  0  0  -0.09231  -0.179504  0  3.947395  0
C  C23  1  0.67446390  0.42335975  0.12638025  1  0  -0.162522  0  3.703352  0  0  -0.185193  0  3.960833  0  0  -0.194162  0  3.980743  0  0  -0.092241  -0.179458  0  3.947097  0
C  C24  1  0.24753061  0.65525546  0.99056966  1  0  -0.005544  0  3.765857  0  0  -0.024785  0  4.02562  0  0  -0.018834  0  4.043341  0  0  -0.076432  -0.028186  0  4.013164  0
C  C25  1  0.75248314  0.34474545  0.00942611  1  0  -0.005685  0  3.766176  0  0  -0.024825  0  4.025978  0  0  -0.018905  0  4.043828  0  0  -0.07641  -0.028225  0  4.013525  0
C  C26  1  0.09108802  0.75092447  0.01674906  1  0  -0.078611  0  3.736431  0  0  -0.099111  0  3.997254  0  0  -0.106454  0  4.019381  0  0  -0.092766  -0.094103  0  3.981884  0
C  C27  1  0.90890734  0.24906777  0.98325234  1  0  -0.078395  0  3.73686  0  0  -0.098882  0  3.997614  0  0  -0.106244  0  4.019774  0  0  -0.092724  -0.09388  0  3.98225  0
C  C28  1  0.50051899  0.05470088  0.77972794  1  0  0.601878  0  3.679822  0  0  0.53065  0  4.049514  0  0  0.559311  0  4.021414  0  0  0.294213  0.510044  0  4.069723  0
C  C29  1  0.49946529  0.94530613  0.22027222  1  0  0.601753  0  3.680327  0  0  0.530765  0  4.049666  0  0  0.560463  0  4.019833  0  0  0.294228  0.510166  0  4.069865  0
C  C30  1  0.97468749  0.78679181  0.92843437  1  0  0.00851  0  3.743246  0  0  -0.008184  0  3.997965  0  0  -0.002422  0  4.015796  0  0  -0.071045  -0.011637  0  3.985215  0
C  C31  1  0.02531698  0.21320785  0.07156501  1  0  0.008517  0  3.743373  0  0  -0.008142  0  3.998056  0  0  -0.002502  0  4.016287  0  0  -0.071009  -0.011598  0  3.985314  0
S  S32  1  0.65658995  0.13236085  0.61893352  1  0  1.16904  0  5.720334  0  0  1.057721  0  6.25772  0  0  1.103139  0  6.235644  0  0  0.512332  1.026303  0  6.272147  0
S  S33  1  0.34339598  0.86763506  0.38106815  1  0  1.168884  0  5.720455  0  0  1.057534  0  6.257801  0  0  1.103231  0  6.234921  0  0  0.512325  1.026113  0  6.272221  0
O  O34  1  0.37576793  0.48561860  0.65452786  1  0  -0.628472  0  2.135558  0  0  -0.547974  0  2.380053  0  0  -0.579977  0  2.38032  0  0  -0.286126  -0.524806  0  2.378942  0
O  O35  1  0.62422739  0.51437604  0.34545639  1  0  -0.628584  0  2.1357  0  0  -0.548103  0  2.380153  0  0  -0.579888  0  2.379985  0  0  -0.286219  -0.524957  0  2.379093  0
O  O36  1  0.05715488  0.57657162  0.60957968  1  0  -0.62119  0  2.094232  0  0  -0.532507  0  2.323948  0  0  -0.564948  0  2.324468  0  0  -0.282719  -0.509453  0  2.323378  0
O  O37  1  0.94284820  0.42343047  0.39040876  1  0  -0.621125  0  2.094027  0  0  -0.53256  0  2.323911  0  0  -0.565002  0  2.324444  0  0  -0.282719  -0.509505  0  2.323336  0
O  O38  1  0.54523116  0.18731063  0.52307042  1  0  -0.606363  0  2.063184  0  0  -0.566122  0  2.334133  0  0  -0.587108  0  2.322945  0  0  -0.307951  -0.55127  0  2.34134  0
O  O39  1  0.45476263  0.81269023  0.47692862  1  0  -0.606297  0  2.063113  0  0  -0.56608  0  2.33405  0  0  -0.587015  0  2.322656  0  0  -0.307955  -0.551232  0  2.341257  0
O  O40  1  0.74779390  0.26548130  0.66641823  1  0  -0.657277  0  2.047485  0  0  -0.606421  0  2.306953  0  0  -0.628191  0  2.293957  0  0  -0.317558  -0.591335  0  2.316346  0
O  O41  1  0.25218935  0.73451583  0.33357980  1  0  -0.657131  0  2.04734  0  0  -0.606315  0  2.306835  0  0  -0.627907  0  2.293408  0  0  -0.317571  -0.591231  0  2.316224  0
O  O42  1  0.77338254  0.98933502  0.58263038  1  0  -0.636171  0  2.033841  0  0  -0.589768  0  2.286618  0  0  -0.610182  0  2.273205  0  0  -0.32206  -0.575439  0  2.295632  0
O  O43  1  0.22660840  0.01067199  0.41736669  1  0  -0.636241  0  2.033795  0  0  -0.58987  0  2.286633  0  0  -0.610284  0  2.273169  0  0  -0.32218  -0.575559  0  2.295685  0
O  O44  1  0.10582061  0.19349537  0.63846795  1  0  -0.810018  0  1.837843  0  0  -0.751313  0  2.011491  0  0  -0.773511  0  1.982862  0  0  -0.558116  -0.735267  0  2.031562  0
O  O45  1  0.89417065  0.80650056  0.36153485  1  0  -0.81022  0  1.837714  0  0  -0.751534  0  2.011299  0  0  -0.773663  0  1.982517  0  0  -0.558198  -0.735488  0  2.031368  0
F  F46  1  0.41384350  0.18094751  0.84805417  1  0  -0.218696  0  1.233022  0  0  -0.17288  0  1.399944  0  0  -0.183167  0  1.385499  0  0  -0.080786  -0.165368  0  1.409764  0
F  F47  1  0.58616049  0.81906823  0.15195313  1  0  -0.218711  0  1.232956  0  0  -0.172926  0  1.399771  0  0  -0.186966  0  1.388927  0  0  -0.080791  -0.165417  0  1.409592  0
F  F48  1  0.59448028  0.96677800  0.86379441  1  0  -0.237866  0  1.214617  0  0  -0.198841  0  1.387292  0  0  -0.208594  0  1.371709  0  0  -0.095682  -0.191482  0  1.397475  0
F  F49  1  0.40552315  0.03321180  0.13620883  1  0  -0.237724  0  1.215049  0  0  -0.198791  0  1.387685  0  0  -0.208324  0  1.371819  0  0  -0.095642  -0.191433  0  1.397866  0
F  F50  1  0.37913710  0.95532696  0.75193555  1  0  -0.215561  0  1.254406  0  0  -0.170858  0  1.423985  0  0  -0.182711  0  1.412444  0  0  -0.080003  -0.1624  0  1.432032  0
F  F51  1  0.62083382  0.04468129  0.24807770  1  0  -0.215557  0  1.254576  0  0  -0.170904  0  1.424059  0  0  -0.182371  0  1.411976  0  0  -0.080036  -0.162448  0  1.432105  0
