# generated using pymatgen
data_ErH18(C2O)7
_symmetry_space_group_name_H-M   'P 1'
_cell_length_a   12.83104459
_cell_length_b   14.06745459
_cell_length_c   18.77026228
_cell_angle_alpha   90.00012326
_cell_angle_beta   89.99976705
_cell_angle_gamma   89.99999969
_symmetry_Int_Tables_number   1
_chemical_formula_structural   ErH18(C2O)7
_chemical_formula_sum   'Er8 H144 C112 O56'
_cell_volume   3388.03491511
_cell_formula_units_Z   8
loop_
 _symmetry_equiv_pos_site_id
 _symmetry_equiv_pos_as_xyz
  1  'x, y, z'
loop_
 _atom_site_type_symbol
 _atom_site_label
 _atom_site_symmetry_multiplicity
 _atom_site_fract_x
 _atom_site_fract_y
 _atom_site_fract_z
 _atom_site_occupancy
 _atom_site_pbe_bader_charge
 _atom_site_pbe_bader_spin_density
 _atom_site_pbe_cm5_charge
 _atom_site_pbe_ddec_charge
 _atom_site_pbe_ddec_spin_density
 _atom_site_pbe_ddec_sum_bond_order
 _atom_site_pbe_magmom
Er  Er0  1  0.71675584  0.00379443  0.88982994  1  2.189161  0  1.537836  2.149001  0  2.16573  0
Er  Er1  1  0.78322657  0.99620637  0.38982911  1  2.189144  0  1.537833  2.148997  0  2.165666  0
Er  Er2  1  0.28320973  0.50379422  0.61016890  1  2.189209  0  1.537793  2.148983  0  2.165767  0
Er  Er3  1  0.21679184  0.49620933  0.11016425  1  2.189007  0  1.537875  2.148939  0  2.165951  0
Er  Er4  1  0.77251968  0.02074317  0.67196824  1  2.185025  0  1.531866  2.082642  0  2.17843  0
Er  Er5  1  0.72747961  0.97924919  0.17196541  1  2.185031  0  1.531821  2.082655  0  2.178374  0
Er  Er6  1  0.22747707  0.52076136  0.82802956  1  2.185075  0  1.531806  2.082535  0  2.178533  0
Er  Er7  1  0.27253646  0.47925775  0.32803698  1  2.184977  0  1.53177  2.082632  0  2.178473  0
H  H8  1  0.99349171  0.06809959  0.88156280  1  0.062033  0  0.10329  0.092273  0  1.023007  0
H  H9  1  0.50650244  0.93189835  0.38156317  1  0.062077  0  0.103228  0.092222  0  1.022987  0
H  H10  1  0.00651361  0.56809940  0.61843986  1  0.062161  0  0.103264  0.092274  0  1.02304  0
H  H11  1  0.49349493  0.43190062  0.11843967  1  0.062143  0  0.103222  0.092294  0  1.023017  0
H  H12  1  0.12325976  0.04171225  0.75082794  1  0.018042  0  0.094156  0.10051  0  0.998204  0
H  H13  1  0.37673553  0.95828886  0.25083372  1  0.01818  0  0.094147  0.100585  0  0.998271  0
H  H14  1  0.87673076  0.54170747  0.74916776  1  0.017733  0  0.094165  0.100565  0  0.99817  0
H  H15  1  0.62327041  0.45828867  0.24916970  1  0.018089  0  0.09414  0.100558  0  0.998222  0
H  H16  1  0.15308403  0.01330141  0.84028267  1  0.019506  0  0.090665  0.087726  0  0.999883  0
H  H17  1  0.34691384  0.98669996  0.34028325  1  0.01945  0  0.090681  0.08775  0  0.999857  0
H  H18  1  0.84692051  0.51330774  0.65971937  1  0.019629  0  0.090677  0.087725  0  1.000001  0
H  H19  1  0.65308509  0.48669596  0.15971755  1  0.019521  0  0.090653  0.087703  0  0.999939  0
H  H20  1  0.26695865  0.14840189  0.83241966  1  0.012881  0  0.091985  0.092422  0  0.991915  0
H  H21  1  0.23303849  0.85159946  0.33242353  1  0.012757  0  0.091978  0.092479  0  0.991989  0
H  H22  1  0.73303966  0.64840042  0.66757621  1  0.012784  0  0.092009  0.092485  0  0.991996  0
H  H23  1  0.76696589  0.35160188  0.16757439  1  0.012686  0  0.09204  0.092572  0  0.991882  0
H  H24  1  0.19859421  0.19328695  0.75824661  1  0.036442  0  0.089482  0.08579  0  1.01834  0
H  H25  1  0.30140259  0.80671277  0.25825128  1  0.036567  0  0.089467  0.085791  0  1.018348  0
H  H26  1  0.80140098  0.69328569  0.74175146  1  0.036562  0  0.089492  0.085811  0  1.018358  0
H  H27  1  0.69860179  0.30671326  0.24174869  1  0.036603  0  0.089512  0.085864  0  1.018315  0
H  H28  1  0.22438498  0.21652668  0.95336853  1  0.045339  0  0.094441  0.130715  0  0.987202  0
H  H29  1  0.27562079  0.78347715  0.45338123  1  0.045337  0  0.094398  0.1307  0  0.987169  0
H  H30  1  0.77562111  0.71652487  0.54662319  1  0.045387  0  0.094434  0.130736  0  0.987071  0
H  H31  1  0.72438203  0.28347424  0.04662190  1  0.045294  0  0.094394  0.130677  0  0.987159  0
H  H32  1  0.13215167  0.12309470  0.94522485  1  0.03807  0  0.094878  0.133284  0  0.996467  0
H  H33  1  0.36785259  0.87690129  0.44522999  1  0.038112  0  0.094872  0.133282  0  0.996454  0
H  H34  1  0.86785209  0.62309647  0.55477151  1  0.038178  0  0.094839  0.133234  0  0.996405  0
H  H35  1  0.63214868  0.37690409  0.05476850  1  0.038059  0  0.09486  0.133256  0  0.996456  0
H  H36  1  0.09094450  0.23673648  0.97396727  1  0.002087  0  0.089803  0.113993  0  1.05327  0
H  H37  1  0.40907284  0.76326243  0.47396945  1  0.001796  0  0.089788  0.11397  0  1.053217  0
H  H38  1  0.90907329  0.73674243  0.52602927  1  0.001759  0  0.089784  0.113997  0  1.0532  0
H  H39  1  0.59093700  0.26325875  0.02603152  1  0.001947  0  0.08975  0.113902  0  1.053268  0
H  H40  1  0.98818616  0.33345518  0.76867542  1  -0.006639  0  0.090999  0.131416  0  0.999254  0
H  H41  1  0.51181411  0.66654883  0.26867375  1  -0.006586  0  0.090942  0.131273  0  0.999307  0
H  H42  1  0.01180980  0.83345460  0.73132555  1  -0.006622  0  0.091024  0.131421  0  0.999173  0
H  H43  1  0.48819183  0.16654290  0.23132281  1  -0.006607  0  0.091058  0.131464  0  0.999128  0
H  H44  1  0.90735805  0.23618026  0.74515527  1  0.049275  0  0.093081  0.126852  0  1.034606  0
H  H45  1  0.59263924  0.76382368  0.24515566  1  0.049362  0  0.093034  0.126767  0  1.03462  0
H  H46  1  0.09263557  0.73618260  0.75484660  1  0.049379  0  0.09306  0.12681  0  1.034629  0
H  H47  1  0.40736358  0.26381640  0.25484638  1  0.049368  0  0.093061  0.126852  0  1.034584  0
H  H48  1  0.04033284  0.23444430  0.72144557  1  0.032281  0  0.092351  0.135059  0  1.002921  0
H  H49  1  0.45966495  0.76556028  0.22144813  1  0.032641  0  0.092302  0.134988  0  1.002844  0
H  H50  1  0.95966780  0.73444387  0.77855364  1  0.032301  0  0.09236  0.135063  0  1.00294  0
H  H51  1  0.54033710  0.26555022  0.27855124  1  0.032318  0  0.092309  0.135007  0  1.002941  0
H  H52  1  0.93550105  0.31798348  0.89943178  1  0.023376  0  0.090365  0.132926  0  0.993759  0
H  H53  1  0.56450468  0.68201593  0.39943584  1  0.023363  0  0.090377  0.1329  0  0.993759  0
H  H54  1  0.06450426  0.81798751  0.60056810  1  0.023367  0  0.090348  0.13287  0  0.993741  0
H  H55  1  0.43550672  0.18201317  0.10056659  1  0.023337  0  0.090354  0.132916  0  0.993757  0
H  H56  1  0.93484783  0.20348877  0.94077900  1  0.055252  0  0.09058  0.132139  0  1.01478  0
H  H57  1  0.56515142  0.79651787  0.44078219  1  0.055281  0  0.090601  0.132168  0  1.014763  0
H  H58  1  0.06515203  0.70348628  0.55922015  1  0.055209  0  0.090578  0.132105  0  1.014785  0
H  H59  1  0.43485452  0.29651428  0.05921990  1  0.055194  0  0.090577  0.132111  0  1.014842  0
H  H60  1  0.84899532  0.22754846  0.86994955  1  0.03038  0  0.090419  0.121573  0  1.047451  0
H  H61  1  0.65100279  0.77245798  0.36995139  1  0.030432  0  0.090362  0.121457  0  1.047404  0
H  H62  1  0.15100532  0.72754191  0.63005177  1  0.030335  0  0.090388  0.121487  0  1.04755  0
H  H63  1  0.34900004  0.27245246  0.13004906  1  0.03047  0  0.090417  0.121541  0  1.04736  0
H  H64  1  0.39874599  0.89544680  0.84739056  1  0.060808  0  0.092493  0.098024  0  1.007533  0
H  H65  1  0.10124404  0.10454891  0.34739786  1  0.060892  0  0.092472  0.098006  0  1.007493  0
H  H66  1  0.60125074  0.39544988  0.65259931  1  0.060928  0  0.092481  0.098011  0  1.007677  0
H  H67  1  0.89875723  0.60454385  0.15260925  1  0.060501  0  0.092492  0.098078  0  1.007581  0
H  H68  1  0.33557820  0.99680197  0.81408379  1  0.013323  0  0.089219  0.088644  0  1.008071  0
H  H69  1  0.16442528  0.00320075  0.31408755  1  0.013892  0  0.089199  0.088609  0  1.008145  0
H  H70  1  0.66442633  0.49679875  0.68590891  1  0.01391  0  0.089197  0.088634  0  1.008135  0
H  H71  1  0.83559158  0.50319578  0.18591993  1  0.013476  0  0.089221  0.08869  0  1.0081  0
H  H72  1  0.21145055  0.90159418  0.74918922  1  0.01261  0  0.085697  0.075952  0  1.025559  0
H  H73  1  0.28855644  0.09840693  0.24919438  1  0.012576  0  0.085695  0.075897  0  1.025551  0
H  H74  1  0.78855321  0.40159683  0.75080440  1  0.012586  0  0.085703  0.07593  0  1.025535  0
H  H75  1  0.71145185  0.59840215  0.25080366  1  0.012666  0  0.085733  0.075982  0  1.025465  0
H  H76  1  0.24601652  0.81484439  0.81288134  1  0.046351  0  0.092097  0.094874  0  1.016153  0
H  H77  1  0.25396670  0.18516472  0.31288780  1  0.045921  0  0.092035  0.094738  0  1.016338  0
H  H78  1  0.75397554  0.31484046  0.68711480  1  0.046216  0  0.092039  0.094742  0  1.016309  0
H  H79  1  0.74603457  0.68515478  0.18711730  1  0.046141  0  0.092057  0.094856  0  1.016235  0
H  H80  1  0.29303108  0.82051257  0.65923984  1  0.04866  0  0.101591  0.088489  0  0.988395  0
H  H81  1  0.20696865  0.17948686  0.15924963  1  0.048852  0  0.101569  0.088483  0  0.988538  0
H  H82  1  0.70696722  0.32051264  0.84074831  1  0.048924  0  0.101585  0.088513  0  0.988591  0
H  H83  1  0.79303184  0.67947949  0.34075547  1  0.048673  0  0.101589  0.088471  0  0.988536  0
H  H84  1  0.40355117  0.07528045  0.70803063  1  0.012605  0  0.085916  0.11808  0  1.021695  0
H  H85  1  0.09645060  0.92471485  0.20803606  1  0.012313  0  0.085876  0.117975  0  1.021749  0
H  H86  1  0.59644480  0.57528645  0.79196086  1  0.012249  0  0.085883  0.117984  0  1.02178  0
H  H87  1  0.90356859  0.42471976  0.29197849  1  0.01246  0  0.085854  0.118046  0  1.021726  0
H  H88  1  0.33869299  0.98569384  0.65861765  1  0.008182  0  0.089236  0.123977  0  0.99908  0
H  H89  1  0.16130518  0.01429777  0.15861984  1  0.007679  0  0.08923  0.123972  0  0.9991  0
H  H90  1  0.66130219  0.48570102  0.84137610  1  0.007509  0  0.089212  0.123901  0  0.999104  0
H  H91  1  0.83870544  0.51430889  0.34139085  1  0.00866  0  0.08923  0.123998  0  0.999022  0
H  H92  1  0.47248574  0.01152540  0.64148852  1  0.044656  0  0.091322  0.130735  0  1.039139  0
H  H93  1  0.02751331  0.98846830  0.14149638  1  0.044822  0  0.09138  0.130857  0  1.038984  0
H  H94  1  0.52750711  0.51152377  0.85850233  1  0.044425  0  0.091344  0.130792  0  1.039064  0
H  H95  1  0.97250510  0.48849117  0.35851507  1  0.044983  0  0.091325  0.130757  0  1.038964  0
H  H96  1  0.50537132  0.68701589  0.73394537  1  0.02049  0  0.091366  0.129644  0  1.012411  0
H  H97  1  0.99463617  0.31298304  0.23394765  1  0.020542  0  0.09136  0.129616  0  1.012375  0
H  H98  1  0.49463945  0.18701290  0.76606068  1  0.020332  0  0.091367  0.129605  0  1.01253  0
H  H99  1  0.00534873  0.81299465  0.26604861  1  0.020302  0  0.091346  0.129659  0  1.012448  0
H  H100  1  0.48640850  0.76049411  0.80951446  1  0.004861  0  0.089829  0.126046  0  1.047339  0
H  H101  1  0.01360203  0.23950148  0.30952009  1  0.004642  0  0.089786  0.12597  0  1.047372  0
H  H102  1  0.51359760  0.26048522  0.69048372  1  0.004737  0  0.089836  0.126087  0  1.047252  0
H  H103  1  0.98638599  0.73951146  0.19048031  1  0.00454  0  0.089815  0.125932  0  1.047373  0
H  H104  1  0.59425413  0.78032278  0.75173783  1  0.037242  0  0.090015  0.126194  0  1.019685  0
H  H105  1  0.90575247  0.21967977  0.25174819  1  0.037295  0  0.089976  0.126156  0  1.019681  0
H  H106  1  0.40574962  0.28031120  0.74825878  1  0.037344  0  0.089987  0.126197  0  1.019658  0
H  H107  1  0.09423944  0.71969985  0.24824844  1  0.037552  0  0.089955  0.126122  0  1.019688  0
H  H108  1  0.49382702  0.74683180  0.61488051  1  -0.003463  0  0.085935  0.116469  0  1.023794  0
H  H109  1  0.00617297  0.25316324  0.11488671  1  -0.003289  0  0.08596  0.116579  0  1.023608  0
H  H110  1  0.50617362  0.24683626  0.88511233  1  -0.003315  0  0.085955  0.116551  0  1.023621  0
H  H111  1  0.99383765  0.75318870  0.38510679  1  -0.003709  0  0.085988  0.116564  0  1.023669  0
H  H112  1  0.56699172  0.85245789  0.62822074  1  0.064064  0  0.094263  0.138671  0  1.013339  0
H  H113  1  0.93300783  0.14753861  0.12822505  1  0.063909  0  0.094264  0.13873  0  1.0133  0
H  H114  1  0.43300347  0.35245805  0.87177493  1  0.064263  0  0.094284  0.138732  0  1.013212  0
H  H115  1  0.06700902  0.64756331  0.37177200  1  0.064775  0  0.094268  0.138664  0  1.013227  0
H  H116  1  0.43871154  0.85940295  0.59308982  1  0.003642  0  0.085845  0.11846  0  1.018038  0
H  H117  1  0.06128935  0.14059202  0.09309462  1  0.003574  0  0.085885  0.118508  0  1.018006  0
H  H118  1  0.56128520  0.35940961  0.90690585  1  0.00364  0  0.085878  0.118504  0  1.01801  0
H  H119  1  0.93873140  0.64061257  0.40691361  1  0.004549  0  0.085863  0.118446  0  1.018003  0
H  H120  1  0.53155261  0.81103360  0.90920404  1  0.096838  0  0.105297  0.101888  0  1.062429  0
H  H121  1  0.96844059  0.18897010  0.40920193  1  0.096742  0  0.105278  0.101873  0  1.062341  0
H  H122  1  0.46844646  0.31103224  0.59080701  1  0.096636  0  0.105322  0.101969  0  1.062343  0
H  H123  1  0.03156302  0.68895846  0.09080265  1  0.096726  0  0.105328  0.101984  0  1.06226  0
H  H124  1  0.41779031  0.66812072  0.88780907  1  0.099616  0  0.110204  0.102559  0  1.040273  0
H  H125  1  0.08218701  0.33189429  0.38780187  1  0.099359  0  0.110159  0.10261  0  1.040262  0
H  H126  1  0.58218695  0.16810308  0.61219802  1  0.09926  0  0.110123  0.102545  0  1.040296  0
H  H127  1  0.91780256  0.83187632  0.11219974  1  0.099336  0  0.110209  0.102596  0  1.040245  0
H  H128  1  0.47416218  0.57539422  0.10233348  1  0.087135  0  0.107346  0.103591  0  1.039149  0
H  H129  1  0.02583866  0.42460291  0.60233606  1  0.087144  0  0.10735  0.103657  0  1.03904  0
H  H130  1  0.52584455  0.07541080  0.39766346  1  0.08726  0  0.107401  0.103757  0  1.039035  0
H  H131  1  0.97414171  0.92458292  0.89766825  1  0.087454  0  0.107443  0.10382  0  1.038904  0
H  H132  1  0.58825961  0.71694865  0.12301935  1  0.100871  0  0.108644  0.11083  0  1.025992  0
H  H133  1  0.91175556  0.28304215  0.62301582  1  0.100995  0  0.108668  0.110874  0  1.026083  0
H  H134  1  0.41177362  0.21698010  0.37697942  1  0.100986  0  0.108722  0.110886  0  1.025938  0
H  H135  1  0.08823105  0.78302494  0.87698186  1  0.100925  0  0.108734  0.110907  0  1.025933  0
H  H136  1  0.73251066  0.80005146  0.86684366  1  0.615894  0  0.335387  0.422806  0  0.863395  0
H  H137  1  0.76749605  0.19994075  0.36684053  1  0.615984  0  0.335374  0.422776  0  0.86341  0
H  H138  1  0.26749232  0.30005306  0.63315138  1  0.61584  0  0.335419  0.422804  0  0.8634  0
H  H139  1  0.23252470  0.69994203  0.13315501  1  0.615942  0  0.335322  0.422567  0  0.863668  0
H  H140  1  0.78613861  0.84366266  0.79666666  1  0.679386  0  0.308272  0.418175  0  0.911546  0
H  H141  1  0.71385916  0.15633788  0.29666574  1  0.679383  0  0.308262  0.418129  0  0.9116  0
H  H142  1  0.21384020  0.34366162  0.70332686  1  0.679434  0  0.308251  0.418197  0  0.911509  0
H  H143  1  0.28615614  0.65633225  0.20332814  1  0.67949  0  0.308217  0.418064  0  0.911663  0
H  H144  1  0.62041163  0.10401742  0.01749818  1  0.685613  0  0.304737  0.423135  0  0.904049  0
H  H145  1  0.87957532  0.89598231  0.51750585  1  0.685484  0  0.3047  0.42316  0  0.904033  0
H  H146  1  0.37956548  0.60402113  0.48249934  1  0.685569  0  0.304736  0.423226  0  0.903939  0
H  H147  1  0.12042609  0.39597852  0.98249255  1  0.685434  0  0.3046  0.423034  0  0.904216  0
H  H148  1  0.61052349  0.15718118  0.94153167  1  0.630948  0  0.3119  0.39576  0  0.925912  0
H  H149  1  0.88946796  0.84281480  0.44152657  1  0.630801  0  0.311922  0.39593  0  0.925754  0
H  H150  1  0.38945766  0.65717868  0.55847434  1  0.630941  0  0.311877  0.395834  0  0.925845  0
H  H151  1  0.11053642  0.34281477  0.05846974  1  0.630893  0  0.311872  0.39591  0  0.925782  0
C  C152  1  0.01096469  0.09611737  0.82830868  1  -0.013668  0  -0.083872  -0.177995  0  3.757274  0
C  C153  1  0.48903403  0.90388254  0.32830766  1  -0.013718  0  -0.083755  -0.177866  0  3.75736  0
C  C154  1  0.98903517  0.59611663  0.67169510  1  -0.013721  0  -0.083886  -0.178249  0  3.757425  0
C  C155  1  0.51096880  0.40388426  0.17169460  1  -0.013645  0  -0.083791  -0.178137  0  3.757156  0
C  C156  1  0.12293070  0.06955745  0.80537702  1  0.016065  0  -0.165043  -0.162364  0  3.888939  0
C  C157  1  0.37706893  0.93043955  0.30538061  1  0.016049  0  -0.165029  -0.162434  0  3.889183  0
C  C158  1  0.87707150  0.56956459  0.69462192  1  0.016396  0  -0.165087  -0.162366  0  3.889245  0
C  C159  1  0.62293623  0.43043920  0.19462223  1  0.015845  0  -0.165055  -0.162374  0  3.889214  0
C  C160  1  0.18849667  0.16098765  0.81091235  1  -0.026462  0  -0.164619  -0.188101  0  3.899846  0
C  C161  1  0.31150060  0.83901435  0.31091758  1  -0.026759  0  -0.164645  -0.188217  0  3.900114  0
C  C162  1  0.81149852  0.66098838  0.68908514  1  -0.026855  0  -0.164675  -0.188195  0  3.900012  0
C  C163  1  0.68850378  0.33901256  0.18908351  1  -0.02651  0  -0.164703  -0.18836  0  3.900133  0
C  C164  1  0.12541046  0.22772900  0.85952503  1  0.055345  0  -0.009522  0.01354  0  3.733425  0
C  C165  1  0.37458885  0.77227100  0.35953210  1  0.055234  0  -0.00939  0.013535  0  3.733521  0
C  C166  1  0.87458940  0.72772817  0.64046884  1  0.055578  0  -0.009391  0.0136  0  3.733405  0
C  C167  1  0.62541476  0.27226908  0.14046888  1  0.055528  0  -0.009418  0.013517  0  3.733344  0
C  C168  1  0.00866556  0.20781207  0.83525806  1  0.029397  0  0.003133  0.211738  0  3.669364  0
C  C169  1  0.49133468  0.79218857  0.33526165  1  0.029437  0  0.00299  0.211643  0  3.669562  0
C  C170  1  0.99133586  0.70781273  0.66473950  1  0.029424  0  0.003033  0.211711  0  3.669627  0
C  C171  1  0.50866737  0.29218885  0.16473937  1  0.029378  0  0.003072  0.211782  0  3.669326  0
C  C172  1  0.92844119  0.05561673  0.77918339  1  1.512157  0  0.221725  0.65924  0  4.084777  0
C  C173  1  0.57155512  0.94438803  0.27918466  1  1.512062  0  0.221733  0.659311  0  4.084571  0
C  C174  1  0.07155166  0.55561328  0.72082352  1  1.511749  0  0.221919  0.659678  0  4.084462  0
C  C175  1  0.42844848  0.44438917  0.22082299  1  1.51172  0  0.221925  0.659752  0  4.084192  0
C  C176  1  0.15369268  0.33211603  0.84881558  1  1.512932  0  0.222623  0.600403  0  4.079819  0
C  C177  1  0.34630202  0.66788394  0.34882257  1  1.513835  0  0.222644  0.600323  0  4.079877  0
C  C178  1  0.84630718  0.83211665  0.65117952  1  1.513508  0  0.22264  0.600199  0  4.080022  0
C  C179  1  0.65369613  0.16788418  0.15118092  1  1.513428  0  0.222718  0.600447  0  4.079777  0
C  C180  1  0.14394341  0.19976528  0.93772580  1  -0.063341  0  -0.239637  -0.39775  0  3.913857  0
C  C181  1  0.35606168  0.80023069  0.43773244  1  -0.063147  0  -0.239643  -0.397735  0  3.913893  0
C  C182  1  0.85606503  0.69977133  0.56226642  1  -0.063182  0  -0.239611  -0.397722  0  3.913674  0
C  C183  1  0.64394193  0.30023351  0.06226699  1  -0.063186  0  -0.239579  -0.397615  0  3.913752  0
C  C184  1  0.98568521  0.25566071  0.76343302  1  -0.042319  0  -0.247245  -0.427756  0  3.875318  0
C  C185  1  0.51430964  0.74434399  0.26343680  1  -0.042678  0  -0.247068  -0.427408  0  3.875137  0
C  C186  1  0.01430841  0.75565873  0.73656302  1  -0.04237  0  -0.247219  -0.427687  0  3.875426  0
C  C187  1  0.48568929  0.24434021  0.23656414  1  -0.042397  0  -0.247231  -0.427741  0  3.875238  0
C  C188  1  0.92795688  0.24116929  0.88984688  1  -0.086288  0  -0.247152  -0.430034  0  3.896551  0
C  C189  1  0.57204034  0.75883365  0.38985159  1  -0.08644  0  -0.24704  -0.429849  0  3.896356  0
C  C190  1  0.07204532  0.74116766  0.61015180  1  -0.086266  0  -0.247026  -0.429751  0  3.896503  0
C  C191  1  0.42796639  0.25883163  0.11015098  1  -0.086217  0  -0.247066  -0.429914  0  3.89654  0
C  C192  1  0.44534190  0.93143467  0.73973726  1  0.017811  0  -0.010395  0.01222  0  3.720578  0
C  C193  1  0.05465657  0.06856428  0.23974197  1  0.017936  0  -0.010364  0.012035  0  3.720822  0
C  C194  1  0.55465484  0.43143664  0.76025693  1  0.017857  0  -0.010397  0.011963  0  3.72074  0
C  C195  1  0.94534860  0.56856948  0.26026721  1  0.017611  0  -0.010355  0.012309  0  3.72047  0
C  C196  1  0.36347076  0.92569953  0.79931885  1  -0.032174  0  -0.168628  -0.186479  0  3.895451  0
C  C197  1  0.13653359  0.07430243  0.29932387  1  -0.032883  0  -0.168576  -0.186401  0  3.895391  0
C  C198  1  0.63653534  0.42569351  0.70067533  1  -0.03294  0  -0.168586  -0.186478  0  3.895806  0
C  C199  1  0.86347547  0.57429964  0.20068532  1  -0.032114  0  -0.168626  -0.186686  0  3.895908  0
C  C200  1  0.27708816  0.86086971  0.77081372  1  -0.015196  0  -0.172197  -0.166347  0  3.919354  0
C  C201  1  0.22291324  0.13913288  0.27081754  1  -0.01474  0  -0.172085  -0.166074  0  3.919392  0
C  C202  1  0.72291403  0.36086875  0.72918196  1  -0.015083  0  -0.172085  -0.166072  0  3.919418  0
C  C203  1  0.77709427  0.63912733  0.22918749  1  -0.015047  0  -0.172184  -0.166272  0  3.919525  0
C  C204  1  0.32669615  0.80097251  0.71110107  1  -0.013176  0  -0.086075  -0.183485  0  3.776136  0
C  C205  1  0.17329625  0.19902494  0.21110565  1  -0.013351  0  -0.086128  -0.183558  0  3.776633  0
C  C206  1  0.67329514  0.30097314  0.78889345  1  -0.013322  0  -0.086154  -0.183573  0  3.776654  0
C  C207  1  0.82669644  0.69902595  0.28890054  1  -0.013136  0  -0.08611  -0.183543  0  3.776468  0
C  C208  1  0.44607693  0.82729425  0.70745739  1  0.057801  0  0.000772  0.209806  0  3.664973  0
C  C209  1  0.05392718  0.17270461  0.20746280  1  0.057514  0  0.000814  0.209862  0  3.665225  0
C  C210  1  0.55392605  0.32729560  0.79253717  1  0.057674  0  0.000792  0.209778  0  3.6651  0
C  C211  1  0.94607019  0.67271274  0.29254442  1  0.057946  0  0.000707  0.209726  0  3.665016  0
C  C212  1  0.55301893  0.95643213  0.76919969  1  1.58308  0  0.23862  0.658209  0  4.071932  0
C  C213  1  0.94697744  0.04356122  0.26919634  1  1.583086  0  0.238591  0.658327  0  4.072136  0
C  C214  1  0.44698326  0.45643544  0.73079880  1  1.583221  0  0.238565  0.658297  0  4.071825  0
C  C215  1  0.05302695  0.54356775  0.23080641  1  1.583083  0  0.238688  0.658455  0  4.071687  0
C  C216  1  0.30972323  0.69463985  0.71807267  1  1.550914  0  0.238247  0.687081  0  4.07877  0
C  C217  1  0.19027302  0.30536544  0.21807046  1  1.55029  0  0.23829  0.687117  0  4.078434  0
C  C218  1  0.69027039  0.19463264  0.78192380  1  1.550342  0  0.238295  0.687123  0  4.078504  0
C  C219  1  0.80970720  0.80536359  0.28192632  1  1.551064  0  0.238198  0.687099  0  4.078871  0
C  C220  1  0.41340859  0.00511136  0.68330261  1  -0.045003  0  -0.24201  -0.393241  0  3.895029  0
C  C221  1  0.08658944  0.99488672  0.18330819  1  -0.04431  0  -0.241987  -0.393158  0  3.895072  0
C  C222  1  0.58658738  0.50511601  0.81669143  1  -0.043671  0  -0.241937  -0.392966  0  3.895008  0
C  C223  1  0.91342352  0.49489169  0.31670541  1  -0.045597  0  -0.241949  -0.39326  0  3.89487  0
C  C224  1  0.51153756  0.76020258  0.75386257  1  -0.051039  0  -0.248609  -0.432106  0  3.882994  0
C  C225  1  0.98846904  0.23979926  0.25387007  1  -0.050789  0  -0.248519  -0.431946  0  3.882749  0
C  C226  1  0.48846620  0.26019384  0.74613348  1  -0.050904  0  -0.248612  -0.432083  0  3.882961  0
C  C227  1  0.01152054  0.73980939  0.24612820  1  -0.051051  0  -0.248534  -0.431912  0  3.882896  0
C  C228  1  0.48850394  0.82170962  0.63134225  1  -0.050622  0  -0.245654  -0.418805  0  3.896521  0
C  C229  1  0.01150062  0.17828404  0.13134992  1  -0.050583  0  -0.24578  -0.419095  0  3.896533  0
C  C230  1  0.51149825  0.32171546  0.86865070  1  -0.051019  0  -0.245781  -0.419057  0  3.896372  0
C  C231  1  0.98851312  0.67830519  0.36865411  1  -0.051715  0  -0.245729  -0.418888  0  3.896317  0
C  C232  1  0.56835585  0.77060710  0.01663891  1  -0.046001  0  -0.010828  -0.033374  0  3.952186  0
C  C233  1  0.93164280  0.22939192  0.51663844  1  -0.047394  0  -0.010803  -0.033201  0  3.952229  0
C  C234  1  0.43165321  0.27061682  0.48336473  1  -0.046366  0  -0.010785  -0.033163  0  3.952376  0
C  C235  1  0.06835083  0.72938070  0.98336182  1  -0.046506  0  -0.010846  -0.032976  0  3.952065  0
C  C236  1  0.51986288  0.75745752  0.95044425  1  -0.089235  0  -0.086425  -0.110378  0  3.975495  0
C  C237  1  0.98011995  0.24254488  0.45044485  1  -0.088012  0  -0.086434  -0.11038  0  3.975449  0
C  C238  1  0.48012529  0.25746030  0.54955872  1  -0.088164  0  -0.086408  -0.110491  0  3.975829  0
C  C239  1  0.01986962  0.74252886  0.04955395  1  -0.089035  0  -0.086328  -0.110468  0  3.975412  0
C  C240  1  0.45668645  0.67859106  0.93881151  1  -0.001234  0  -0.078501  -0.084341  0  3.961774  0
C  C241  1  0.04329525  0.32141770  0.43880494  1  -0.001551  0  -0.078387  -0.084349  0  3.96197  0
C  C242  1  0.54329237  0.17858535  0.56119613  1  -0.001803  0  -0.078396  -0.084239  0  3.962189  0
C  C243  1  0.95669511  0.82140029  0.06119666  1  -0.001069  0  -0.078554  -0.084447  0  3.961703  0
C  C244  1  0.44148020  0.61163091  0.99318685  1  -0.044387  0  -0.01216  -0.047892  0  3.952681  0
C  C245  1  0.05850273  0.38837090  0.49317768  1  -0.044142  0  -0.0122  -0.047975  0  3.952663  0
C  C246  1  0.55850330  0.11163358  0.50682654  1  -0.043449  0  -0.012117  -0.047862  0  3.952782  0
C  C247  1  0.94147203  0.88835262  0.00682403  1  -0.043922  0  -0.012112  -0.047779  0  3.952322  0
C  C248  1  0.48874646  0.62599678  0.05973207  1  -0.022451  0  -0.080563  -0.088489  0  3.971957  0
C  C249  1  0.01124528  0.37400450  0.55973141  1  -0.022388  0  -0.080547  -0.088445  0  3.971756  0
C  C250  1  0.51125481  0.12600424  0.44027134  1  -0.023154  0  -0.080722  -0.088804  0  3.972178  0
C  C251  1  0.98873276  0.87398320  0.94027335  1  -0.0228  0  -0.080862  -0.089029  0  3.972063  0
C  C252  1  0.55171558  0.70484190  0.07148468  1  -0.042198  0  -0.079716  -0.088087  0  3.954773  0
C  C253  1  0.94828820  0.29515870  0.57148267  1  -0.041896  0  -0.079808  -0.088295  0  3.954977  0
C  C254  1  0.44830206  0.20485075  0.42851460  1  -0.041805  0  -0.079812  -0.088148  0  3.95464  0
C  C255  1  0.05169139  0.79513808  0.92851503  1  -0.042021  0  -0.079795  -0.088147  0  3.954754  0
C  C256  1  0.63713899  0.85522512  0.02850713  1  1.6063  0  0.24905  0.685244  0  4.110894  0
C  C257  1  0.86285647  0.14477606  0.52850458  1  1.606774  0  0.249011  0.685076  0  4.110649  0
C  C258  1  0.36286461  0.35522557  0.47149719  1  1.606754  0  0.249077  0.685241  0  4.110723  0
C  C259  1  0.13715118  0.64477831  0.97148809  1  1.606026  0  0.248913  0.684703  0  4.111045  0
C  C260  1  0.37313350  0.52673707  0.98085780  1  1.581744  0  0.238167  0.661795  0  4.152622  0
C  C261  1  0.12686275  0.47325973  0.48085923  1  1.581629  0  0.238129  0.661773  0  4.152304  0
C  C262  1  0.62685935  0.02674404  0.51914746  1  1.581178  0  0.237832  0.661384  0  4.152711  0
C  C263  1  0.87312370  0.97324860  0.01913835  1  1.58168  0  0.23811  0.661667  0  4.152377  0
O  O264  1  0.83932678  0.03010255  0.80498654  1  -1.222445  0  -0.439984  -0.774864  0  2.430289  0
O  O265  1  0.66066626  0.96990370  0.30498974  1  -1.222233  0  -0.440013  -0.774916  0  2.430458  0
O  O266  1  0.16066217  0.53009761  0.69501660  1  -1.222103  0  -0.440103  -0.775128  0  2.430701  0
O  O267  1  0.33933266  0.46989766  0.19501902  1  -1.222173  0  -0.440097  -0.775167  0  2.430691  0
O  O268  1  0.94438943  0.04747657  0.71291950  1  -1.153491  0  -0.369768  -0.614915  0  2.190569  0
O  O269  1  0.55560338  0.95253724  0.21292030  1  -1.153458  0  -0.36978  -0.615  0  2.190292  0
O  O270  1  0.05561121  0.54747260  0.78708899  1  -1.153465  0  -0.369879  -0.615074  0  2.190405  0
O  O271  1  0.44439320  0.45253928  0.28708737  1  -1.153259  0  -0.369897  -0.615135  0  2.190278  0
O  O272  1  0.13702983  0.39439531  0.89709734  1  -1.194229  0  -0.339762  -0.617008  0  2.249245  0
O  O273  1  0.36294744  0.60559911  0.39710258  1  -1.194462  0  -0.339892  -0.616982  0  2.249362  0
O  O274  1  0.86295522  0.89439650  0.60289733  1  -1.194536  0  -0.339938  -0.617044  0  2.249423  0
O  O275  1  0.63704525  0.10560419  0.10289653  1  -1.194508  0  -0.339952  -0.617122  0  2.249216  0
O  O276  1  0.19580868  0.36064918  0.79060485  1  -1.20096  0  -0.367148  -0.650615  0  2.337569  0
O  O277  1  0.30419338  0.63935489  0.29060924  1  -1.201197  0  -0.367178  -0.650612  0  2.337606  0
O  O278  1  0.80420365  0.86065139  0.70939296  1  -1.201234  0  -0.367082  -0.650472  0  2.337831  0
O  O279  1  0.69580711  0.13934818  0.20938993  1  -1.201239  0  -0.367123  -0.650568  0  2.337681  0
O  O280  1  0.62627888  0.97399104  0.72567011  1  -1.224097  0  -0.418548  -0.715018  0  2.427253  0
O  O281  1  0.87372165  0.02599081  0.22566693  1  -1.223787  0  -0.41858  -0.715093  0  2.427435  0
O  O282  1  0.37371941  0.47399589  0.77432735  1  -1.2243  0  -0.4185  -0.714983  0  2.427087  0
O  O283  1  0.12628352  0.52600885  0.27433632  1  -1.223935  0  -0.418556  -0.715152  0  2.427135  0
O  O284  1  0.56644866  0.95690850  0.83645819  1  -1.205738  0  -0.403464  -0.679934  0  2.303298  0
O  O285  1  0.93354108  0.04308433  0.33645541  1  -1.206203  0  -0.403478  -0.68002  0  2.303215  0
O  O286  1  0.43356678  0.45692015  0.66353817  1  -1.205798  0  -0.403377  -0.679973  0  2.302767  0
O  O287  1  0.06645786  0.54309067  0.16354521  1  -1.206222  0  -0.40352  -0.680107  0  2.30283  0
O  O288  1  0.32556311  0.64575530  0.66165411  1  -1.216278  0  -0.407657  -0.707717  0  2.340824  0
O  O289  1  0.17443582  0.35424982  0.16164936  1  -1.215651  0  -0.407732  -0.707732  0  2.340678  0
O  O290  1  0.67441649  0.14574186  0.83834388  1  -1.215679  0  -0.40786  -0.707963  0  2.340587  0
O  O291  1  0.82555375  0.85425027  0.33834644  1  -1.216301  0  -0.407749  -0.707777  0  2.340802  0
O  O292  1  0.28210566  0.66012978  0.77769625  1  -1.207687  0  -0.393066  -0.666553  0  2.306911  0
O  O293  1  0.21789180  0.33986714  0.27769827  1  -1.207724  0  -0.39299  -0.666556  0  2.306557  0
O  O294  1  0.71790121  0.16013449  0.72230337  1  -1.207863  0  -0.392915  -0.666413  0  2.307005  0
O  O295  1  0.78208141  0.83986868  0.22230655  1  -1.207907  0  -0.392878  -0.666514  0  2.307329  0
O  O296  1  0.65885488  0.87739696  0.09218444  1  -1.189265  0  -0.400765  -0.663408  0  2.311394  0
O  O297  1  0.84114722  0.12260228  0.59218724  1  -1.189193  0  -0.400695  -0.663299  0  2.311081  0
O  O298  1  0.34114248  0.37740149  0.40782045  1  -1.189712  0  -0.400777  -0.663515  0  2.311374  0
O  O299  1  0.15888382  0.62262567  0.90780805  1  -1.189408  0  -0.400708  -0.663197  0  2.311523  0
O  O300  1  0.67022780  0.89897143  0.97359460  1  -1.209662  0  -0.415178  -0.690934  0  2.330783  0
O  O301  1  0.82976346  0.10102891  0.47359380  1  -1.209786  0  -0.415226  -0.690941  0  2.330697  0
O  O302  1  0.32977283  0.39897201  0.52640966  1  -1.209773  0  -0.41522  -0.690931  0  2.330522  0
O  O303  1  0.17024716  0.60101851  0.02639412  1  -1.209372  0  -0.415117  -0.690742  0  2.33073  0
O  O304  1  0.35034004  0.47455854  0.03456361  1  -1.21361  0  -0.422647  -0.707908  0  2.3002  0
O  O305  1  0.14967056  0.52543627  0.53456547  1  -1.213645  0  -0.422672  -0.707968  0  2.299948  0
O  O306  1  0.64965577  0.97456362  0.46544516  1  -1.213432  0  -0.422288  -0.707611  0  2.299991  0
O  O307  1  0.85033320  0.02542390  0.96543234  1  -1.213612  0  -0.422457  -0.707698  0  2.299733  0
O  O308  1  0.34156027  0.50999195  0.91817464  1  -1.199094  0  -0.40468  -0.678689  0  2.383329  0
O  O309  1  0.15843792  0.48999827  0.41817494  1  -1.199279  0  -0.404618  -0.678628  0  2.383329  0
O  O310  1  0.65843570  0.00999909  0.58183326  1  -1.199088  0  -0.404686  -0.678652  0  2.383378  0
O  O311  1  0.84156100  0.99000296  0.08182640  1  -1.199056  0  -0.404704  -0.678701  0  2.383272  0
O  O312  1  0.77325174  0.85296008  0.84869899  1  -1.268333  0  -0.624858  -0.852729  0  2.073986  0
O  O313  1  0.72674416  0.14703990  0.34869908  1  -1.268395  0  -0.624858  -0.852619  0  2.073961  0
O  O314  1  0.22674110  0.35295463  0.65129401  1  -1.268386  0  -0.624869  -0.852651  0  2.073914  0
O  O315  1  0.27326958  0.64703412  0.15129424  1  -1.268443  0  -0.62474  -0.852263  0  2.074382  0
O  O316  1  0.61348187  0.09515506  0.96458617  1  -1.296537  0  -0.648635  -0.863085  0  2.057922  0
O  O317  1  0.88651178  0.90483672  0.46459130  1  -1.296248  0  -0.648608  -0.863351  0  2.057434  0
O  O318  1  0.38650942  0.59515464  0.53541015  1  -1.296556  0  -0.648608  -0.863308  0  2.057381  0
O  O319  1  0.11349883  0.40483875  0.03540671  1  -1.296321  0  -0.648497  -0.863238  0  2.057587  0
