# generated using pymatgen
data_CdH6C8I2(N2Cl)2
_symmetry_space_group_name_H-M   'P 1'
_cell_length_a   4.12386123
_cell_length_b   10.53005102
_cell_length_c   17.02329146
_cell_angle_alpha   90.00001486
_cell_angle_beta   91.99993437
_cell_angle_gamma   90.00003049
_symmetry_Int_Tables_number   1
_chemical_formula_structural   CdH6C8I2(N2Cl)2
_chemical_formula_sum   'Cd2 H12 C16 I4 N8 Cl4'
_cell_volume   738.77710678
_cell_formula_units_Z   2
loop_
 _symmetry_equiv_pos_site_id
 _symmetry_equiv_pos_as_xyz
  1  'x, y, z'
loop_
 _atom_site_type_symbol
 _atom_site_label
 _atom_site_symmetry_multiplicity
 _atom_site_fract_x
 _atom_site_fract_y
 _atom_site_fract_z
 _atom_site_occupancy
 _atom_site_hle17_bader_spin_density
 _atom_site_hle17_ddec_charge
 _atom_site_hle17_ddec_spin_density
 _atom_site_hle17_ddec_sum_bond_order
 _atom_site_hle17_magmom
 _atom_site_hse06_10hf_bader_spin_density
 _atom_site_hse06_10hf_ddec_charge
 _atom_site_hse06_10hf_ddec_spin_density
 _atom_site_hse06_10hf_ddec_sum_bond_order
 _atom_site_hse06_10hf_magmom
 _atom_site_hse06_bader_spin_density
 _atom_site_hse06_ddec_charge
 _atom_site_hse06_ddec_spin_density
 _atom_site_hse06_ddec_sum_bond_order
 _atom_site_hse06_magmom
 _atom_site_pbe_bader_spin_density
 _atom_site_pbe_cm5_charge
 _atom_site_pbe_ddec_charge
 _atom_site_pbe_ddec_spin_density
 _atom_site_pbe_ddec_sum_bond_order
 _atom_site_pbe_magmom
Cd  Cd0  1  0.50000192  0.99999912  0.50000046  1  0  0.712314  0  2.127977  0  0  0.566941  0  2.552193  0  0  0.615673  0  2.521304  0  0  0.462605  0.533412  0  2.57245  0
Cd  Cd1  1  0.49999997  0.50000072  0.99999969  1  0  0.712354  0  2.127935  0  0  0.566983  0  2.552138  0  0  0.615717  0  2.521248  0  0  0.462628  0.533456  0  2.572399  0
H  H2  1  0.35318343  0.30478785  0.48628830  1  0  0.094242  0  0.98168  0  0  0.093265  0  1.06095  0  0  0.097542  0  1.057179  0  0  0.095368  0.089954  0  1.064206  0
H  H3  1  0.64681148  0.80478628  0.01370852  1  0  0.094251  0  0.98153  0  0  0.093249  0  1.060864  0  0  0.097526  0  1.057094  0  0  0.095345  0.089937  0  1.064125  0
H  H4  1  0.64680985  0.69521334  0.51370896  1  0  0.094247  0  0.981587  0  0  0.09327  0  1.060872  0  0  0.097548  0  1.057101  0  0  0.095346  0.089957  0  1.064132  0
H  H5  1  0.35319881  0.19521206  0.98629122  1  0  0.094283  0  0.981538  0  0  0.093277  0  1.060871  0  0  0.097554  0  1.057101  0  0  0.095364  0.089965  0  1.064132  0
H  H6  1  0.58217199  0.05293624  0.30730142  1  0  0.093283  0  0.979849  0  0  0.088555  0  1.065224  0  0  0.092838  0  1.06097  0  0  0.102581  0.085245  0  1.068558  0
H  H7  1  0.41783711  0.55294042  0.19270136  1  0  0.093268  0  0.979981  0  0  0.08852  0  1.065363  0  0  0.092801  0  1.061113  0  0  0.102538  0.085212  0  1.068697  0
H  H8  1  0.41783590  0.94706020  0.69270241  1  0  0.093239  0  0.979973  0  0  0.088501  0  1.065349  0  0  0.092781  0  1.061099  0  0  0.102531  0.085192  0  1.06868  0
H  H9  1  0.58216835  0.44706361  0.80730128  1  0  0.093269  0  0.979929  0  0  0.088537  0  1.065314  0  0  0.09282  0  1.061061  0  0  0.102572  0.085229  0  1.068648  0
H  H10  1  0.55397152  0.23437503  0.20932304  1  0  0.082339  0  0.974003  0  0  0.083327  0  1.049558  0  0  0.087029  0  1.046445  0  0  0.095421  0.080324  0  1.052527  0
H  H11  1  0.44602086  0.73438497  0.29067610  1  0  0.082282  0  0.974022  0  0  0.083287  0  1.049578  0  0  0.086985  0  1.046463  0  0  0.095402  0.080285  0  1.052542  0
H  H12  1  0.44601936  0.76561476  0.79067713  1  0  0.08228  0  0.973964  0  0  0.083274  0  1.049533  0  0  0.086973  0  1.04642  0  0  0.095408  0.080273  0  1.052499  0
H  H13  1  0.55397729  0.26562287  0.70932354  1  0  0.082311  0  0.973949  0  0  0.083305  0  1.049506  0  0  0.087003  0  1.046392  0  0  0.095419  0.080302  0  1.052471  0
C  C14  1  0.36679750  0.38545695  0.36790088  1  0  0.23841  0  3.806554  0  0  0.237809  0  4.082913  0  0  0.24406  0  4.10043  0  0  0.141387  0.233006  0  4.071683  0
C  C15  1  0.63319751  0.88546018  0.13209184  1  0  0.238312  0  3.806462  0  0  0.23776  0  4.082772  0  0  0.243996  0  4.100307  0  0  0.141318  0.232955  0  4.071543  0
C  C16  1  0.63318849  0.61454044  0.63209455  1  0  0.238391  0  3.806508  0  0  0.237787  0  4.082874  0  0  0.244036  0  4.100391  0  0  0.141339  0.232975  0  4.071652  0
C  C17  1  0.36680791  0.11454385  0.86790493  1  0  0.238407  0  3.806601  0  0  0.237826  0  4.082926  0  0  0.244069  0  4.100451  0  0  0.141358  0.233021  0  4.071691  0
C  C18  1  0.39599762  0.28865781  0.42419024  1  0  0.017136  0  3.683705  0  0  -0.01897  0  3.938191  0  0  -0.017122  0  3.955934  0  0  0.03714  -0.020056  0  3.926472  0
C  C19  1  0.60400458  0.78865627  0.07581193  1  0  0.017171  0  3.683874  0  0  -0.01896  0  3.938311  0  0  -0.017111  0  3.956063  0  0  0.037209  -0.020046  0  3.926595  0
C  C20  1  0.60399571  0.71134243  0.57581289  1  0  0.01718  0  3.683812  0  0  -0.018922  0  3.938226  0  0  -0.017078  0  3.955973  0  0  0.037245  -0.020004  0  3.926503  0
C  C21  1  0.39600328  0.21134302  0.92418779  1  0  0.017117  0  3.683811  0  0  -0.018963  0  3.938263  0  0  -0.017116  0  3.956011  0  0  0.037217  -0.02005  0  3.926544  0
C  C22  1  0.52540331  0.14986835  0.32523192  1  0  0.069053  0  3.649248  0  0  0.03879  0  3.902312  0  0  0.042218  0  3.919287  0  0  0.04147  0.036554  0  3.890437  0
C  C23  1  0.47460110  0.64987158  0.17477201  1  0  0.06903  0  3.649387  0  0  0.038699  0  3.902557  0  0  0.04213  0  3.919528  0  0  0.041476  0.036461  0  3.890685  0
C  C24  1  0.47459973  0.85012999  0.67477187  1  0  0.069083  0  3.64935  0  0  0.038742  0  3.902525  0  0  0.042174  0  3.919497  0  0  0.041473  0.036504  0  3.890649  0
C  C25  1  0.52540922  0.35013151  0.82523126  1  0  0.069079  0  3.649159  0  0  0.038811  0  3.902203  0  0  0.042242  0  3.919172  0  0  0.041496  0.036571  0  3.890331  0
C  C26  1  0.50556603  0.24951362  0.27125287  1  0  0.096653  0  3.667934  0  0  0.076053  0  3.92368  0  0  0.077506  0  3.940013  0  0  0.049202  0.074704  0  3.913403  0
C  C27  1  0.49443121  0.74952258  0.22874396  1  0  0.096864  0  3.668152  0  0  0.076246  0  3.923913  0  0  0.077709  0  3.94024  0  0  0.049346  0.074902  0  3.913623  0
C  C28  1  0.49442969  0.75047617  0.72874499  1  0  0.096915  0  3.668078  0  0  0.07632  0  3.923827  0  0  0.077779  0  3.940158  0  0  0.049384  0.074972  0  3.913543  0
C  C29  1  0.50556938  0.25048240  0.77125688  1  0  0.096763  0  3.668009  0  0  0.076167  0  3.923754  0  0  0.077627  0  3.940083  0  0  0.049275  0.07482  0  3.913468  0
I  I30  1  0.99664689  0.86564556  0.40742013  1  0  -0.420026  0  1.260898  0  0  -0.371325  0  1.614188  0  0  -0.393091  0  1.593311  0  0  -0.197277  -0.356483  0  1.628503  0
I  I31  1  0.00335785  0.36564972  0.09258148  1  0  -0.420084  0  1.260931  0  0  -0.371366  0  1.614189  0  0  -0.393132  0  1.593312  0  0  -0.197295  -0.356515  0  1.628503  0
I  I32  1  0.00336097  0.13435182  0.59257959  1  0  -0.420059  0  1.260924  0  0  -0.371363  0  1.614216  0  0  -0.393129  0  1.593338  0  0  -0.197297  -0.356519  0  1.62853  0
I  I33  1  0.99664759  0.63435526  0.90741939  1  0  -0.420048  0  1.260916  0  0  -0.371329  0  1.614175  0  0  -0.393097  0  1.593299  0  0  -0.197271  -0.356478  0  1.628491  0
N  N34  1  0.42535838  0.36789861  0.29262092  1  0  -0.283757  0  3.063434  0  0  -0.253617  0  3.323183  0  0  -0.261382  0  3.337161  0  0  -0.295891  -0.248332  0  3.314489  0
N  N35  1  0.57463421  0.86790283  0.20737765  1  0  -0.283773  0  3.063298  0  0  -0.253637  0  3.323024  0  0  -0.261399  0  3.337004  0  0  -0.295868  -0.24835  0  3.314331  0
N  N36  1  0.57462764  0.63209783  0.70737804  1  0  -0.283881  0  3.063551  0  0  -0.253738  0  3.323306  0  0  -0.261504  0  3.337284  0  0  -0.295978  -0.24845  0  3.314613  0
N  N37  1  0.42536880  0.13210121  0.79262203  1  0  -0.283833  0  3.06348  0  0  -0.253704  0  3.323215  0  0  -0.261467  0  3.337193  0  0  -0.295939  -0.248418  0  3.314513  0
N  N38  1  0.47345503  0.17125002  0.40165228  1  0  -0.245343  0  3.280205  0  0  -0.170633  0  3.529251  0  0  -0.187345  0  3.553294  0  0  -0.308209  -0.158998  0  3.510908  0
N  N39  1  0.52654937  0.67125513  0.09834578  1  0  -0.245473  0  3.280237  0  0  -0.170653  0  3.529217  0  0  -0.187363  0  3.553259  0  0  -0.30833  -0.159017  0  3.510876  0
N  N40  1  0.52654555  0.82874737  0.59834797  1  0  -0.245491  0  3.280214  0  0  -0.170691  0  3.529213  0  0  -0.187401  0  3.553254  0  0  -0.308303  -0.159055  0  3.510864  0
N  N41  1  0.47346092  0.32874701  0.90165455  1  0  -0.245407  0  3.280132  0  0  -0.170718  0  3.52922  0  0  -0.18743  0  3.553261  0  0  -0.308316  -0.159084  0  3.510879  0
Cl  Cl42  1  0.24249087  0.53517511  0.39659927  1  0  -0.098116  0  1.371487  0  0  -0.086705  0  1.611566  0  0  -0.090072  0  1.605472  0  0  0.007506  -0.08261  0  1.614345  0
Cl  Cl43  1  0.75749872  0.03517846  0.10339395  1  0  -0.09805  0  1.371513  0  0  -0.08665  0  1.611565  0  0  -0.090011  0  1.605474  0  0  0.007546  -0.082554  0  1.614346  0
Cl  Cl44  1  0.75749512  0.46482227  0.60339499  1  0  -0.09808  0  1.371418  0  0  -0.086666  0  1.611488  0  0  -0.090032  0  1.605392  0  0  0.007542  -0.08257  0  1.61427  0
Cl  Cl45  1  0.24249456  0.96482368  0.89660330  1  0  -0.098103  0  1.371492  0  0  -0.08669  0  1.611542  0  0  -0.090054  0  1.605447  0  0  0.007516  -0.0826  0  1.61432  0
