# generated using pymatgen
data_CdH30C22(IN2)2
_symmetry_space_group_name_H-M   'P 1'
_cell_length_a   6.01945232
_cell_length_b   12.09307729
_cell_length_c   17.10961588
_cell_angle_alpha   93.46216573
_cell_angle_beta   90.00587150
_cell_angle_gamma   104.40774592
_symmetry_Int_Tables_number   1
_chemical_formula_structural   CdH30C22(IN2)2
_chemical_formula_sum   'Cd2 H60 C44 I4 N8'
_cell_volume   1203.95253039
_cell_formula_units_Z   2
loop_
 _symmetry_equiv_pos_site_id
 _symmetry_equiv_pos_as_xyz
  1  'x, y, z'
loop_
 _atom_site_type_symbol
 _atom_site_label
 _atom_site_symmetry_multiplicity
 _atom_site_fract_x
 _atom_site_fract_y
 _atom_site_fract_z
 _atom_site_occupancy
 _atom_site_hle17_bader_spin_density
 _atom_site_hle17_ddec_charge
 _atom_site_hle17_ddec_spin_density
 _atom_site_hle17_ddec_sum_bond_order
 _atom_site_hle17_magmom
 _atom_site_hse06_10hf_bader_spin_density
 _atom_site_hse06_10hf_ddec_charge
 _atom_site_hse06_10hf_ddec_spin_density
 _atom_site_hse06_10hf_ddec_sum_bond_order
 _atom_site_hse06_10hf_magmom
 _atom_site_hse06_bader_spin_density
 _atom_site_hse06_ddec_charge
 _atom_site_hse06_ddec_spin_density
 _atom_site_hse06_ddec_sum_bond_order
 _atom_site_hse06_magmom
 _atom_site_pbe_bader_spin_density
 _atom_site_pbe_cm5_charge
 _atom_site_pbe_ddec_charge
 _atom_site_pbe_ddec_spin_density
 _atom_site_pbe_ddec_sum_bond_order
 _atom_site_pbe_magmom
Cd  Cd0  1  0.90733764  0.00001939  0.74999546  1  0  0.774906  0  2.085806  0  0  0.597545  0  2.570901  0  0  0.644835  0  2.53142  0  0  0.550696  0.565238  0  2.597192  0
Cd  Cd1  1  0.09265727  0.99996880  0.25000250  1  0  0.775011  0  2.085559  0  0  0.59767  0  2.570624  0  0  0.644962  0  2.531142  0  0  0.550736  0.565358  0  2.596921  0
H  H2  1  0.73212066  0.05763233  0.91076027  1  0  0.275812  0  0.901924  0  0  0.256671  0  0.971866  0  0  0.263646  0  0.966396  0  0  0.312546  0.251629  0  0.976039  0
H  H3  1  0.67473290  0.94225447  0.58925828  1  0  0.27406  0  0.905013  0  0  0.25484  0  0.974848  0  0  0.26189  0  0.969338  0  0  0.311662  0.249793  0  0.978993  0
H  H4  1  0.26787229  0.94236524  0.08923455  1  0  0.27591  0  0.901822  0  0  0.256742  0  0.971796  0  0  0.263721  0  0.966317  0  0  0.312563  0.2517  0  0.975969  0
H  H5  1  0.32523695  0.05775006  0.41075142  1  0  0.274281  0  0.904888  0  0  0.254908  0  0.974809  0  0  0.261958  0  0.969297  0  0  0.311729  0.249867  0  0.978946  0
H  H6  1  0.78906859  0.36730661  0.71527526  1  0  0.112712  0  0.940186  0  0  0.135886  0  0.996595  0  0  0.137655  0  0.995902  0  0  0.093151  0.134698  0  0.996928  0
H  H7  1  0.42221714  0.63249669  0.78464764  1  0  0.112572  0  0.940709  0  0  0.135855  0  0.996873  0  0  0.137605  0  0.996194  0  0  0.093294  0.13462  0  0.997303  0
H  H8  1  0.21095796  0.63268838  0.28471712  1  0  0.112731  0  0.940245  0  0  0.135878  0  0.996677  0  0  0.137641  0  0.995991  0  0  0.093137  0.134694  0  0.997008  0
H  H9  1  0.57779147  0.36748900  0.21535841  1  0  0.112588  0  0.940689  0  0  0.135931  0  0.996806  0  0  0.137681  0  0.996125  0  0  0.093335  0.134696  0  0.997237  0
H  H10  1  0.55624053  0.25944618  0.67374694  1  0  0.116732  0  0.970708  0  0  0.133877  0  1.037211  0  0  0.136084  0  1.036533  0  0  0.082725  0.132294  0  1.037682  0
H  H11  1  0.29687994  0.74025457  0.82611540  1  0  0.117024  0  0.970078  0  0  0.134185  0  1.036436  0  0  0.136368  0  1.035785  0  0  0.082941  0.132609  0  1.036929  0
H  H12  1  0.44376367  0.74055395  0.32624739  1  0  0.116776  0  0.970577  0  0  0.133896  0  1.037124  0  0  0.136109  0  1.036436  0  0  0.082731  0.132315  0  1.037597  0
H  H13  1  0.70314370  0.25973460  0.17389780  1  0  0.117008  0  0.970062  0  0  0.134185  0  1.036419  0  0  0.136365  0  1.03577  0  0  0.082978  0.132608  0  1.036914  0
H  H14  1  0.83543256  0.23494553  0.67712484  1  0  0.111399  0  0.975882  0  0  0.128693  0  1.043569  0  0  0.130652  0  1.043042  0  0  0.082995  0.127205  0  1.044053  0
H  H15  1  0.60066312  0.76492186  0.82289237  1  0  0.111208  0  0.975271  0  0  0.128455  0  1.043248  0  0  0.130385  0  1.042756  0  0  0.082968  0.127025  0  1.043654  0
H  H16  1  0.16456525  0.76504515  0.32286445  1  0  0.111254  0  0.976158  0  0  0.128556  0  1.043816  0  0  0.130504  0  1.043298  0  0  0.082928  0.127084  0  1.044288  0
H  H17  1  0.39935630  0.23506552  0.17711141  1  0  0.11115  0  0.975302  0  0  0.128436  0  1.043265  0  0  0.130367  0  1.042768  0  0  0.082988  0.127003  0  1.043672  0
H  H18  1  0.51642553  0.27065465  0.02358352  1  0  0.128205  0  0.949545  0  0  0.151228  0  1.002913  0  0  0.152384  0  1.004179  0  0  0.098721  0.150441  0  1.001962  0
H  H19  1  0.24600804  0.72952366  0.47634610  1  0  0.12761  0  0.949928  0  0  0.150427  0  1.00367  0  0  0.151586  0  1.004918  0  0  0.098525  0.149655  0  1.002697  0
H  H20  1  0.48358965  0.72935748  0.97641304  1  0  0.128287  0  0.949609  0  0  0.151262  0  1.003001  0  0  0.152417  0  1.004268  0  0  0.098727  0.150475  0  1.002052  0
H  H21  1  0.75395104  0.27048260  0.52366542  1  0  0.127519  0  0.950097  0  0  0.150364  0  1.00385  0  0  0.151524  0  1.0051  0  0  0.098489  0.149587  0  1.00288  0
H  H22  1  0.55432372  0.12960903  0.02519443  1  0  0.11343  0  0.964156  0  0  0.131994  0  1.02906  0  0  0.13428  0  1.027832  0  0  0.080617  0.130282  0  1.030067  0
H  H23  1  0.42502401  0.87051431  0.47486239  1  0  0.112875  0  0.963846  0  0  0.131414  0  1.029078  0  0  0.133686  0  1.027881  0  0  0.080507  0.129763  0  1.030004  0
H  H24  1  0.44570181  0.87040054  0.97480319  1  0  0.113454  0  0.964046  0  0  0.132006  0  1.028955  0  0  0.1343  0  1.027719  0  0  0.08063  0.130289  0  1.029965  0
H  H25  1  0.57492181  0.12949200  0.52515497  1  0  0.112736  0  0.963918  0  0  0.131351  0  1.029101  0  0  0.133629  0  1.027893  0  0  0.08046  0.129684  0  1.030039  0
H  H26  1  0.28815255  0.15163583  0.99430786  1  0  0.113929  0  0.993697  0  0  0.127415  0  1.067199  0  0  0.129848  0  1.066106  0  0  0.076602  0.125686  0  1.067982  0
H  H27  1  0.13689486  0.84855153  0.50568908  1  0  0.114036  0  0.9946  0  0  0.127899  0  1.067967  0  0  0.130346  0  1.066879  0  0  0.076919  0.126129  0  1.068791  0
H  H28  1  0.71186998  0.84836773  0.00568777  1  0  0.113969  0  0.993558  0  0  0.127407  0  1.067114  0  0  0.129837  0  1.066024  0  0  0.076595  0.12568  0  1.067896  0
H  H29  1  0.86305343  0.15145307  0.49432822  1  0  0.11381  0  0.994618  0  0  0.127736  0  1.067955  0  0  0.130178  0  1.066869  0  0  0.076832  0.125967  0  1.068776  0
H  H30  1  0.24553121  0.32759100  0.83725338  1  0  0.083877  0  0.941378  0  0  0.101878  0  0.998643  0  0  0.102789  0  0.998262  0  0  0.09521  0.101154  0  0.99898  0
H  H31  1  0.91817507  0.67247070  0.66271176  1  0  0.083414  0  0.940027  0  0  0.101358  0  0.997393  0  0  0.102221  0  0.996993  0  0  0.094931  0.10065  0  0.997771  0
H  H32  1  0.75450625  0.67241583  0.16272427  1  0  0.083985  0  0.94142  0  0  0.102025  0  0.998477  0  0  0.102943  0  0.998071  0  0  0.095277  0.101314  0  0.998826  0
H  H33  1  0.08180234  0.32753897  0.33729814  1  0  0.083397  0  0.940123  0  0  0.101453  0  0.997373  0  0  0.10232  0  0.996953  0  0  0.09508  0.10074  0  0.997764  0
H  H34  1  0.49676671  0.41422491  0.80251969  1  0  0.077744  0  0.93978  0  0  0.097971  0  0.996842  0  0  0.098686  0  0.996549  0  0  0.09614  0.097418  0  0.997055  0
H  H35  1  0.08264507  0.58576282  0.69752496  1  0  0.077349  0  0.940366  0  0  0.097694  0  0.997063  0  0  0.098328  0  0.996797  0  0  0.096054  0.097232  0  0.997153  0
H  H36  1  0.50329108  0.58577939  0.19746254  1  0  0.077944  0  0.939718  0  0  0.098075  0  0.996723  0  0  0.098761  0  0.996455  0  0  0.096242  0.097536  0  0.996941  0
H  H37  1  0.91732465  0.41423150  0.30248961  1  0  0.077325  0  0.940342  0  0  0.097716  0  0.99705  0  0  0.098347  0  0.996776  0  0  0.096129  0.097252  0  0.997141  0
H  H38  1  0.07763186  0.63238313  0.03089902  1  0  0.102411  0  0.976466  0  0  0.124216  0  1.040855  0  0  0.124435  0  1.042996  0  0  0.0886  0.123834  0  1.03966  0
H  H39  1  0.44506898  0.36740658  0.46900522  1  0  0.102317  0  0.977991  0  0  0.124271  0  1.04224  0  0  0.124434  0  1.04446  0  0  0.088626  0.12395  0  1.040946  0
H  H40  1  0.92240652  0.36760228  0.96907370  1  0  0.102375  0  0.976516  0  0  0.124259  0  1.040827  0  0  0.124484  0  1.042968  0  0  0.088551  0.123875  0  1.039639  0
H  H41  1  0.55489247  0.63259113  0.53100597  1  0  0.10217  0  0.978189  0  0  0.124143  0  1.042418  0  0  0.124304  0  1.044642  0  0  0.088595  0.123827  0  1.041118  0
H  H42  1  0.93578217  0.72873433  0.07833158  1  0  0.102502  0  0.98194  0  0  0.121752  0  1.043959  0  0  0.123156  0  1.044231  0  0  0.085741  0.120691  0  1.04383  0
H  H43  1  0.20654514  0.27105942  0.42172460  1  0  0.102949  0  0.981121  0  0  0.122017  0  1.043422  0  0  0.123409  0  1.043713  0  0  0.085555  0.120981  0  1.043268  0
H  H44  1  0.06428212  0.27125973  0.92165317  1  0  0.102609  0  0.982013  0  0  0.121806  0  1.044047  0  0  0.123237  0  1.044291  0  0  0.085731  0.120746  0  1.043917  0
H  H45  1  0.79341387  0.72894005  0.57829251  1  0  0.103041  0  0.980901  0  0  0.122036  0  1.043295  0  0  0.123433  0  1.043576  0  0  0.0855  0.121  0  1.04314  0
H  H46  1  0.96684677  0.72529216  0.97580517  1  0  0.09965  0  0.984154  0  0  0.120247  0  1.049675  0  0  0.121479  0  1.04983  0  0  0.075816  0.119265  0  1.049664  0
H  H47  1  0.24145413  0.27470485  0.52425540  1  0  0.099129  0  0.984339  0  0  0.119814  0  1.049888  0  0  0.121053  0  1.050004  0  0  0.075687  0.118842  0  1.049876  0
H  H48  1  0.03319137  0.27470273  0.02417611  1  0  0.099724  0  0.984099  0  0  0.120313  0  1.049635  0  0  0.121538  0  1.049795  0  0  0.075871  0.119336  0  1.04962  0
H  H49  1  0.75850577  0.72529971  0.47575780  1  0  0.099206  0  0.984156  0  0  0.119916  0  1.049625  0  0  0.121159  0  1.049735  0  0  0.075673  0.118943  0  1.049616  0
H  H50  1  0.83352755  0.47225484  0.83524698  1  0  0.094667  0  0.986765  0  0  0.115488  0  1.05005  0  0  0.116624  0  1.050065  0  0  0.085025  0.11464  0  1.050032  0
H  H51  1  0.36118466  0.52758721  0.66481437  1  0  0.094659  0  0.986954  0  0  0.115072  0  1.050612  0  0  0.116234  0  1.050612  0  0  0.084937  0.114198  0  1.050627  0
H  H52  1  0.16648701  0.52774607  0.16473804  1  0  0.094501  0  0.986983  0  0  0.115247  0  1.050324  0  0  0.116445  0  1.050279  0  0  0.084959  0.114372  0  1.050329  0
H  H53  1  0.63879275  0.47242246  0.33519553  1  0  0.094663  0  0.98697  0  0  0.115191  0  1.050504  0  0  0.116354  0  1.050505  0  0  0.084949  0.114316  0  1.05052  0
H  H54  1  0.02830304  0.54559659  0.90917129  1  0  0.106554  0  0.961722  0  0  0.129533  0  1.020305  0  0  0.130392  0  1.021419  0  0  0.090561  0.128762  0  1.019763  0
H  H55  1  0.48276104  0.45434606  0.59090783  1  0  0.106674  0  0.960739  0  0  0.129509  0  1.019564  0  0  0.130396  0  1.020634  0  0  0.090898  0.128698  0  1.019089  0
H  H56  1  0.97171848  0.45439830  0.09080998  1  0  0.106536  0  0.961579  0  0  0.129491  0  1.020215  0  0  0.130349  0  1.021333  0  0  0.090587  0.128702  0  1.01969  0
H  H57  1  0.51722054  0.54566533  0.40910272  1  0  0.106753  0  0.960611  0  0  0.129599  0  1.019429  0  0  0.130485  0  1.0205  0  0  0.090942  0.128785  0  1.018954  0
H  H58  1  0.86962048  0.62140708  0.85646475  1  0  0.098871  0  0.954817  0  0  0.118779  0  1.020706  0  0  0.119927  0  1.020629  0  0  0.084846  0.117881  0  1.02079  0
H  H59  1  0.24823066  0.37845768  0.64350636  1  0  0.099095  0  0.954727  0  0  0.118752  0  1.020818  0  0  0.119915  0  1.020731  0  0  0.084783  0.117875  0  1.020866  0
H  H60  1  0.13040897  0.37859039  0.14351721  1  0  0.098761  0  0.954854  0  0  0.118659  0  1.020769  0  0  0.119816  0  1.020688  0  0  0.084796  0.11776  0  1.020848  0
H  H61  1  0.75176048  0.62155286  0.35650592  1  0  0.099085  0  0.954576  0  0  0.118742  0  1.020694  0  0  0.119906  0  1.020607  0  0  0.08478  0.117865  0  1.020741  0
C  C62  1  0.71418686  0.27435602  0.70930725  1  0  -0.35145  0  3.727284  0  0  -0.426215  0  3.962194  0  0  -0.429902  0  3.968705  0  0  -0.242009  -0.423432  0  3.957597  0
C  C63  1  0.44013717  0.72545453  0.79063531  1  0  -0.350735  0  3.726443  0  0  -0.42575  0  3.961519  0  0  -0.429349  0  3.96801  0  0  -0.242248  -0.423055  0  3.956946  0
C  C64  1  0.28581766  0.72563812  0.29068627  1  0  -0.351282  0  3.727246  0  0  -0.426015  0  3.962157  0  0  -0.429689  0  3.968669  0  0  -0.241922  -0.423253  0  3.957541  0
C  C65  1  0.55988107  0.27453713  0.20936980  1  0  -0.350722  0  3.726491  0  0  -0.425919  0  3.961553  0  0  -0.429517  0  3.968047  0  0  -0.242417  -0.42322  0  3.956981  0
C  C66  1  0.66625964  0.22622582  0.78742845  1  0  0.222395  0  3.748305  0  0  0.211871  0  4.022386  0  0  0.222624  0  4.04168  0  0  0.095393  0.204924  0  4.009097  0
C  C67  1  0.44040228  0.77361802  0.71253183  1  0  0.220171  0  3.749406  0  0  0.210086  0  4.023111  0  0  0.220798  0  4.042471  0  0  0.094639  0.20315  0  4.009779  0
C  C68  1  0.33375860  0.77376917  0.21256393  1  0  0.222188  0  3.748354  0  0  0.211718  0  4.022407  0  0  0.222471  0  4.041698  0  0  0.095323  0.204771  0  4.009121  0
C  C69  1  0.55958898  0.22637283  0.28747852  1  0  0.220148  0  3.749509  0  0  0.210276  0  4.02299  0  0  0.220988  0  4.042356  0  0  0.094687  0.203339  0  4.00966  0
C  C70  1  0.54433647  0.26338013  0.85051577  1  0  -0.139105  0  3.692741  0  0  -0.127395  0  3.949463  0  0  -0.137758  0  3.974478  0  0  -0.033435  -0.120854  0  3.932775  0
C  C71  1  0.28120471  0.73653586  0.64945906  1  0  -0.139504  0  3.69298  0  0  -0.12798  0  3.950093  0  0  -0.138411  0  3.975004  0  0  -0.033716  -0.121382  0  3.933343  0
C  C72  1  0.45568311  0.73662085  0.14947743  1  0  -0.138981  0  3.692916  0  0  -0.127446  0  3.949589  0  0  -0.137823  0  3.974592  0  0  -0.033495  -0.120885  0  3.932914  0
C  C73  1  0.71877260  0.26346699  0.35055350  1  0  -0.139572  0  3.693136  0  0  -0.128242  0  3.950328  0  0  -0.138678  0  3.975226  0  0  -0.033737  -0.12164  0  3.933579  0
C  C74  1  0.55795134  0.19182621  0.91099014  1  0  0.237884  0  3.712711  0  0  0.225228  0  3.978961  0  0  0.236376  0  3.996298  0  0  0.103357  0.217975  0  3.967061  0
C  C75  1  0.36633183  0.80813055  0.58902376  1  0  0.239376  0  3.709883  0  0  0.225874  0  3.977404  0  0  0.237123  0  3.994615  0  0  0.104116  0.218621  0  3.965439  0
C  C76  1  0.44205999  0.80817821  0.08900670  1  0  0.237904  0  3.712678  0  0  0.225252  0  3.978845  0  0  0.2364  0  3.99619  0  0  0.103377  0.218004  0  3.96694  0
C  C77  1  0.63363715  0.19186893  0.41099509  1  0  0.239332  0  3.710192  0  0  0.225948  0  3.977503  0  0  0.237196  0  3.994718  0  0  0.104093  0.218699  0  3.965537  0
C  C78  1  0.47485360  0.18577797  0.99270121  1  0  -0.364713  0  3.725551  0  0  -0.439364  0  3.95951  0  0  -0.44337  0  3.966192  0  0  -0.246235  -0.436361  0  3.954754  0
C  C79  1  0.28938028  0.81432859  0.50730538  1  0  -0.363788  0  3.72551  0  0  -0.438424  0  3.959688  0  0  -0.442465  0  3.966393  0  0  -0.246476  -0.435425  0  3.954859  0
C  C80  1  0.52516190  0.81422815  0.00729453  1  0  -0.364904  0  3.72527  0  0  -0.439454  0  3.959232  0  0  -0.443467  0  3.965904  0  0  -0.246271  -0.436445  0  3.954475  0
C  C81  1  0.71057089  0.18567514  0.49270955  1  0  -0.363296  0  3.725639  0  0  -0.438092  0  3.959678  0  0  -0.442134  0  3.966386  0  0  -0.24632  -0.435074  0  3.95486  0
C  C82  1  0.42919468  0.36086400  0.85116575  1  0  -0.134767  0  3.747271  0  0  -0.18163  0  3.991055  0  0  -0.180411  0  4.003929  0  0  -0.152902  -0.182225  0  3.982177  0
C  C83  1  0.06846586  0.63908128  0.64884312  1  0  -0.134338  0  3.745347  0  0  -0.180842  0  3.988506  0  0  -0.179406  0  4.001123  0  0  -0.152664  -0.181571  0  3.979711  0
C  C84  1  0.57083701  0.63914459  0.14881781  1  0  -0.13519  0  3.74778  0  0  -0.181693  0  3.990936  0  0  -0.180422  0  4.003765  0  0  -0.153  -0.182358  0  3.982157  0
C  C85  1  0.93149972  0.36091471  0.35116684  1  0  -0.134012  0  3.745278  0  0  -0.180761  0  3.988559  0  0  -0.179302  0  4.001142  0  0  -0.152846  -0.181489  0  3.979764  0
C  C86  1  0.46275675  0.43401936  0.92780019  1  0  -0.022358  0  3.699379  0  0  -0.012897  0  3.943853  0  0  -0.014684  0  3.968252  0  0  -0.020185  -0.011442  0  3.927349  0
C  C87  1  0.02874945  0.56593066  0.57222720  1  0  -0.02229  0  3.699991  0  0  -0.012755  0  3.944258  0  0  -0.014622  0  3.968617  0  0  -0.020234  -0.011243  0  3.927712  0
C  C88  1  0.53726950  0.56598499  0.07218730  1  0  -0.02283  0  3.699818  0  0  -0.013441  0  3.944073  0  0  -0.015266  0  3.968499  0  0  -0.020426  -0.011969  0  3.927578  0
C  C89  1  0.97122249  0.43407472  0.42778195  1  0  -0.022634  0  3.699977  0  0  -0.012817  0  3.943993  0  0  -0.014691  0  3.968346  0  0  -0.020268  -0.011303  0  3.927446  0
C  C90  1  0.67172009  0.51650517  0.94274492  1  0  0.029883  0  3.720677  0  0  0.040633  0  3.970945  0  0  0.039905  0  3.995371  0  0  -0.021763  0.040937  0  3.954607  0
C  C91  1  0.15519152  0.48343051  0.55724069  1  0  0.029456  0  3.719263  0  0  0.040597  0  3.969237  0  0  0.039902  0  3.993645  0  0  -0.021778  0.040881  0  3.952911  0
C  C92  1  0.32830234  0.48349487  0.05723831  1  0  0.029867  0  3.71997  0  0  0.040688  0  3.970181  0  0  0.039967  0  3.994617  0  0  -0.021761  0.040995  0  3.953837  0
C  C93  1  0.84477710  0.51657489  0.44276963  1  0  0.029637  0  3.719775  0  0  0.040744  0  3.969518  0  0  0.040053  0  3.993928  0  0  -0.021691  0.041025  0  3.95319  0
C  C94  1  0.70860875  0.58252211  0.01469334  1  0  0.03345  0  3.729655  0  0  0.046154  0  3.976567  0  0  0.045708  0  4.00084  0  0  -0.021367  0.04629  0  3.960286  0
C  C95  1  0.12612281  0.41747158  0.48526619  1  0  0.032899  0  3.728946  0  0  0.044875  0  3.976824  0  0  0.044425  0  4.001066  0  0  -0.021718  0.044987  0  3.960583  0
C  C96  1  0.29142650  0.41747366  0.98529148  1  0  0.033345  0  3.729337  0  0  0.04591  0  3.976469  0  0  0.045465  0  4.000723  0  0  -0.021477  0.046032  0  3.960219  0
C  C97  1  0.87385300  0.58254154  0.51474735  1  0  0.032697  0  3.729364  0  0  0.044854  0  3.97711  0  0  0.044404  0  4.001352  0  0  -0.021747  0.044968  0  3.96087  0
C  C98  1  0.93198239  0.67153829  0.02617545  1  0  -0.329356  0  3.730175  0  0  -0.408178  0  3.9659  0  0  -0.410869  0  3.976954  0  0  -0.252162  -0.40585  0  3.958358  0
C  C99  1  0.26032596  0.32833794  0.47381386  1  0  -0.328174  0  3.73095  0  0  -0.406629  0  3.96637  0  0  -0.409313  0  3.977534  0  0  -0.251269  -0.404358  0  3.958728  0
C  C100  1  0.06805651  0.32845148  0.97380796  1  0  -0.329627  0  3.730323  0  0  -0.408362  0  3.965963  0  0  -0.411096  0  3.977026  0  0  -0.252188  -0.40602  0  3.95839  0
C  C101  1  0.73963222  0.67166318  0.52619687  1  0  -0.328279  0  3.730775  0  0  -0.406706  0  3.966208  0  0  -0.409392  0  3.977368  0  0  -0.251212  -0.404438  0  3.958565  0
C  C102  1  0.85893966  0.53918057  0.88266924  1  0  -0.322641  0  3.738877  0  0  -0.400684  0  3.974524  0  0  -0.402508  0  3.984632  0  0  -0.244331  -0.399069  0  3.967733  0
C  C103  1  0.31973395  0.46071675  0.61736231  1  0  -0.322812  0  3.73683  0  0  -0.400452  0  3.972887  0  0  -0.402313  0  3.982859  0  0  -0.244712  -0.398838  0  3.966182  0
C  C104  1  0.14107947  0.46081949  0.11731750  1  0  -0.32225  0  3.738541  0  0  -0.400183  0  3.974115  0  0  -0.402066  0  3.98416  0  0  -0.24422  -0.398526  0  3.967356  0
C  C105  1  0.68024925  0.53929122  0.38264928  1  0  -0.322919  0  3.736719  0  0  -0.400704  0  3.972742  0  0  -0.40257  0  3.982716  0  0  -0.244778  -0.399082  0  3.966035  0
I  I106  1  0.06866208  0.92630877  0.88139753  1  0  -0.46634  0  1.11575  0  0  -0.40445  0  1.444357  0  0  -0.422526  0  1.420586  0  0  -0.195363  -0.391601  0  1.46065  0
I  I107  1  0.14128346  0.07363088  0.61838576  1  0  -0.466056  0  1.117473  0  0  -0.404279  0  1.446587  0  0  -0.422382  0  1.422825  0  0  -0.19493  -0.391491  0  1.462674  0
I  I108  1  0.93138128  0.07369990  0.11859538  1  0  -0.466366  0  1.115689  0  0  -0.404491  0  1.444304  0  0  -0.422564  0  1.420527  0  0  -0.195348  -0.391643  0  1.460602  0
I  I109  1  0.85867047  0.92636838  0.38160678  1  0  -0.466094  0  1.117344  0  0  -0.404325  0  1.446451  0  0  -0.422422  0  1.422676  0  0  -0.19497  -0.391533  0  1.462544  0
N  N110  1  0.74663361  0.13708066  0.80788016  1  0  -0.303945  0  3.172629  0  0  -0.25042  0  3.463388  0  0  -0.268119  0  3.481396  0  0  -0.274334  -0.23852  0  3.450998  0
N  N111  1  0.60990021  0.86276052  0.69211197  1  0  -0.302411  0  3.172062  0  0  -0.249186  0  3.462534  0  0  -0.266879  0  3.480581  0  0  -0.273776  -0.23731  0  3.450146  0
N  N112  1  0.25337457  0.86290750  0.19211429  1  0  -0.304075  0  3.172758  0  0  -0.250608  0  3.463535  0  0  -0.268314  0  3.481568  0  0  -0.274415  -0.238707  0  3.451148  0
N  N113  1  0.39009399  0.13723290  0.30789789  1  0  -0.302369  0  3.172262  0  0  -0.24931  0  3.462621  0  0  -0.267005  0  3.480666  0  0  -0.27383  -0.237431  0  3.45024  0
N  N114  1  0.67741319  0.11791889  0.88214647  1  0  -0.214697  0  3.548515  0  0  -0.166895  0  3.789557  0  0  -0.178736  0  3.808198  0  0  -0.299095  -0.159084  0  3.777134  0
N  N115  1  0.55967140  0.88204224  0.61788405  1  0  -0.213884  0  3.548092  0  0  -0.165338  0  3.78891  0  0  -0.177275  0  3.807417  0  0  -0.298881  -0.157508  0  3.776556  0
N  N116  1  0.32259933  0.88208124  0.11784845  1  0  -0.214525  0  3.548377  0  0  -0.166654  0  3.78931  0  0  -0.178503  0  3.807956  0  0  -0.298935  -0.158841  0  3.776885  0
N  N117  1  0.44030677  0.11796230  0.38212623  1  0  -0.214267  0  3.548566  0  0  -0.165455  0  3.789235  0  0  -0.177387  0  3.807739  0  0  -0.298925  -0.157633  0  3.776887  0
