# generated using pymatgen
data_CuH16C12S(N2O)4
_symmetry_space_group_name_H-M   'P 1'
_cell_length_a   8.07328357
_cell_length_b   8.63675111
_cell_length_c   13.80941399
_cell_angle_alpha   92.13337057
_cell_angle_beta   99.87711279
_cell_angle_gamma   91.99530768
_symmetry_Int_Tables_number   1
_chemical_formula_structural   CuH16C12S(N2O)4
_chemical_formula_sum   'Cu2 H32 C24 S2 N16 O8'
_cell_volume   947.12810387
_cell_formula_units_Z   2
loop_
 _symmetry_equiv_pos_site_id
 _symmetry_equiv_pos_as_xyz
  1  'x, y, z'
loop_
 _atom_site_type_symbol
 _atom_site_label
 _atom_site_symmetry_multiplicity
 _atom_site_fract_x
 _atom_site_fract_y
 _atom_site_fract_z
 _atom_site_occupancy
 _atom_site_hle17_ddec_charge
 _atom_site_hle17_ddec_spin_density
 _atom_site_hle17_ddec_sum_bond_order
 _atom_site_hle17_magmom
 _atom_site_hse06_10hf_ddec_charge
 _atom_site_hse06_10hf_ddec_spin_density
 _atom_site_hse06_10hf_ddec_sum_bond_order
 _atom_site_hse06_10hf_magmom
 _atom_site_hse06_ddec_charge
 _atom_site_hse06_ddec_spin_density
 _atom_site_hse06_ddec_sum_bond_order
 _atom_site_hse06_magmom
 _atom_site_pbe_cm5_charge
 _atom_site_pbe_ddec_charge
 _atom_site_pbe_ddec_spin_density
 _atom_site_pbe_ddec_sum_bond_order
 _atom_site_pbe_magmom
Cu  Cu0  1  0.50000022  0.00000023  0.49999939  1  0.77319  -0.720531  1.965375  -0.547  0.722397  -0.785827  2.365525  -0.64  0.79606  -0.841238  2.313539  -0.711  0.81428  0.677148  -0.747394  2.400805  -0.593
Cu  Cu1  1  0.50000028  0.00000169  0.00000055  1  0.761482  -0.711725  1.901493  -0.542  0.708264  -0.780046  2.297753  -0.636  0.785586  -0.836312  2.244685  -0.708  0.800881  0.66073  -0.741867  2.333793  -0.59
H  H2  1  0.27583214  0.81189706  0.62426752  1  0.302775  0.000144  0.943994  0.0  0.275869  -1.8e-05  1.014838  0.0  0.28425  8e-06  1.008076  0.0  0.311741  0.269865  -4.5e-05  1.019728  0.0
H  H3  1  0.72416885  0.18809853  0.37572963  1  0.302824  0.000143  0.943878  0.0  0.275874  -1.8e-05  1.014779  0.0  0.284257  8e-06  1.008011  0.0  0.311732  0.269871  -4.5e-05  1.019668  0.0
H  H4  1  0.64573512  0.72433946  0.57823100  1  0.308172  6.8e-05  0.902383  0.0  0.288273  -9.1e-05  0.961285  0.0  0.296158  -6.3e-05  0.954952  0.0  0.32713  0.28257  -0.000114  0.965994  0.0
H  H5  1  0.35426852  0.27565962  0.42176867  1  0.308211  6.7e-05  0.902478  0.0  0.288309  -9.1e-05  0.961359  0.0  0.296196  -6.2e-05  0.955024  0.0  0.327152  0.282609  -0.000114  0.966067  0.0
H  H6  1  0.32921677  0.72648619  0.84537019  1  0.296647  0.00021  0.945881  0.0  0.272164  2.3e-05  1.013509  0.0  0.280426  4.9e-05  1.006818  0.0  0.314102  0.266258  -6e-06  1.018334  0.0
H  H7  1  0.67078433  0.27351291  0.15463066  1  0.296678  0.00021  0.945854  0.0  0.272184  2.3e-05  1.013479  0.0  0.280446  4.9e-05  1.006788  0.0  0.314108  0.266275  -6e-06  1.018302  0.0
H  H8  1  0.24525579  0.19052553  0.08335741  1  0.298748  0.000137  0.943172  0.0  0.273267  -1.8e-05  1.014331  0.0  0.281553  1.1e-05  1.007509  0.0  0.313571  0.267312  -4.7e-05  1.019293  0.0
H  H9  1  0.75474184  0.80947939  0.91664318  1  0.298806  0.000138  0.943124  0.0  0.273309  -1.8e-05  1.0143  0.0  0.281593  1.1e-05  1.007485  0.0  0.313579  0.267355  -4.7e-05  1.019262  0.0
H  H10  1  0.16006750  0.97290766  0.34405406  1  0.112312  -7.6e-05  0.958229  0.0  0.122521  -0.000131  1.015695  0.0  0.12446  -8.3e-05  1.013335  0.0  0.121523  0.120943  -0.00017  1.017541  0.0
H  H11  1  0.83992895  0.02709841  0.65594498  1  0.112315  -7.4e-05  0.958231  0.0  0.122547  -0.000131  1.015667  0.0  0.124487  -8.3e-05  1.013308  0.0  0.121543  0.120967  -0.00017  1.017513  0.0
H  H12  1  0.88503749  0.78796051  0.37311321  1  0.119768  -0.000518  0.982023  -0.001  0.128056  -0.000416  1.042822  -0.001  0.13003  -0.000301  1.044342  0.0  0.103058  0.126637  -0.000513  1.041877  -0.001
H  H13  1  0.11496235  0.21203741  0.62688458  1  0.119775  -0.000516  0.981993  -0.001  0.128062  -0.000416  1.042792  -0.001  0.130035  -0.000301  1.044311  0.0  0.103062  0.126646  -0.000513  1.041852  -0.001
H  H14  1  0.98279245  0.69120387  0.56275710  1  0.101165  -0.000565  0.943391  -0.001  0.114286  -0.000396  0.998732  -0.001  0.116529  -0.000278  0.996749  0.0  0.125101  0.112559  -0.00049  1.000272  -0.001
H  H15  1  0.01721212  0.30878705  0.43723889  1  0.101157  -0.000565  0.943436  -0.001  0.11433  -0.000396  0.998709  -0.001  0.116574  -0.000278  0.996726  0.0  0.125098  0.112606  -0.00049  1.000251  -0.001
H  H16  1  0.48473158  0.80480336  0.29037127  1  0.112789  -6.5e-05  0.974669  -0.001  0.120829  -0.000109  1.036988  0.0  0.123075  -6.3e-05  1.034218  0.0  0.120803  0.119029  -0.000145  1.039083  0.0
H  H17  1  0.51526967  0.19519805  0.70962819  1  0.112801  -6.4e-05  0.974691  -0.001  0.12085  -0.000109  1.037001  0.0  0.123094  -6.3e-05  1.034233  0.0  0.120793  0.119049  -0.000145  1.039096  0.0
H  H18  1  0.59509985  0.50004431  0.29364196  1  0.14181  -0.000685  0.96952  -0.001  0.147549  -0.000515  1.028714  -0.001  0.151204  -0.000392  1.027472  -0.001  0.108632  0.144889  -0.000616  1.029759  -0.001
H  H19  1  0.40490391  0.49995590  0.70635485  1  0.141804  -0.000684  0.969545  -0.001  0.147571  -0.000515  1.028699  -0.001  0.151224  -0.000392  1.027461  -0.001  0.108656  0.144911  -0.000616  1.029747  -0.001
H  H20  1  0.71052531  0.46225048  0.49051745  1  0.1051  -0.000495  0.956177  -0.001  0.115245  -0.000283  1.016188  0.0  0.117519  -0.000186  1.014911  0.0  0.124536  0.113564  -0.000358  1.017125  -0.001
H  H21  1  0.28947848  0.53775091  0.50948083  1  0.105065  -0.000495  0.9562  -0.001  0.115215  -0.000283  1.016211  0.0  0.117489  -0.000186  1.014934  0.0  0.124517  0.113539  -0.000358  1.017148  -0.001
H  H22  1  0.45057847  0.74661783  0.14663152  1  0.105222  -3.7e-05  0.973885  0.0  0.117967  -7.8e-05  1.030089  0.0  0.119011  -3.5e-05  1.028854  0.0  0.120716  0.117049  -0.000114  1.031105  0.0
H  H23  1  0.54942048  0.25338824  0.85336851  1  0.105247  -3.8e-05  0.973872  0.0  0.11799  -7.9e-05  1.030072  0.0  0.119033  -3.5e-05  1.02884  0.0  0.120737  0.117073  -0.000114  1.031088  0.0
H  H24  1  0.28954313  0.46141202  0.09563180  1  0.144389  -0.000557  0.983078  -0.001  0.152154  -0.00041  1.041508  -0.001  0.155425  -0.000302  1.040412  0.0  0.108392  0.149788  -0.000504  1.042401  -0.001
H  H25  1  0.71046055  0.53858941  0.90437154  1  0.144342  -0.000556  0.983189  -0.001  0.152128  -0.00041  1.041588  -0.001  0.155393  -0.000302  1.040495  0.0  0.108396  0.149762  -0.000504  1.04248  -0.001
H  H26  1  0.20459105  0.46678031  0.89172150  1  0.102037  -0.00065  0.945214  -0.001  0.114576  -0.000443  1.002479  -0.001  0.116649  -0.000308  1.000835  -0.001  0.124094  0.113014  -0.000548  1.003687  -0.001
H  H27  1  0.79541381  0.53321878  0.10828047  1  0.102011  -0.000651  0.945228  -0.001  0.114538  -0.000443  1.002509  -0.001  0.11661  -0.000309  1.000866  -0.001  0.124077  0.112976  -0.000548  1.003716  -0.001
H  H28  1  0.21361611  0.99588448  0.80307794  1  0.109649  -2.1e-05  0.955708  0.0  0.116663  -9.1e-05  1.018556  0.0  0.119139  -4.8e-05  1.015574  0.0  0.118437  0.114706  -0.000127  1.020786  0.0
H  H29  1  0.78638369  0.00411465  0.19692494  1  0.109717  -2e-05  0.955778  0.0  0.116772  -9.1e-05  1.018574  0.0  0.11925  -4.7e-05  1.015592  0.0  0.118473  0.114811  -0.000127  1.020809  0.0
H  H30  1  0.91078889  0.13888050  0.80930244  1  0.12691  -0.000715  0.968634  -0.001  0.137698  -0.00054  1.023746  -0.001  0.140216  -0.000408  1.023756  0.0  0.10756  0.135841  -0.000649  1.023943  -0.001
H  H31  1  0.08920292  0.86111056  0.19070088  1  0.12682  -0.000715  0.968741  -0.001  0.137613  -0.00054  1.023841  -0.001  0.140136  -0.000408  1.023846  0.0  0.107523  0.135755  -0.000649  1.024041  -0.001
H  H32  1  0.95145629  0.26122418  0.99926493  1  0.099632  -0.000443  0.979091  -0.001  0.107933  -0.000253  1.044849  -0.001  0.109613  -0.000148  1.044238  0.0  0.120019  0.106676  -0.000334  1.045305  -0.001
H  H33  1  0.04853957  0.73877148  0.00073674  1  0.09963  -0.000444  0.979202  -0.001  0.10796  -0.000252  1.044926  -0.001  0.109641  -0.000148  1.044314  0.0  0.119994  0.106701  -0.000334  1.04538  -0.001
C  C34  1  0.13954493  0.90805815  0.40698907  1  0.043942  0.00837  3.710419  0.003  0.006586  0.001602  3.985785  -0.001  0.015638  0.003359  4.001941  0.001  0.012547  0.000985  0.000365  3.974777  -0.002
C  C35  1  0.86045134  0.09194444  0.59300988  1  0.043922  0.008364  3.71042  0.003  0.00654  0.001601  3.985791  -0.001  0.0156  0.00336  4.001948  0.001  0.012515  0.000942  0.000365  3.97477  -0.002
C  C36  1  0.00219904  0.81432812  0.42312968  1  -0.20809  -0.005454  3.78655  -0.006  -0.222394  -0.002097  4.04855  -0.003  -0.23146  -0.001746  4.070319  -0.002  -0.120129  -0.216414  -0.002421  4.033624  -0.003
C  C37  1  0.99780080  0.18566980  0.57686811  1  -0.208056  -0.005461  3.786533  -0.006  -0.222362  -0.002098  4.048556  -0.003  -0.231426  -0.001747  4.070321  -0.002  -0.12012  -0.216384  -0.002421  4.033636  -0.003
C  C38  1  0.04857585  0.76378934  0.51810393  1  0.039644  0.005686  3.718817  0.002  -0.010125  0.00116  3.988426  -0.001  -0.002068  0.002477  4.003305  0.0  0.015803  -0.015127  0.000209  3.978133  -0.001
C  C39  1  0.95142517  0.23620742  0.48189470  1  0.039586  0.005691  3.718932  0.002  -0.010247  0.00116  3.988523  -0.001  -0.00219  0.002477  4.003402  0.0  0.015801  -0.015249  0.000209  3.978236  -0.001
C  C40  1  0.53899517  0.73605484  0.35131011  1  0.04677  0.008531  3.693657  0.003  0.01211  0.001511  3.96205  -0.001  0.021747  0.003247  3.976754  0.001  0.020004  0.006129  0.000299  3.952126  -0.002
C  C41  1  0.46100725  0.26394423  0.64868798  1  0.046677  0.00853  3.693691  0.003  0.011995  0.00151  3.962086  -0.001  0.021631  0.003248  3.976792  0.001  0.019981  0.006016  0.0003  3.952157  -0.002
C  C42  1  0.59778575  0.58435761  0.35409084  1  -0.214509  -0.005756  3.748868  -0.007  -0.225306  -0.002361  4.006933  -0.003  -0.2346  -0.002006  4.025471  -0.003  -0.117077  -0.219268  -0.002685  3.99438  -0.003
C  C43  1  0.40221804  0.41564378  0.64590744  1  -0.214428  -0.005757  3.748826  -0.007  -0.225239  -0.002361  4.006872  -0.003  -0.234531  -0.002007  4.02541  -0.003  -0.117043  -0.2192  -0.002685  3.99432  -0.003
C  C44  1  0.65626092  0.56151612  0.45319065  1  0.050557  0.008824  3.699814  0.004  0.001119  0.002096  3.970252  0.0  0.009795  0.003321  3.984689  0.001  0.019901  -0.004267  0.001183  3.960239  0.0
C  C45  1  0.34373914  0.43848645  0.54680798  1  0.050598  0.008824  3.699701  0.004  0.00112  0.002096  3.97017  0.0  0.009799  0.003321  3.984609  0.001  0.019869  -0.004268  0.001183  3.960165  0.0
C  C46  1  0.39664653  0.69614260  0.07486952  1  0.057161  0.010164  3.701835  0.005  0.020727  0.002654  3.971903  0.0  0.030682  0.004409  3.988077  0.002  0.017425  0.014542  0.001418  3.960833  -0.001
C  C47  1  0.60335339  0.30385766  0.92513050  1  0.057094  0.010165  3.70188  0.005  0.020658  0.002655  3.971953  0.0  0.030607  0.004407  3.988135  0.002  0.017367  0.014473  0.001418  3.960887  -0.001
C  C48  1  0.31134528  0.55294454  0.04721302  1  -0.215117  -0.005825  3.762578  -0.007  -0.229848  -0.002074  4.024094  -0.003  -0.239445  -0.001729  4.044097  -0.002  -0.118963  -0.223513  -0.002412  4.010398  -0.003
C  C49  1  0.68865714  0.44705571  0.95278799  1  -0.215054  -0.005825  3.762708  -0.007  -0.229798  -0.002074  4.02422  -0.003  -0.239387  -0.001728  4.044218  -0.002  -0.118952  -0.223462  -0.002413  4.010526  -0.003
C  C50  1  0.26853339  0.55372234  0.94524192  1  0.046139  0.007507  3.702491  0.003  -0.001032  0.001505  3.968404  0.0  0.00801  0.002838  3.98222  0.001  0.019166  -0.006673  0.000547  3.958785  -0.001
C  C51  1  0.73147026  0.44627792  0.05475995  1  0.046168  0.007505  3.702603  0.003  -0.001007  0.001506  3.968519  0.0  0.008036  0.002836  3.982331  0.001  0.019184  -0.006651  0.000547  3.958902  -0.001
C  C52  1  0.17096190  0.05936254  0.86293134  1  0.040091  0.007453  3.709857  0.002  0.002977  0.001229  3.984539  -0.001  0.012901  0.002991  4.00002  0.0  0.010888  -0.0031  -5e-06  3.97398  -0.002
C  C53  1  0.82903651  0.94063428  0.13707207  1  0.039975  0.007453  3.709934  0.002  0.002809  0.001229  3.984616  -0.001  0.012729  0.00299  4.000094  0.0  0.0108  -0.003263  -5e-06  3.974055  -0.002
C  C54  1  0.01960843  0.13312606  0.86681457  1  -0.216101  -0.004898  3.771852  -0.006  -0.228808  -0.00202  4.030292  -0.003  -0.238397  -0.001684  4.050226  -0.002  -0.118944  -0.222574  -0.00231  4.01668  -0.003
C  C55  1  0.98038865  0.86686842  0.13318648  1  -0.216007  -0.0049  3.771895  -0.006  -0.228719  -0.002022  4.030347  -0.003  -0.238308  -0.001684  4.050282  -0.002  -0.118921  -0.222485  -0.00231  4.016731  -0.003
C  C56  1  0.03602998  0.19475819  0.96273108  1  0.062325  0.007714  3.684367  0.003  0.015641  0.001741  3.946396  0.0  0.02493  0.002928  3.960956  0.001  0.022604  0.009876  0.000853  3.936236  -0.001
C  C57  1  0.96396589  0.80523746  0.03727059  1  0.062359  0.007719  3.684467  0.003  0.015659  0.001741  3.946449  0.0  0.024948  0.002931  3.961012  0.001  0.022633  0.009899  0.000853  3.936286  -0.001
S  S58  1  0.45018845  0.15202386  0.24461211  1  1.553036  0.000416  5.85709  0.0  1.437419  0.000398  6.407124  0.0  1.492249  0.000322  6.369183  0.0  0.548054  1.399613  0.000428  6.431956  0.0
S  S59  1  0.54981023  0.84797640  0.75538705  1  1.553075  0.00041  5.856791  0.0  1.437465  0.000395  6.406853  0.0  1.492294  0.000324  6.368917  0.0  0.548056  1.399649  0.000427  6.431681  0.0
N  N60  1  0.26107731  0.91321944  0.48700115  1  -0.205596  -0.079047  3.24567  -0.105  -0.188012  -0.054308  3.564746  -0.076  -0.21248  -0.044443  3.588772  -0.067  -0.269197  -0.172887  -0.06071  3.549501  -0.082
N  N61  1  0.73892145  0.08678315  0.51299952  1  -0.205591  -0.079048  3.245583  -0.105  -0.188017  -0.054309  3.564648  -0.076  -0.212502  -0.044443  3.588688  -0.067  -0.269197  -0.172887  -0.060713  3.549394  -0.082
N  N62  1  0.20444297  0.82480236  0.55380322  1  -0.156255  -0.002919  3.464778  -0.003  -0.08862  -0.002031  3.704539  -0.002  -0.100037  -0.001395  3.724985  -0.002  -0.276989  -0.081011  -0.002508  3.691056  -0.003
N  N63  1  0.79555807  0.17519439  0.44619468  1  -0.156263  -0.002916  3.464528  -0.003  -0.088569  -0.00203  3.70426  -0.002  -0.099983  -0.001397  3.724708  -0.002  -0.276992  -0.080969  -0.002509  3.690783  -0.003
N  N64  1  0.56125088  0.79976200  0.44287430  1  -0.203718  -0.076197  3.281947  -0.101  -0.183619  -0.05218  3.601368  -0.073  -0.207381  -0.043145  3.624133  -0.064  -0.276872  -0.169047  -0.057921  3.587041  -0.078
N  N65  1  0.43875160  0.20023823  0.55712382  1  -0.203686  -0.076201  3.281939  -0.101  -0.18358  -0.052182  3.601336  -0.073  -0.207339  -0.043148  3.624104  -0.064  -0.2769  -0.169006  -0.057922  3.587006  -0.078
N  N66  1  0.63266237  0.69348984  0.50383708  1  -0.162818  -0.001994  3.484813  -0.002  -0.097106  -0.001151  3.722633  -0.001  -0.108884  -0.0006  3.743097  -0.001  -0.28026  -0.089274  -0.001554  3.709137  -0.002
N  N67  1  0.36734018  0.30651155  0.49616035  1  -0.162914  -0.001992  3.484849  -0.002  -0.09716  -0.001153  3.72263  -0.001  -0.108948  -0.000598  3.743103  -0.001  -0.280224  -0.08933  -0.001555  3.709142  -0.002
N  N68  1  0.40445838  0.77890898  0.99521254  1  -0.208007  -0.079598  3.231124  -0.105  -0.188583  -0.054965  3.551231  -0.077  -0.213927  -0.045026  3.574708  -0.067  -0.268179  -0.172959  -0.061425  3.536438  -0.082
N  N69  1  0.59553907  0.22109245  0.00478796  1  -0.208066  -0.079603  3.231166  -0.105  -0.188645  -0.054969  3.551263  -0.077  -0.21399  -0.045027  3.574739  -0.067  -0.268202  -0.173023  -0.061428  3.536474  -0.082
N  N70  1  0.32426981  0.69155000  0.91685076  1  -0.162958  -0.004331  3.464751  -0.005  -0.097645  -0.002973  3.706459  -0.003  -0.109191  -0.002311  3.726965  -0.003  -0.279138  -0.089941  -0.003448  3.69293  -0.004
N  N71  1  0.67573141  0.30845142  0.08315015  1  -0.162901  -0.004326  3.464776  -0.005  -0.097553  -0.002973  3.706441  -0.003  -0.109098  -0.002312  3.726944  -0.003  -0.279106  -0.089846  -0.003448  3.692909  -0.004
N  N72  1  0.27204612  0.07607233  0.95125487  1  -0.210426  -0.07765  3.268816  -0.103  -0.187369  -0.052721  3.588032  -0.074  -0.213184  -0.043512  3.61199  -0.065  -0.274301  -0.171558  -0.05853  3.572987  -0.079
N  N73  1  0.72795410  0.92393491  0.04874749  1  -0.210428  -0.077647  3.268814  -0.103  -0.187339  -0.052721  3.588017  -0.074  -0.213146  -0.043512  3.611969  -0.065  -0.274281  -0.171528  -0.05853  3.572973  -0.079
N  N74  1  0.18845923  0.15827682  0.01077813  1  -0.150485  -0.002513  3.466721  -0.003  -0.084202  -0.001423  3.701031  -0.002  -0.096014  -0.000853  3.722614  -0.001  -0.273015  -0.076354  -0.001841  3.68689  -0.002
N  N75  1  0.81153844  0.84172926  0.98922321  1  -0.150544  -0.002516  3.46678  -0.003  -0.084265  -0.00142  3.701107  -0.002  -0.096081  -0.000857  3.722693  -0.001  -0.272988  -0.07642  -0.00184  3.686973  -0.002
O  O76  1  0.62967495  0.22088943  0.26347338  1  -0.744147  -0.000603  1.940144  -0.001  -0.683811  -0.000355  2.173817  0.0  -0.70438  -0.000235  2.156479  0.0  -0.370581  -0.669037  -0.000591  2.185246  -0.001
O  O77  1  0.37032355  0.77910735  0.73652570  1  -0.744001  -0.000595  1.93993  -0.001  -0.683723  -0.000351  2.17362  0.0  -0.704294  -0.000242  2.156282  0.0  -0.370528  -0.668952  -0.000591  2.185054  -0.001
O  O78  1  0.33652184  0.26627686  0.19359952  1  -0.72571  -0.000337  1.919307  0.0  -0.676681  -0.000125  2.155742  0.0  -0.695188  -2e-06  2.137359  0.0  -0.377159  -0.663336  -0.000285  2.167865  0.0
O  O79  1  0.66348067  0.73372573  0.80640300  1  -0.725746  -0.000343  1.91919  0.0  -0.676722  -0.00013  2.155619  0.0  -0.695227  4e-06  2.137233  0.0  -0.377198  -0.66338  -0.000285  2.167738  0.0
O  O80  1  0.40355758  0.12162200  0.34252568  1  -0.761796  0.00164  2.006141  0.0  -0.714471  0.001963  2.278032  0.0  -0.734902  0.002262  2.255216  0.001  -0.37156  -0.700059  0.001513  2.293441  0.0
O  O81  1  0.59644341  0.87837478  0.65747439  1  -0.761857  0.001637  2.006227  0.0  -0.714493  0.001962  2.278098  0.0  -0.734928  0.002262  2.255282  0.001  -0.37155  -0.700076  0.001513  2.29349  0.0
O  O82  1  0.44398063  0.00674828  0.18364216  1  -0.74839  0.001216  1.941231  0.0  -0.709327  0.001633  2.214845  0.0  -0.730501  0.001856  2.19536  0.001  -0.371011  -0.69439  0.001245  2.227876  0.0
O  O83  1  0.55601572  0.99325546  0.81635609  1  -0.748452  0.00122  1.941128  0.0  -0.709387  0.001637  2.214747  0.0  -0.730537  0.001861  2.195214  0.001  -0.37104  -0.694448  0.001245  2.227775  0.0
