# generated using pymatgen
data_SmH11C17O6
_symmetry_space_group_name_H-M   'P 1'
_cell_length_a   6.77401716
_cell_length_b   13.04068743
_cell_length_c   17.14200000
_cell_angle_alpha   90.00000000
_cell_angle_beta   93.81496560
_cell_angle_gamma   90.00000000
_symmetry_Int_Tables_number   1
_chemical_formula_structural   SmH11C17O6
_chemical_formula_sum   'Sm4 H44 C68 O24'
_cell_volume   1510.93178786
_cell_formula_units_Z   4
loop_
 _symmetry_equiv_pos_site_id
 _symmetry_equiv_pos_as_xyz
  1  'x, y, z'
loop_
 _atom_site_type_symbol
 _atom_site_label
 _atom_site_symmetry_multiplicity
 _atom_site_fract_x
 _atom_site_fract_y
 _atom_site_fract_z
 _atom_site_occupancy
 _atom_site_hle17_bader_spin_density
 _atom_site_hle17_ddec_charge
 _atom_site_hle17_ddec_spin_density
 _atom_site_hle17_ddec_sum_bond_order
 _atom_site_hle17_magmom
 _atom_site_hse06_10hf_bader_spin_density
 _atom_site_hse06_10hf_ddec_charge
 _atom_site_hse06_10hf_ddec_spin_density
 _atom_site_hse06_10hf_ddec_sum_bond_order
 _atom_site_hse06_10hf_magmom
 _atom_site_hse06_bader_spin_density
 _atom_site_hse06_ddec_charge
 _atom_site_hse06_ddec_spin_density
 _atom_site_hse06_ddec_sum_bond_order
 _atom_site_hse06_magmom
 _atom_site_pbe_bader_charge
 _atom_site_pbe_bader_spin_density
 _atom_site_pbe_cm5_charge
 _atom_site_pbe_ddec_charge
 _atom_site_pbe_ddec_spin_density
 _atom_site_pbe_ddec_sum_bond_order
 _atom_site_pbe_magmom
Sm  Sm0  1  0.61663202  0.62745389  0.54816181  1  0  2.314665  0  1.675662  0  0  2.226022  0  2.032954  0  0  2.270208  0  1.98868  0  2.229286  0  1.53955  2.131395  0  2.177284  0
Sm  Sm1  1  0.88336500  0.12745340  0.45183922  1  0  2.314657  0  1.675618  0  0  2.22602  0  2.032908  0  0  2.270208  0  1.988634  0  2.229292  0  1.539542  2.131407  0  2.177211  0
Sm  Sm2  1  0.38336550  0.37254554  0.45184081  1  0  2.31467  0  1.675682  0  0  2.22603  0  2.03298  0  0  2.270215  0  1.988705  0  2.229293  0  1.539552  2.131429  0  2.177256  0
Sm  Sm3  1  0.11663252  0.87254526  0.54815931  1  0  2.314659  0  1.675704  0  0  2.226016  0  2.033007  0  0  2.270207  0  1.988729  0  2.229368  0  1.539552  2.131416  0  2.177292  0
H  H4  1  0.11623601  0.78571318  0.79253228  1  0  0.095118  0  0.986885  0  0  0.103753  0  1.052251  0  0  0.105882  0  1.052452  0  0.080935  0  0.1032  0.102055  0  1.052543  0
H  H5  1  0.38376940  0.28571577  0.20746863  1  0  0.095077  0  0.986889  0  0  0.103697  0  1.052289  0  0  0.105826  0  1.052489  0  0.080999  0  0.103162  0.102  0  1.052579  0
H  H6  1  0.88376446  0.21428625  0.20747100  1  0  0.095076  0  0.986884  0  0  0.103705  0  1.052262  0  0  0.105833  0  1.052463  0  0.080977  0  0.103172  0.102005  0  1.052558  0
H  H7  1  0.61623403  0.71428750  0.79252890  1  0  0.095098  0  0.986871  0  0  0.103724  0  1.052251  0  0  0.105851  0  1.052454  0  0.081011  0  0.103185  0.102026  0  1.052545  0
H  H8  1  0.04760759  0.75521019  0.93061936  1  0  0.082631  0  0.977479  0  0  0.093435  0  1.039901  0  0  0.095578  0  1.040329  0  0.071395  0  0.09389  0.091907  0  1.039669  0
H  H9  1  0.45239783  0.25521431  0.06938096  1  0  0.082618  0  0.97751  0  0  0.093429  0  1.039921  0  0  0.095573  0  1.040353  0  0.071353  0  0.093882  0.091901  0  1.03969  0
H  H10  1  0.95239437  0.24478848  0.06938338  1  0  0.082679  0  0.97751  0  0  0.093485  0  1.039923  0  0  0.095625  0  1.04035  0  0.071141  0  0.09392  0.091958  0  1.039689  0
H  H11  1  0.54760709  0.74479049  0.93061660  1  0  0.082689  0  0.977467  0  0  0.093482  0  1.039892  0  0  0.095623  0  1.040321  0  0.071407  0  0.093924  0.091956  0  1.039659  0
H  H12  1  0.75737015  0.47105185  0.86298106  1  0  0.08766  0  0.955757  0  0  0.098985  0  1.01656  0  0  0.1015  0  1.016514  0  0.059769  0  0.097981  0.097192  0  1.016698  0
H  H13  1  0.74261799  0.97105080  0.13701624  1  0  0.087669  0  0.955732  0  0  0.099  0  1.016524  0  0  0.101515  0  1.016477  0  0.060034  0  0.097986  0.097206  0  1.016664  0
H  H14  1  0.24263032  0.52894758  0.13701989  1  0  0.087689  0  0.955727  0  0  0.099022  0  1.016519  0  0  0.101537  0  1.016473  0  0.059787  0  0.097997  0.097228  0  1.016658  0
H  H15  1  0.25737805  0.02895169  0.86298109  1  0  0.087663  0  0.955742  0  0  0.099006  0  1.016523  0  0  0.101521  0  1.016478  0  0.059847  0  0.097977  0.097212  0  1.016663  0
H  H16  1  0.82649717  0.50378939  0.72457807  1  0  0.101829  0  0.940545  0  0  0.110303  0  1.003099  0  0  0.113644  0  1.000995  0  0.082966  0  0.112152  0.108248  0  1.003833  0
H  H17  1  0.67349097  0.00378584  0.27541923  1  0  0.101737  0  0.940534  0  0  0.110299  0  1.00302  0  0  0.113644  0  1.000909  0  0.082771  0  0.112113  0.108248  0  1.00374  0
H  H18  1  0.17350478  0.49621234  0.27542408  1  0  0.101785  0  0.940534  0  0  0.11029  0  1.003056  0  0  0.11363  0  1.000953  0  0.082914  0  0.112137  0.108238  0  1.00378  0
H  H19  1  0.32650211  0.99621512  0.72457686  1  0  0.10183  0  0.940496  0  0  0.110336  0  1.003015  0  0  0.113676  0  1.000911  0  0.082866  0  0.112149  0.108284  0  1.003743  0
H  H20  1  0.76738790  0.51699575  0.99334362  1  0  0.081615  0  0.961962  0  0  0.095232  0  1.021792  0  0  0.097971  0  1.020242  0  0.053823  0  0.097919  0.093277  0  1.022957  0
H  H21  1  0.73261356  0.01699910  0.00665578  1  0  0.081638  0  0.961897  0  0  0.095256  0  1.02173  0  0  0.097996  0  1.02018  0  0.053451  0  0.097934  0.093302  0  1.022897  0
H  H22  1  0.23261406  0.48300214  0.00665853  1  0  0.081668  0  0.961975  0  0  0.095286  0  1.021794  0  0  0.098025  0  1.020243  0  0.053424  0  0.097945  0.09333  0  1.022961  0
H  H23  1  0.26738840  0.98300263  0.99334287  1  0  0.081608  0  0.961973  0  0  0.095223  0  1.021803  0  0  0.097963  0  1.020252  0  0.053415  0  0.097923  0.093268  0  1.02297  0
H  H24  1  0.92249649  0.73163934  0.04122475  1  0  0.08818  0  0.952634  0  0  0.101621  0  1.011882  0  0  0.104445  0  1.010677  0  0.03123  0  0.098283  0.099635  0  1.01274  0
H  H25  1  0.57750645  0.23164346  0.95877468  1  0  0.088167  0  0.952557  0  0  0.101612  0  1.011794  0  0  0.104436  0  1.010587  0  0.031245  0  0.098304  0.099623  0  1.012664  0
H  H26  1  0.07750991  0.26835779  0.95877752  1  0  0.088186  0  0.952565  0  0  0.101644  0  1.011793  0  0  0.104469  0  1.010584  0  0.031265  0  0.098301  0.099656  0  1.012655  0
H  H27  1  0.42249551  0.76835827  0.04122222  1  0  0.088158  0  0.952531  0  0  0.101626  0  1.011746  0  0  0.10445  0  1.010537  0  0.031171  0  0.098314  0.099637  0  1.012613  0
H  H28  1  0.93210145  0.76771030  0.17753318  1  0  0.088514  0  0.978711  0  0  0.097343  0  1.044129  0  0  0.099283  0  1.045589  0  0.069726  0  0.094888  0.095964  0  1.043171  0
H  H29  1  0.56790149  0.26771058  0.82246509  1  0  0.088499  0  0.978637  0  0  0.097306  0  1.044102  0  0  0.099246  0  1.045563  0  0.06976  0  0.094891  0.095928  0  1.043142  0
H  H30  1  0.06790051  0.23228913  0.82246839  1  0  0.088482  0  0.978687  0  0  0.097297  0  1.044135  0  0  0.099237  0  1.045595  0  0.069736  0  0.094871  0.095917  0  1.043176  0
H  H31  1  0.43210047  0.73228808  0.17753181  1  0  0.088546  0  0.978672  0  0  0.097371  0  1.0441  0  0  0.099311  0  1.04556  0  0.076464  0  0.094886  0.095992  0  1.043141  0
H  H32  1  0.84927863  0.72468879  0.31302736  1  0  0.102973  0  0.937175  0  0  0.113834  0  0.994698  0  0  0.117029  0  0.992777  0  0.087206  0  0.107198  0.11132  0  0.996606  0
H  H33  1  0.65072283  0.22468524  0.68697204  1  0  0.103008  0  0.937081  0  0  0.113873  0  0.994618  0  0  0.117071  0  0.992693  0  0.087253  0  0.107208  0.111359  0  0.996522  0
H  H34  1  0.15072185  0.27531371  0.68697534  1  0  0.103009  0  0.937174  0  0  0.113881  0  0.994688  0  0  0.117077  0  0.992767  0  0.087286  0  0.107244  0.111369  0  0.996594  0
H  H35  1  0.34927913  0.77531342  0.31302486  1  0  0.103028  0  0.937115  0  0  0.113894  0  0.994637  0  0  0.11709  0  0.992715  0  0.087281  0  0.107254  0.111381  0  0.996545  0
H  H36  1  0.56206039  0.44889351  0.22892276  1  0  0.105657  0  0.954915  0  0  0.114534  0  1.01834  0  0  0.117731  0  1.016479  0  0.113214  0  0.108033  0.112065  0  1.02009  0
H  H37  1  0.93794106  0.94889016  0.77108072  1  0  0.105734  0  0.954897  0  0  0.114519  0  1.018395  0  0  0.117714  0  1.016539  0  0.113248  0  0.108075  0.112059  0  1.020147  0
H  H38  1  0.43794008  0.55110898  0.77108168  1  0  0.105706  0  0.954929  0  0  0.114503  0  1.018431  0  0  0.117699  0  1.016571  0  0.113262  0  0.10807  0.11204  0  1.020182  0
H  H39  1  0.06205793  0.05110697  0.22891727  1  0  0.105695  0  0.954934  0  0  0.114456  0  1.018461  0  0  0.117651  0  1.016607  0  0.113289  0  0.108052  0.111997  0  1.020217  0
H  H40  1  0.63701815  0.49110908  0.09374040  1  0  0.087798  0  0.956359  0  0  0.101052  0  1.013437  0  0  0.103811  0  1.012581  0  0.045334  0  0.098909  0.099078  0  1.014152  0
H  H41  1  0.86298774  0.99111186  0.90626203  1  0  0.0878  0  0.956432  0  0  0.101059  0  1.013501  0  0  0.103815  0  1.012647  0  0.045459  0  0.098908  0.099085  0  1.014216  0
H  H42  1  0.36298824  0.50888958  0.90626362  1  0  0.08785  0  0.956357  0  0  0.101101  0  1.013437  0  0  0.103859  0  1.012579  0  0.045409  0  0.098925  0.099127  0  1.014152  0
H  H43  1  0.13701273  0.00888757  0.09373600  1  0  0.087891  0  0.956363  0  0  0.101145  0  1.013431  0  0  0.103902  0  1.012577  0  0.045443  0  0.098951  0.099172  0  1.014146  0
H  H44  1  0.54850219  0.87018649  0.45103857  1  0  0.040942  0  0.907453  0  0  0.048341  0  0.974416  0  0  0.049682  0  0.96887  0  0.153418  0  0.140768  0.047375  0  0.977694  0
H  H45  1  0.95149187  0.37018831  0.54896238  1  0  0.040843  0  0.907395  0  0  0.048274  0  0.974354  0  0  0.049615  0  0.968804  0  0.15346  0  0.140728  0.047304  0  0.977641  0
H  H46  1  0.45149681  0.12980911  0.54895825  1  0  0.040795  0  0.90746  0  0  0.048237  0  0.974408  0  0  0.049576  0  0.96886  0  0.153451  0  0.140728  0.047269  0  0.977688  0
H  H47  1  0.04850269  0.62981112  0.45104075  1  0  0.040908  0  0.907478  0  0  0.048333  0  0.974428  0  0  0.049674  0  0.968881  0  0.153433  0  0.140769  0.047368  0  0.977705  0
C  C48  1  0.00057701  0.67337478  0.66665909  1  0  0.732039  0  3.843392  0  0  0.684101  0  4.138778  0  0  0.720982  0  4.125243  0  1.577667  0  0.23912  0.659459  0  4.141427  0
C  C49  1  0.49942841  0.17337583  0.33334006  1  0  0.732107  0  3.843427  0  0  0.68415  0  4.138825  0  0  0.72103  0  4.125291  0  1.577662  0  0.239137  0.659508  0  4.141476  0
C  C50  1  0.99942791  0.32662465  0.33334314  1  0  0.73207  0  3.843351  0  0  0.68413  0  4.138736  0  0  0.72101  0  4.1252  0  1.57754  0  0.239117  0.659489  0  4.141388  0
C  C51  1  0.50057059  0.82662590  0.66665734  1  0  0.732052  0  3.843302  0  0  0.68407  0  4.138761  0  0  0.72095  0  4.125224  0  1.577688  0  0.23908  0.659428  0  4.141412  0
C  C52  1  0.97480299  0.64736004  0.75002623  1  0  -0.071663  0  3.725389  0  0  -0.048037  0  3.954477  0  0  -0.056873  0  3.976114  0  0.015423  0  -0.009572  -0.042815  0  3.941003  0
C  C53  1  0.52519699  0.14736033  0.24997313  1  0  -0.07183  0  3.725544  0  0  -0.048194  0  3.954651  0  0  -0.057029  0  3.976289  0  0.015407  0  -0.009623  -0.042973  0  3.941177  0
C  C54  1  0.02519897  0.35264015  0.24997651  1  0  -0.071745  0  3.725392  0  0  -0.048152  0  3.95453  0  0  -0.056985  0  3.976166  0  0.015947  0  -0.009616  -0.042932  0  3.941058  0
C  C55  1  0.47480201  0.85264217  0.75002311  1  0  -0.071792  0  3.725455  0  0  -0.048202  0  3.954615  0  0  -0.057034  0  3.976249  0  0.016143  0  -0.009627  -0.042979  0  3.941143  0
C  C56  1  0.03831184  0.71692079  0.80895913  1  0  -0.050482  0  3.728538  0  0  -0.074284  0  3.972097  0  0  -0.073171  0  3.993014  0  -0.072473  0  -0.078085  -0.075054  0  3.958755  0
C  C57  1  0.46169062  0.21692338  0.19104111  1  0  -0.050311  0  3.728517  0  0  -0.074109  0  3.972065  0  0  -0.072997  0  3.992984  0  -0.072581  0  -0.077995  -0.074877  0  3.958721  0
C  C58  1  0.96169159  0.28307787  0.19104365  1  0  -0.05032  0  3.728415  0  0  -0.074094  0  3.971963  0  0  -0.072984  0  3.99288  0  -0.073088  0  -0.078017  -0.074865  0  3.958622  0
C  C59  1  0.53830838  0.78307912  0.80895630  1  0  -0.050299  0  3.728371  0  0  -0.074064  0  3.971911  0  0  -0.072952  0  3.992828  0  -0.073272  0  -0.078009  -0.074834  0  3.958569  0
C  C60  1  0.99831828  0.69954134  0.88606627  1  0  -0.116993  0  3.72375  0  0  -0.131626  0  3.964187  0  0  -0.136324  0  3.986161  0  -0.018128  0  -0.089629  -0.128507  0  3.94931  0
C  C61  1  0.50168318  0.19954470  0.11393371  1  0  -0.117001  0  3.723831  0  0  -0.13165  0  3.964271  0  0  -0.136353  0  3.986248  0  -0.018146  0  -0.08964  -0.12853  0  3.949393  0
C  C62  1  0.00168368  0.30045732  0.11393530  1  0  -0.117156  0  3.723825  0  0  -0.131812  0  3.964285  0  0  -0.136507  0  3.986255  0  -0.017856  0  -0.089685  -0.128692  0  3.949408  0
C  C63  1  0.49831730  0.80045857  0.88606432  1  0  -0.117152  0  3.72379  0  0  -0.131794  0  3.964259  0  0  -0.136492  0  3.986231  0  -0.018046  0  -0.089702  -0.128674  0  3.949381  0
C  C64  1  0.89244769  0.61162113  0.90677001  1  0  0.08805  0  3.829597  0  0  0.107969  0  4.057137  0  0  0.109391  0  4.081885  0  0.006748  0  -0.009728  0.107124  0  4.040226  0
C  C65  1  0.60755080  0.11162295  0.09322872  1  0  0.087957  0  3.829656  0  0  0.107892  0  4.057182  0  0  0.109315  0  4.081931  0  0.006747  0  -0.009776  0.107047  0  4.040271  0
C  C66  1  0.10755722  0.38837753  0.09323105  1  0  0.088195  0  3.829632  0  0  0.108123  0  4.057144  0  0  0.109547  0  4.08189  0  0.007315  0  -0.0097  0.107277  0  4.040234  0
C  C67  1  0.39244671  0.88837955  0.90676981  1  0  0.088187  0  3.829624  0  0  0.108099  0  4.057161  0  0  0.109525  0  4.081908  0  0.006785  0  -0.009686  0.107253  0  4.040251  0
C  C68  1  0.83622346  0.54028287  0.84752543  1  0  -0.119108  0  3.72684  0  0  -0.135216  0  3.973348  0  0  -0.140362  0  3.996021  0  -0.028108  0  -0.087279  -0.131861  0  3.958068  0
C  C69  1  0.66376912  0.04028315  0.15247315  1  0  -0.119052  0  3.726841  0  0  -0.135175  0  3.973347  0  0  -0.140321  0  3.996021  0  -0.028238  0  -0.087219  -0.131822  0  3.958065  0
C  C70  1  0.16377702  0.45971656  0.15247610  1  0  -0.119162  0  3.726715  0  0  -0.135284  0  3.973233  0  0  -0.140432  0  3.995907  0  -0.028542  0  -0.087278  -0.13193  0  3.957953  0
C  C71  1  0.33622839  0.95971934  0.84752480  1  0  -0.119166  0  3.726765  0  0  -0.13529  0  3.97328  0  0  -0.140438  0  3.995954  0  -0.028162  0  -0.087266  -0.131936  0  3.957999  0
C  C72  1  0.87507680  0.55804880  0.77016581  1  0  -0.054054  0  3.737099  0  0  -0.081538  0  3.992883  0  0  -0.079822  0  4.011938  0  -0.068434  0  -0.073753  -0.082266  0  3.979605  0
C  C73  1  0.62491726  0.05804909  0.22983281  1  0  -0.053961  0  3.7371  0  0  -0.081519  0  3.992876  0  0  -0.079806  0  4.011933  0  -0.068261  0  -0.073746  -0.082241  0  3.979597  0
C  C74  1  0.12492664  0.44195063  0.22983638  1  0  -0.053966  0  3.736979  0  0  -0.081458  0  3.992767  0  0  -0.079744  0  4.011823  0  -0.068438  0  -0.073717  -0.082184  0  3.97949  0
C  C75  1  0.37507730  0.94195264  0.77016390  1  0  -0.054021  0  3.737018  0  0  -0.081511  0  3.992809  0  0  -0.079798  0  4.011865  0  -0.068407  0  -0.073736  -0.082239  0  3.979533  0
C  C76  1  0.83440662  0.59222338  0.98545398  1  0  -0.108721  0  3.769579  0  0  -0.130421  0  4.022974  0  0  -0.131917  0  4.043337  0  -0.085304  0  -0.089277  -0.129269  0  4.008908  0
C  C77  1  0.66559483  0.09222750  0.01454542  1  0  -0.1087  0  3.769472  0  0  -0.130406  0  4.022866  0  0  -0.131901  0  4.04323  0  -0.08485  0  -0.08926  -0.129253  0  4.0088  0
C  C78  1  0.16559534  0.40777452  0.01454876  1  0  -0.108907  0  3.769819  0  0  -0.130615  0  4.023221  0  0  -0.132112  0  4.043586  0  -0.084899  0  -0.089322  -0.129461  0  4.009153  0
C  C79  1  0.33440860  0.90777576  0.98545210  1  0  -0.108794  0  3.769729  0  0  -0.130491  0  4.023132  0  0  -0.131987  0  4.043496  0  -0.0849  0  -0.089308  -0.129337  0  4.009064  0
C  C80  1  0.85315050  0.65659882  0.04759597  1  0  -0.117272  0  3.747343  0  0  -0.136965  0  3.999228  0  0  -0.139548  0  4.01904  0  -0.00905  0  -0.091443  -0.135095  0  3.985542  0
C  C81  1  0.64685244  0.15660294  0.95240405  1  0  -0.117273  0  3.747162  0  0  -0.136967  0  3.999053  0  0  -0.139548  0  4.018868  0  -0.00875  0  -0.091468  -0.135098  0  3.985366  0
C  C82  1  0.14685442  0.34339831  0.95240685  1  0  -0.117155  0  3.747277  0  0  -0.136854  0  3.999145  0  0  -0.13944  0  4.018958  0  -0.008702  0  -0.091401  -0.134983  0  3.985458  0
C  C83  1  0.35315100  0.84339879  0.04759347  1  0  -0.11718  0  3.747155  0  0  -0.136865  0  3.999039  0  0  -0.139449  0  4.018849  0  -0.008631  0  -0.091412  -0.134995  0  3.985351  0
C  C84  1  0.79335621  0.63243215  0.12542880  1  0  0.091487  0  3.835043  0  0  0.109054  0  4.067315  0  0  0.11157  0  4.091187  0  -0.104595  0  -0.011307  0.107497  0  4.050954  0
C  C85  1  0.70664820  0.13243474  0.87457126  1  0  0.091485  0  3.83509  0  0  0.109086  0  4.067332  0  0  0.111595  0  4.091199  0  -0.104764  0  -0.011309  0.107531  0  4.050969  0
C  C86  1  0.20664871  0.36756575  0.87457402  1  0  0.091417  0  3.835214  0  0  0.109006  0  4.067469  0  0  0.111529  0  4.09133  0  -0.105042  0  -0.011328  0.107449  0  4.051107  0
C  C87  1  0.29335079  0.86756546  0.12542614  1  0  0.091475  0  3.835012  0  0  0.109001  0  4.067366  0  0  0.111524  0  4.091223  0  -0.104821  0  -0.01134  0.107444  0  4.051004  0
C  C88  1  0.84930378  0.69804909  0.18857405  1  0  -0.127368  0  3.724922  0  0  -0.143378  0  3.971485  0  0  -0.148516  0  3.993566  0  0.014384  0  -0.091511  -0.139964  0  3.956396  0
C  C89  1  0.65069916  0.19804938  0.81142539  1  0  -0.127322  0  3.72497  0  0  -0.14333  0  3.971555  0  0  -0.148463  0  3.993641  0  0.014232  0  -0.091504  -0.139914  0  3.956461  0
C  C90  1  0.15069966  0.30195111  0.81142873  1  0  -0.127364  0  3.72495  0  0  -0.143376  0  3.971553  0  0  -0.148515  0  3.993634  0  0.014361  0  -0.091518  -0.13996  0  3.956463  0
C  C91  1  0.34930132  0.80195005  0.18857206  1  0  -0.127471  0  3.724868  0  0  -0.143472  0  3.971471  0  0  -0.148611  0  3.993553  0  0.007592  0  -0.091548  -0.140055  0  3.956381  0
C  C92  1  0.80422171  0.67402582  0.26447425  1  0  -0.055141  0  3.735588  0  0  -0.07892  0  3.982772  0  0  -0.077665  0  4.002951  0  -0.073834  0  -0.079975  -0.079707  0  3.969826  0
C  C93  1  0.69577974  0.17402380  0.73552573  1  0  -0.055135  0  3.735506  0  0  -0.078936  0  3.982708  0  0  -0.077682  0  4.00289  0  -0.07377  0  -0.079972  -0.079719  0  3.969759  0
C  C94  1  0.19577729  0.32597515  0.73552841  1  0  -0.055144  0  3.735605  0  0  -0.078947  0  3.982806  0  0  -0.077692  0  4.002986  0  -0.073839  0  -0.080033  -0.079732  0  3.969858  0
C  C95  1  0.30422073  0.82597486  0.26447171  1  0  -0.055184  0  3.73553  0  0  -0.078974  0  3.982742  0  0  -0.07772  0  4.002924  0  -0.0738  0  -0.080046  -0.079759  0  3.969794  0
C  C96  1  0.70119474  0.58356203  0.27917295  1  0  -0.080074  0  3.74158  0  0  -0.056729  0  3.969959  0  0  -0.066684  0  3.994238  0  0.011298  0  -0.017994  -0.050899  0  3.95533  0
C  C97  1  0.79880671  0.08356078  0.72082820  1  0  -0.08007  0  3.74166  0  0  -0.056725  0  3.970034  0  0  -0.066681  0  3.994312  0  0.011356  0  -0.017999  -0.050895  0  3.955405  0
C  C98  1  0.29880574  0.41643817  0.72082975  1  0  -0.080146  0  3.741725  0  0  -0.056791  0  3.970082  0  0  -0.066746  0  3.994361  0  0.011727  0  -0.01801  -0.05096  0  3.955452  0
C  C99  1  0.20119376  0.91643865  0.27916983  1  0  -0.080061  0  3.741676  0  0  -0.056735  0  3.970023  0  0  -0.066689  0  3.994299  0  0.011691  0  -0.017972  -0.050903  0  3.955395  0
C  C100  1  0.64159427  0.51884458  0.21647593  1  0  -0.056481  0  3.751065  0  0  -0.080685  0  3.999168  0  0  -0.07954  0  4.020333  0  -0.113025  0  -0.080017  -0.081424  0  3.985598  0
C  C101  1  0.85840719  0.01884333  0.78352697  1  0  -0.056483  0  3.75104  0  0  -0.080597  0  3.999153  0  0  -0.079451  0  4.020318  0  -0.113439  0  -0.079997  -0.081348  0  3.985594  0
C  C102  1  0.35840769  0.48115638  0.78352797  1  0  -0.056375  0  3.750995  0  0  -0.080508  0  3.999086  0  0  -0.079364  0  4.020255  0  -0.113422  0  -0.079965  -0.081257  0  3.985524  0
C  C103  1  0.14159033  0.98115456  0.21647157  1  0  -0.056343  0  3.75097  0  0  -0.080418  0  3.999044  0  0  -0.079271  0  4.020207  0  -0.113451  0  -0.079938  -0.081175  0  3.985491  0
C  C104  1  0.68485210  0.54315081  0.14101312  1  0  -0.124375  0  3.744857  0  0  -0.14162  0  3.992788  0  0  -0.146673  0  4.014666  0  0.008123  0  -0.091733  -0.138302  0  3.977992  0
C  C105  1  0.81515231  0.04315263  0.85898868  1  0  -0.124487  0  3.744915  0  0  -0.141752  0  3.992852  0  0  -0.146798  0  4.014726  0  0.008042  0  -0.0918  -0.138433  0  3.978058  0
C  C106  1  0.31515281  0.45684785  0.85899027  1  0  -0.124508  0  3.744919  0  0  -0.141765  0  3.992855  0  0  -0.146817  0  4.014728  0  0.008274  0  -0.09181  -0.138445  0  3.97806  0
C  C107  1  0.18484669  0.95684680  0.14100931  1  0  -0.124609  0  3.744921  0  0  -0.14186  0  3.992869  0  0  -0.146912  0  4.014742  0  0.008045  0  -0.091858  -0.138539  0  3.978077  0
C  C108  1  0.65200556  0.55348002  0.35944655  1  0  0.725723  0  3.848172  0  0  0.682081  0  4.138643  0  0  0.717616  0  4.127141  0  1.577852  0  0.234398  0.657528  0  4.142275  0
C  C109  1  0.84799442  0.05347648  0.64055455  1  0  0.725496  0  3.84792  0  0  0.681881  0  4.138341  0  0  0.717415  0  4.126838  0  1.577736  0  0.234325  0.65733  0  4.141973  0
C  C110  1  0.34799196  0.44652247  0.64055606  1  0  0.725448  0  3.848257  0  0  0.681842  0  4.138645  0  0  0.717377  0  4.127146  0  1.577375  0  0.234326  0.65729  0  4.142274  0
C  C111  1  0.15200458  0.94652142  0.35944227  1  0  0.725534  0  3.848185  0  0  0.681958  0  4.138514  0  0  0.717495  0  4.12701  0  1.577353  0  0.234395  0.657406  0  4.142148  0
C  C112  1  0.70405167  0.86984141  0.47499068  1  0  0.664292  0  3.808211  0  0  0.595346  0  4.121763  0  0  0.630912  0  4.105955  0  1.53312  0  0.185979  0.571663  0  4.12186  0
C  C113  1  0.79594239  0.36984170  0.52501027  1  0  0.664469  0  3.808076  0  0  0.595499  0  4.121626  0  0  0.631065  0  4.105818  0  1.532979  0  0.18603  0.571815  0  4.121724  0
C  C114  1  0.29594585  0.13015648  0.52500843  1  0  0.664593  0  3.808015  0  0  0.595605  0  4.121587  0  0  0.631173  0  4.105774  0  1.532792  0  0.186086  0.571921  0  4.121688  0
C  C115  1  0.20405217  0.63015696  0.47499111  1  0  0.664418  0  3.808152  0  0  0.595438  0  4.121732  0  0  0.631002  0  4.105922  0  1.532934  0  0.186031  0.571753  0  4.121831  0
O  O116  1  0.92409583  0.61313486  0.61348475  1  0  -0.765498  0  1.998789  0  0  -0.723356  0  2.259465  0  0  -0.748038  0  2.244124  0  -1.211878  0  -0.42798  -0.696399  0  2.269437  0
O  O117  1  0.57590118  0.11313437  0.38651395  1  0  -0.765524  0  1.998766  0  0  -0.723382  0  2.259459  0  0  -0.748066  0  2.24412  0  -1.211791  0  -0.428004  -0.696428  0  2.269429  0
O  O118  1  0.07590316  0.38686534  0.38651733  1  0  -0.765495  0  1.998783  0  0  -0.723354  0  2.259475  0  0  -0.748037  0  2.244134  0  -1.211844  0  -0.427978  -0.696402  0  2.269447  0
O  O119  1  0.42409486  0.88686659  0.61348280  1  0  -0.765474  0  1.998728  0  0  -0.723317  0  2.259441  0  0  -0.748001  0  2.244099  0  -1.211908  0  -0.427956  -0.696366  0  2.269414  0
O  O120  1  0.09001027  0.75567412  0.65186082  1  0  -0.720265  0  2.050832  0  0  -0.678278  0  2.310342  0  0  -0.703066  0  2.298626  0  -1.191123  0  -0.389753  -0.652637  0  2.318607  0
O  O121  1  0.40999515  0.25567517  0.34813950  1  0  -0.720282  0  2.050841  0  0  -0.678277  0  2.310343  0  0  -0.703064  0  2.298626  0  -1.191178  0  -0.389735  -0.652636  0  2.318609  0
O  O122  1  0.90999317  0.24432454  0.34814020  1  0  -0.720307  0  2.050809  0  0  -0.678306  0  2.310315  0  0  -0.703093  0  2.298598  0  -1.19108  0  -0.389767  -0.652664  0  2.318582  0
O  O123  1  0.59000533  0.74432579  0.65186028  1  0  -0.720282  0  2.050794  0  0  -0.67826  0  2.31031  0  0  -0.703048  0  2.298594  0  -1.191224  0  -0.389736  -0.652615  0  2.318576  0
O  O124  1  0.69393628  0.61634174  0.41540726  1  0  -0.753698  0  2.017657  0  0  -0.713354  0  2.271321  0  0  -0.737905  0  2.258364  0  -1.212403  0  -0.406103  -0.687682  0  2.281259  0
O  O125  1  0.80606518  0.11633896  0.58459447  1  0  -0.753636  0  2.017677  0  0  -0.713279  0  2.271298  0  0  -0.737831  0  2.258343  0  -1.212322  0  -0.406126  -0.687609  0  2.281235  0
O  O126  1  0.30606420  0.38365922  0.58459602  1  0  -0.753558  0  2.017687  0  0  -0.713218  0  2.27133  0  0  -0.73777  0  2.258376  0  -1.212315  0  -0.406087  -0.68755  0  2.281265  0
O  O127  1  0.19393382  0.88365970  0.41540352  1  0  -0.753659  0  2.017701  0  0  -0.713323  0  2.27133  0  0  -0.737875  0  2.258371  0  -1.212281  0  -0.406144  -0.687655  0  2.281268  0
O  O128  1  0.56913096  0.46667325  0.36665854  1  0  -0.732607  0  2.040191  0  0  -0.692314  0  2.295477  0  0  -0.716161  0  2.282962  0  -1.200223  0  -0.405053  -0.666612  0  2.305002  0
O  O129  1  0.93086902  0.96666913  0.63334257  1  0  -0.73246  0  2.039855  0  0  -0.692185  0  2.295153  0  0  -0.716032  0  2.28264  0  -1.200224  0  -0.404965  -0.666485  0  2.304681  0
O  O130  1  0.43086656  0.53333001  0.63334408  1  0  -0.732466  0  2.040121  0  0  -0.692187  0  2.295396  0  0  -0.716035  0  2.282884  0  -1.200149  0  -0.404997  -0.666482  0  2.304924  0
O  O131  1  0.06912850  0.03332876  0.36665539  1  0  -0.732473  0  2.040016  0  0  -0.692235  0  2.295345  0  0  -0.716085  0  2.282835  0  -1.200132  0  -0.405014  -0.666531  0  2.304874  0
O  O132  1  0.77766308  0.78960408  0.50793008  1  0  -0.755533  0  2.110357  0  0  -0.716683  0  2.385214  0  0  -0.740239  0  2.370474  0  -1.211652  0  -0.399981  -0.685709  0  2.394282  0
O  O133  1  0.72233394  0.28960360  0.49207037  1  0  -0.755539  0  2.110319  0  0  -0.716727  0  2.385261  0  0  -0.740283  0  2.370522  0  -1.211618  0  -0.399967  -0.685755  0  2.39433  0
O  O134  1  0.22233444  0.21039458  0.49206962  1  0  -0.755625  0  2.110305  0  0  -0.716783  0  2.385201  0  0  -0.740337  0  2.370457  0  -1.21163  0  -0.399996  -0.68581  0  2.39427  0
O  O135  1  0.27766506  0.71039507  0.50792996  1  0  -0.755574  0  2.110273  0  0  -0.716742  0  2.385196  0  0  -0.740298  0  2.370454  0  -1.211632  0  -0.400011  -0.685769  0  2.394267  0
O  O136  1  0.80870462  0.94956651  0.46884541  1  0  -0.769834  0  2.20792  0  0  -0.719584  0  2.471403  0  0  -0.744711  0  2.458343  0  -1.222669  0  -0.422095  -0.688581  0  2.480742  0
O  O137  1  0.69128648  0.44956679  0.53115488  1  0  -0.769924  0  2.20789  0  0  -0.719674  0  2.471382  0  0  -0.744803  0  2.458323  0  -1.222625  0  -0.422132  -0.688668  0  2.480722  0
O  O138  1  0.19129142  0.05043139  0.53115192  1  0  -0.769931  0  2.207868  0  0  -0.719679  0  2.471384  0  0  -0.744807  0  2.458323  0  -1.222403  0  -0.422167  -0.688675  0  2.480724  0
O  O139  1  0.30870660  0.55043264  0.46884704  1  0  -0.769872  0  2.207931  0  0  -0.719615  0  2.471437  0  0  -0.744744  0  2.45838  0  -1.222529  0  -0.422121  -0.688612  0  2.480778  0
