# generated using pymatgen
data_H14Pb2C10N2O9
_symmetry_space_group_name_H-M   'P 1'
_cell_length_a   8.45402934
_cell_length_b   8.46055351
_cell_length_c   11.00436328
_cell_angle_alpha   71.29026231
_cell_angle_beta   89.02284121
_cell_angle_gamma   76.64310769
_symmetry_Int_Tables_number   1
_chemical_formula_structural   H14Pb2C10N2O9
_chemical_formula_sum   'H28 Pb4 C20 N4 O18'
_cell_volume   723.94493708
_cell_formula_units_Z   2
loop_
 _symmetry_equiv_pos_site_id
 _symmetry_equiv_pos_as_xyz
  1  'x, y, z'
loop_
 _atom_site_type_symbol
 _atom_site_label
 _atom_site_symmetry_multiplicity
 _atom_site_fract_x
 _atom_site_fract_y
 _atom_site_fract_z
 _atom_site_occupancy
 _atom_site_hle17_bader_spin_density
 _atom_site_hle17_ddec_charge
 _atom_site_hle17_ddec_spin_density
 _atom_site_hle17_ddec_sum_bond_order
 _atom_site_hle17_magmom
 _atom_site_hse06_10hf_bader_spin_density
 _atom_site_hse06_10hf_ddec_charge
 _atom_site_hse06_10hf_ddec_spin_density
 _atom_site_hse06_10hf_ddec_sum_bond_order
 _atom_site_hse06_10hf_magmom
 _atom_site_hse06_bader_spin_density
 _atom_site_hse06_ddec_charge
 _atom_site_hse06_ddec_spin_density
 _atom_site_hse06_ddec_sum_bond_order
 _atom_site_hse06_magmom
 _atom_site_pbe_bader_spin_density
 _atom_site_pbe_cm5_charge
 _atom_site_pbe_ddec_charge
 _atom_site_pbe_ddec_spin_density
 _atom_site_pbe_ddec_sum_bond_order
 _atom_site_pbe_magmom
H  H0  1  0.65848519  0.02569123  0.84934755  1  0  0.115476  0  0.939672  0  0  0.127607  0  1.005048  0  0  0.130247  0  1.003218  0  0  0.119105  0.125653  0  1.006523  0
H  H1  1  0.34151312  0.97430909  0.15065184  1  0  0.115495  0  0.939663  0  0  0.127625  0  1.005043  0  0  0.130264  0  1.003217  0  0  0.119117  0.125671  0  1.006519  0
H  H2  1  0.76070526  0.02200788  0.98964002  1  0  0.115406  0  0.927001  0  0  0.124443  0  0.994137  0  0  0.127637  0  0.991959  0  0  0.112658  0.122094  0  0.995878  0
H  H3  1  0.23929514  0.97799373  0.01035813  1  0  0.115379  0  0.927026  0  0  0.124422  0  0.994159  0  0  0.127618  0  0.991979  0  0  0.112649  0.122073  0  0.9959  0
H  H4  1  0.90056790  0.44727196  0.98757025  1  0  0.058922  0  0.939519  0  0  0.077371  0  1.004044  0  0  0.077899  0  1.003633  0  0  0.100192  0.076873  0  1.00448  0
H  H5  1  0.09943160  0.55272837  0.01242822  1  0  0.05898  0  0.939561  0  0  0.077433  0  1.004071  0  0  0.077962  0  1.00366  0  0  0.100217  0.076935  0  1.004507  0
H  H6  1  0.95761761  0.29555689  0.90650879  1  0  0.095679  0  0.934932  0  0  0.109074  0  0.998981  0  0  0.111047  0  0.997341  0  0  0.114268  0.107479  0  1.000393  0
H  H7  1  0.04238280  0.70444472  0.09348754  1  0  0.095659  0  0.934977  0  0  0.10906  0  0.999029  0  0  0.111025  0  0.997397  0  0  0.114254  0.107465  0  1.000441  0
H  H8  1  0.07632150  0.44133722  0.74371936  1  0  0.125079  0  0.945714  0  0  0.135945  0  1.007769  0  0  0.138737  0  1.006514  0  0  0.119804  0.133938  0  1.008724  0
H  H9  1  0.92367682  0.55866311  0.25627821  1  0  0.125022  0  0.945721  0  0  0.135903  0  1.007784  0  0  0.138695  0  1.006528  0  0  0.119785  0.133896  0  1.008741  0
H  H10  1  0.05892403  0.62349028  0.79670616  1  0  0.097176  0  0.92617  0  0  0.110916  0  0.988913  0  0  0.113247  0  0.986947  0  0  0.107275  0.109165  0  0.99049  0
H  H11  1  0.94107516  0.37651133  0.20329473  1  0  0.09712  0  0.926196  0  0  0.110904  0  0.988917  0  0  0.113233  0  0.986956  0  0  0.107271  0.109153  0  0.990489  0
H  H12  1  0.72093807  0.25748711  0.04858700  1  0  0.081348  0  0.945974  0  0  0.095441  0  1.012099  0  0  0.097002  0  1.011  0  0  0.107256  0.094255  0  1.013036  0
H  H13  1  0.27906526  0.74251193  0.95141266  1  0  0.081343  0  0.945961  0  0  0.095461  0  1.012078  0  0  0.097025  0  1.010977  0  0  0.107255  0.094276  0  1.013014  0
H  H14  1  0.60755014  0.46030653  0.95029568  1  0  0.06199  0  0.956759  0  0  0.079921  0  1.020815  0  0  0.079936  0  1.021275  0  0  0.105788  0.079744  0  1.020735  0
H  H15  1  0.39245230  0.53969123  0.04970522  1  0  0.061986  0  0.956787  0  0  0.079942  0  1.020818  0  0  0.079973  0  1.021259  0  0  0.105793  0.079759  0  1.020745  0
H  H16  1  0.77377362  0.81427822  0.72349940  1  0  0.127294  0  0.954491  0  0  0.143417  0  1.011955  0  0  0.145859  0  1.010786  0  0  0.120282  0.141533  0  1.013021  0
H  H17  1  0.22622141  0.18572082  0.27650306  1  0  0.127305  0  0.954384  0  0  0.143422  0  1.011888  0  0  0.145875  0  1.010701  0  0  0.120274  0.141522  0  1.012971  0
H  H18  1  0.75766133  0.71788319  0.88975186  1  0  0.098089  0  0.926112  0  0  0.112147  0  0.990108  0  0  0.114413  0  0.988686  0  0  0.109595  0.110459  0  0.991275  0
H  H19  1  0.24233757  0.28211457  0.11024634  1  0  0.098047  0  0.926125  0  0  0.112117  0  0.990143  0  0  0.114383  0  0.988722  0  0  0.109612  0.11043  0  0.991307  0
H  H20  1  0.40783489  0.41586640  0.86229490  1  0  0.106019  0  0.926687  0  0  0.121367  0  0.985898  0  0  0.123414  0  0.984963  0  0  0.115635  0.119883  0  0.986672  0
H  H21  1  0.59216427  0.58412493  0.13770668  1  0  0.105996  0  0.926697  0  0  0.121364  0  0.985916  0  0  0.123412  0  0.984982  0  0  0.115646  0.119875  0  0.986684  0
H  H22  1  0.44320169  0.19897195  0.96606899  1  0  0.102873  0  0.930964  0  0  0.11376  0  0.997758  0  0  0.116266  0  0.996279  0  0  0.107469  0.111886  0  0.999032  0
H  H23  1  0.55679719  0.80102580  0.03393193  1  0  0.102878  0  0.93093  0  0  0.113787  0  0.997713  0  0  0.116291  0  0.996233  0  0  0.107465  0.111908  0  0.998981  0
H  H24  1  0.40371861  0.88476398  0.41362546  1  0  0.427165  0  0.868722  0  0  0.399199  0  0.928241  0  0  0.409031  0  0.913937  0  0  0.293251  0.392297  0  0.938252  0
H  H25  1  0.59628176  0.11523763  0.58637541  1  0  0.427189  0  0.868701  0  0  0.399217  0  0.928232  0  0  0.40905  0  0.913925  0  0  0.293251  0.392314  0  0.938243  0
H  H26  1  0.23029474  0.87272449  0.46347618  1  0  0.405397  0  0.910007  0  0  0.376637  0  0.97365  0  0  0.38624  0  0.959605  0  0  0.288365  0.369915  0  0.983461  0
H  H27  1  0.76970476  0.12727584  0.53652320  1  0  0.405375  0  0.910009  0  0  0.376614  0  0.973653  0  0  0.386216  0  0.959609  0  0  0.288336  0.369892  0  0.983464  0
Pb  Pb28  1  0.69087815  0.45676568  0.62454059  1  0  1.180962  0  1.534372  0  0  0.983813  0  1.92031  0  0  1.04064  0  1.88366  0  0  0.599108  0.942204  0  1.947162  0
Pb  Pb29  1  0.30912646  0.54324365  0.37545018  1  0  1.180933  0  1.534399  0  0  0.983776  0  1.920345  0  0  1.040619  0  1.883666  0  0  0.599109  0.94218  0  1.947188  0
Pb  Pb30  1  0.18854804  0.03245807  0.65945844  1  0  1.386938  0  1.335398  0  0  1.205104  0  1.729606  0  0  1.270411  0  1.679433  0  0  0.650481  1.157646  0  1.764916  0
Pb  Pb31  1  0.81145054  0.96753583  0.34054252  1  0  1.38695  0  1.335427  0  0  1.205112  0  1.729645  0  0  1.270421  0  1.679463  0  0  0.650503  1.157656  0  1.764951  0
C  C32  1  0.98259004  0.68459822  0.59928766  1  0  0.696488  0  3.873365  0  0  0.644941  0  4.172331  0  0  0.679012  0  4.166579  0  0  0.218262  0.621782  0  4.175124  0
C  C33  1  0.01741478  0.31540468  0.40071287  1  0  0.696361  0  3.8734  0  0  0.644761  0  4.1725  0  0  0.678831  0  4.166748  0  0  0.218142  0.621601  0  4.175293  0
C  C34  1  0.73500193  0.09188071  0.88590024  1  0  -0.183202  0  3.611789  0  0  -0.232339  0  3.851979  0  0  -0.235129  0  3.859812  0  0  -0.068221  -0.230445  0  3.84671  0
C  C35  1  0.26499580  0.90812219  0.11409853  1  0  -0.183189  0  3.611786  0  0  -0.232333  0  3.851903  0  0  -0.235121  0  3.859729  0  0  -0.06823  -0.230426  0  3.846647  0
C  C36  1  0.86032354  0.40358655  0.91149021  1  0  -0.032978  0  3.645672  0  0  -0.096339  0  3.91029  0  0  -0.092885  0  3.921433  0  0  -0.070215  -0.09844  0  3.902491  0
C  C37  1  0.13967596  0.59641378  0.08850827  1  0  -0.033018  0  3.645741  0  0  -0.096396  0  3.910379  0  0  -0.092937  0  3.921526  0  0  -0.07023  -0.098499  0  3.902582  0
C  C38  1  0.89259917  0.06986879  0.81771357  1  0  0.682784  0  3.85474  0  0  0.628946  0  4.157058  0  0  0.663871  0  4.150701  0  0  0.216081  0.605185  0  4.160387  0
C  C39  1  0.10740209  0.93012897  0.18228551  1  0  0.68265  0  3.854849  0  0  0.628898  0  4.15705  0  0  0.663822  0  4.150698  0  0  0.216083  0.605137  0  4.160376  0
C  C40  1  0.99841706  0.56744289  0.73853851  1  0  -0.184376  0  3.630899  0  0  -0.239955  0  3.880436  0  0  -0.241585  0  3.886983  0  0  -0.070667  -0.238737  0  3.875772  0
C  C41  1  0.00158331  0.43255872  0.26146236  1  0  -0.184157  0  3.630823  0  0  -0.239803  0  3.880455  0  0  -0.24144  0  3.887018  0  0  -0.070638  -0.238581  0  3.875782  0
C  C42  1  0.70345099  0.34816381  0.94981291  1  0  -0.036711  0  3.642152  0  0  -0.095701  0  3.897923  0  0  -0.092796  0  3.910644  0  0  -0.071018  -0.097463  0  3.888945  0
C  C43  1  0.29655146  0.65183395  0.05018616  1  0  -0.036702  0  3.642107  0  0  -0.095738  0  3.897928  0  0  -0.09285  0  3.910658  0  0  -0.071033  -0.097487  0  3.888968  0
C  C44  1  0.73764209  0.70565505  0.79482456  1  0  -0.202991  0  3.647944  0  0  -0.257874  0  3.891418  0  0  -0.260563  0  3.900504  0  0  -0.078711  -0.255921  0  3.885081  0
C  C45  1  0.26235532  0.29434399  0.20517606  1  0  -0.20286  0  3.647798  0  0  -0.257781  0  3.89133  0  0  -0.260477  0  3.900414  0  0  -0.078735  -0.255818  0  3.884999  0
C  C46  1  0.39103368  0.24033806  0.76535136  1  0  0.699327  0  3.856817  0  0  0.646147  0  4.159722  0  0  0.680689  0  4.1524  0  0  0.219086  0.622692  0  4.16367  0
C  C47  1  0.60896758  0.75966483  0.23465010  1  0  0.69933  0  3.856921  0  0  0.646304  0  4.159604  0  0  0.680853  0  4.152282  0  0  0.219154  0.622843  0  4.163551  0
C  C48  1  0.55500817  0.74130621  0.76344485  1  0  0.674131  0  3.886436  0  0  0.623232  0  4.191317  0  0  0.657574  0  4.184897  0  0  0.208554  0.599862  0  4.194675  0
C  C49  1  0.44498952  0.25869154  0.23655699  1  0  0.674003  0  3.886548  0  0  0.623101  0  4.191474  0  0  0.657441  0  4.185064  0  0  0.208532  0.599736  0  4.194821  0
C  C50  1  0.46906106  0.28222737  0.87183481  1  0  -0.176694  0  3.641981  0  0  -0.23344  0  3.895304  0  0  -0.235002  0  3.902568  0  0  -0.070399  -0.232395  0  3.890329  0
C  C51  1  0.53094283  0.71776910  0.12816820  1  0  -0.176705  0  3.641954  0  0  -0.233542  0  3.895257  0  0  -0.235108  0  3.902523  0  0  -0.0704  -0.232458  0  3.890254  0
N  N52  1  0.64444546  0.27181657  0.86112264  1  0  -0.172071  0  3.245789  0  0  -0.076923  0  3.471291  0  0  -0.093425  0  3.495056  0  0  -0.316023  -0.065289  0  3.45448  0
N  N53  1  0.35555403  0.72818376  0.13887674  1  0  -0.171991  0  3.245601  0  0  -0.076824  0  3.471142  0  0  -0.093327  0  3.494915  0  0  -0.315996  -0.065244  0  3.454382  0
N  N54  1  0.83927238  0.54287738  0.78665382  1  0  -0.165693  0  3.265933  0  0  -0.06654  0  3.492263  0  0  -0.083382  0  3.516529  0  0  -0.313434  -0.054763  0  3.47507  0
N  N55  1  0.16072741  0.45712166  0.21334587  1  0  -0.165823  0  3.26592  0  0  -0.066623  0  3.492282  0  0  -0.083463  0  3.516548  0  0  -0.313441  -0.054846  0  3.475089  0
O  O56  1  0.07871251  0.78251242  0.56415785  1  0  -0.7025  0  2.027684  0  0  -0.637112  0  2.266373  0  0  -0.667192  0  2.259854  0  0  -0.303475  -0.61592  0  2.27021  0
O  O57  1  0.92129053  0.21748790  0.43584241  1  0  -0.702502  0  2.027522  0  0  -0.637099  0  2.266277  0  0  -0.66718  0  2.25976  0  0  -0.303486  -0.615904  0  2.270107  0
O  O58  1  0.91484288  0.19656239  0.72170423  1  0  -0.679661  0  2.075012  0  0  -0.59073  0  2.316324  0  0  -0.62419  0  2.309471  0  0  -0.28919  -0.56708  0  2.320152  0
O  O59  1  0.08515339  0.80344179  0.27829241  1  0  -0.679534  0  2.075142  0  0  -0.590653  0  2.316428  0  0  -0.624119  0  2.309587  0  0  -0.289183  -0.567004  0  2.320254  0
O  O60  1  0.87168509  0.67632955  0.52494716  1  0  -0.668134  0  2.00294  0  0  -0.58733  0  2.243484  0  0  -0.620888  0  2.237089  0  0  -0.285936  -0.563589  0  2.247001  0
O  O61  1  0.12831172  0.32367720  0.47505703  1  0  -0.668045  0  2.002955  0  0  -0.587222  0  2.243532  0  0  -0.620778  0  2.237134  0  0  -0.285816  -0.563483  0  2.247051  0
O  O62  1  0.45572741  0.26038320  0.65812219  1  0  -0.718593  0  2.030235  0  0  -0.643008  0  2.260326  0  0  -0.673999  0  2.254539  0  0  -0.302712  -0.620998  0  2.263517  0
O  O63  1  0.54427620  0.73961455  0.34187960  1  0  -0.718547  0  2.030283  0  0  -0.643031  0  2.260337  0  0  -0.674013  0  2.254519  0  0  -0.302686  -0.621023  0  2.263532  0
O  O64  1  0.50008192  0.65727654  0.70285751  1  0  -0.647185  0  1.994475  0  0  -0.574075  0  2.232301  0  0  -0.603617  0  2.224375  0  0  -0.302599  -0.553151  0  2.236904  0
O  O65  1  0.49991307  0.34271736  0.29714802  1  0  -0.647154  0  1.994622  0  0  -0.574029  0  2.232444  0  0  -0.603573  0  2.224521  0  0  -0.302569  -0.553106  0  2.237043  0
O  O66  1  0.25879052  0.19261127  0.79254409  1  0  -0.636285  0  1.980622  0  0  -0.569081  0  2.222653  0  0  -0.598576  0  2.213048  0  0  -0.298899  -0.548382  0  2.228451  0
O  O67  1  0.74121665  0.80738649  0.20745676  1  0  -0.636311  0  1.980621  0  0  -0.569175  0  2.222622  0  0  -0.598651  0  2.212965  0  0  -0.29897  -0.548477  0  2.228423  0
O  O68  1  0.99349162  0.92607632  0.85409665  1  0  -0.631039  0  1.908617  0  0  -0.571445  0  2.143126  0  0  -0.600845  0  2.137232  0  0  -0.303255  -0.550859  0  2.146477  0
O  O69  1  0.00650641  0.07393043  0.14590298  1  0  -0.631039  0  1.908508  0  0  -0.571451  0  2.142939  0  0  -0.600853  0  2.137048  0  0  -0.303259  -0.550864  0  2.146287  0
O  O70  1  0.46809722  0.86209315  0.79668914  1  0  -0.65233  0  1.975329  0  0  -0.590466  0  2.215756  0  0  -0.620353  0  2.209215  0  0  -0.308008  -0.569512  0  2.219642  0
O  O71  1  0.53190110  0.13790718  0.20330843  1  0  -0.652293  0  1.975282  0  0  -0.590405  0  2.21569  0  0  -0.620294  0  2.209152  0  0  -0.308004  -0.569452  0  2.219573  0
O  O72  1  0.30327533  0.95145022  0.43687409  1  0  -0.84812  0  1.815624  0  0  -0.797098  0  1.976543  0  0  -0.81879  0  1.949538  0  0  -0.579774  -0.781625  0  1.99526  0
O  O73  1  0.69672444  0.04854882  0.56312742  1  0  -0.848112  0  1.815564  0  0  -0.797092  0  1.976508  0  0  -0.818779  0  1.949502  0  0  -0.579754  -0.781622  0  1.995225  0
