# generated using pymatgen
data_CuH8C6N5O
_symmetry_space_group_name_H-M   'P 1'
_cell_length_a   6.77013169
_cell_length_b   7.67023897
_cell_length_c   7.74973839
_cell_angle_alpha   89.74132394
_cell_angle_beta   86.45692186
_cell_angle_gamma   88.89710878
_symmetry_Int_Tables_number   1
_chemical_formula_structural   CuH8C6N5O
_chemical_formula_sum   'Cu2 H16 C12 N10 O2'
_cell_volume   401.58666263
_cell_formula_units_Z   2
loop_
 _symmetry_equiv_pos_site_id
 _symmetry_equiv_pos_as_xyz
  1  'x, y, z'
loop_
 _atom_site_type_symbol
 _atom_site_label
 _atom_site_symmetry_multiplicity
 _atom_site_fract_x
 _atom_site_fract_y
 _atom_site_fract_z
 _atom_site_occupancy
 _atom_site_hle17_ddec_charge
 _atom_site_hle17_ddec_spin_density
 _atom_site_hle17_ddec_sum_bond_order
 _atom_site_hle17_magmom
 _atom_site_hse06_10hf_ddec_charge
 _atom_site_hse06_10hf_ddec_spin_density
 _atom_site_hse06_10hf_ddec_sum_bond_order
 _atom_site_hse06_10hf_magmom
 _atom_site_hse06_ddec_charge
 _atom_site_hse06_ddec_spin_density
 _atom_site_hse06_ddec_sum_bond_order
 _atom_site_hse06_magmom
 _atom_site_pbe_cm5_charge
 _atom_site_pbe_ddec_charge
 _atom_site_pbe_ddec_spin_density
 _atom_site_pbe_ddec_sum_bond_order
 _atom_site_pbe_magmom
Cu  Cu0  1  0.14976121  0.01528982  0.17801887  1  0.836043  -0.629003  1.876763  -0.443  0.809291  -0.755888  2.288703  -0.58  0.894239  -0.847585  2.220677  -0.672  0.754444  0.755046  -0.630707  2.336868  -0.477
Cu  Cu1  1  0.85022619  0.98469145  0.82203137  1  0.836051  0.62901  1.876393  0.443  0.809302  0.755913  2.2884  0.58  0.894304  0.847606  2.220351  0.672  0.754378  0.755052  0.630732  2.33664  0.477
H  H2  1  0.87479181  0.22037832  0.15316987  1  0.297726  0.000768  0.921306  0.002  0.287451  -0.000301  0.981326  0.0  0.294468  -2.1e-05  0.978167  0.001  0.289399  0.282192  -0.000452  0.984254  0.0
H  H3  1  0.12522891  0.77963259  0.84680803  1  0.297838  -0.000769  0.92132  -0.002  0.287504  0.000301  0.981391  0.0  0.294528  2.1e-05  0.978229  -0.001  0.289389  0.282239  0.000452  0.984331  0.0
H  H4  1  0.87425610  0.16371068  0.35983965  1  0.303362  0.000616  0.936258  0.001  0.292741  -0.000312  0.995862  0.0  0.298814  -2.8e-05  0.993545  0.001  0.284717  0.288475  -0.000461  0.997782  0.0
H  H5  1  0.12570886  0.83634172  0.64015314  1  0.303544  -0.000618  0.935936  -0.002  0.292914  0.000311  0.995543  0.0  0.298989  2.6e-05  0.993226  -0.001  0.284771  0.288637  0.000459  0.997478  0.0
H  H6  1  0.51424502  0.40716465  0.10681638  1  0.069651  -0.005705  0.935199  -0.007  0.084134  -0.003871  0.998407  -0.005  0.08359  -0.002818  0.9984  -0.004  0.104814  0.08444  -0.004074  0.998211  -0.005
H  H7  1  0.48577786  0.59278513  0.89318022  1  0.069615  0.005697  0.935164  0.007  0.084102  0.003869  0.998442  0.005  0.08356  0.002815  0.998438  0.004  0.104831  0.084401  0.004072  0.998245  0.005
H  H8  1  0.44070034  0.34323555  0.32034068  1  0.061941  -0.00039  0.934272  -0.001  0.0776  -0.000243  0.998052  0.0  0.07626  -0.000262  0.99871  0.0  0.100966  0.07869  -0.000205  0.99741  0.0
H  H9  1  0.55931047  0.65672330  0.67965921  1  0.061943  0.000379  0.934126  0.001  0.077585  0.000241  0.997984  0.0  0.076252  0.000262  0.998631  0.0  0.100975  0.07867  0.000204  0.997337  0.0
H  H10  1  0.22921341  0.58332504  0.20448312  1  0.097284  0.00044  0.952635  0.0  0.11079  0.000169  1.017207  0.0  0.110881  0.000155  1.018716  0.0  0.097581  0.11056  0.00015  1.016286  0.0
H  H11  1  0.77082470  0.41665741  0.79550815  1  0.097237  -0.000447  0.952694  0.0  0.110802  -0.000169  1.017223  0.0  0.110893  -0.000155  1.018736  0.0  0.09759  0.110577  -0.00015  1.016298  0.0
H  H12  1  0.15378818  0.44278786  0.04286951  1  0.077701  0.000243  0.930737  0.0  0.099338  0.000153  0.985408  0.0  0.099513  0.000117  0.986629  0.0  0.094139  0.099128  0.000162  0.984652  0.0
H  H13  1  0.84624091  0.55720107  0.95712487  1  0.077628  -0.000246  0.930476  0.0  0.099281  -0.000154  0.98517  0.0  0.099457  -0.000117  0.986389  0.0  0.094119  0.099071  -0.000162  0.984413  0.0
H  H14  1  0.09399885  0.37098683  0.43200050  1  0.055756  1e-06  0.940698  0.0  0.072247  3.9e-05  1.004243  0.0  0.070529  5.7e-05  1.006478  0.0  0.104012  0.073227  1.4e-05  1.002878  0.0
H  H15  1  0.90600445  0.62902412  0.56799665  1  0.055814  2e-06  0.940839  0.0  0.072375  -4e-05  1.004344  0.0  0.070657  -5.7e-05  1.006578  0.0  0.104025  0.073345  -1.5e-05  1.002984  0.0
H  H16  1  0.91441407  0.47738055  0.30985505  1  0.053067  -0.008426  0.937892  -0.011  0.067095  -0.005778  1.002524  -0.007  0.064486  -0.004146  1.004328  -0.005  0.099447  0.068409  -0.006194  1.001537  -0.008
H  H17  1  0.08560159  0.52264327  0.69011012  1  0.053107  0.008416  0.93797  0.011  0.06714  0.005773  1.002622  0.007  0.064532  0.004143  1.004426  0.005  0.099459  0.068452  0.006188  1.001633  0.008
C  C18  1  0.52124358  0.09058205  0.02954815  1  0.388897  0.003157  3.942961  0.001  0.354315  0.000232  4.230644  -0.001  0.380626  0.001598  4.239875  0.001  0.204372  0.335069  -0.000648  4.225048  -0.002
C  C19  1  0.47872500  0.90935966  0.97046387  1  0.388881  -0.003133  3.943872  -0.001  0.354524  -0.000224  4.231292  0.001  0.380825  -0.00159  4.240539  -0.001  0.204465  0.335283  0.000652  4.225692  0.002
C  C20  1  0.39618756  0.34312285  0.18594286  1  0.057698  -0.000991  3.666596  0.001  0.007385  -0.001489  3.93499  0.0  0.01611  -0.000579  3.947066  0.001  -0.069344  0.001613  -0.001887  3.926261  -0.001
C  C21  1  0.60383056  0.65683601  0.81405136  1  0.057866  0.001025  3.665621  -0.001  0.007468  0.001488  3.93431  0.0  0.016189  0.00058  3.946385  -0.001  -0.069378  0.001711  0.001888  3.925552  0.001
C  C22  1  0.20199506  0.44613795  0.17597299  1  -0.166087  -0.004234  3.667226  -0.005  -0.207577  -0.002915  3.928011  -0.004  -0.210555  -0.002002  3.940865  -0.003  -0.167548  -0.205401  -0.003227  3.91907  -0.004
C  C23  1  0.79804130  0.55384701  0.82400805  1  -0.165855  0.004245  3.667005  0.005  -0.207351  0.002913  3.927891  0.004  -0.210334  0.002  3.940756  0.003  -0.167422  -0.205181  0.003224  3.918932  0.004
C  C24  1  0.03845679  0.38199865  0.30219181  1  0.092579  0.000302  3.633761  0.003  0.04242  -0.00223  3.900211  0.0  0.050072  -0.000986  3.915057  0.001  -0.071787  0.037843  -0.002913  3.890355  -0.001
C  C25  1  0.96155561  0.61799661  0.69779202  1  0.092442  -0.000313  3.634096  -0.003  0.042151  0.002234  3.900627  0.0  0.049801  0.000988  3.915482  -0.001  -0.071848  0.037587  0.002915  3.890756  0.001
C  C26  1  0.78051950  0.80875795  0.27525952  1  0.523946  -0.005066  3.966398  -0.007  0.494167  -0.007303  4.249517  -0.01  0.52737  -0.005762  4.254503  -0.009  0.319189  0.471786  -0.007612  4.246432  -0.01
C  C27  1  0.21947262  0.19125850  0.72478221  1  0.52386  0.005005  3.966914  0.006  0.494086  0.007302  4.249996  0.01  0.527282  0.005757  4.254991  0.009  0.319119  0.471696  0.007609  4.246931  0.01
C  C28  1  0.45947603  0.81405061  0.39385634  1  0.49626  0.001165  3.989606  0.001  0.461958  0.000162  4.282509  0.0  0.488003  0.000226  4.292264  0.0  0.29803  0.444073  0.000219  4.276348  0.0
C  C29  1  0.54051962  0.18601370  0.60613292  1  0.496142  -0.001232  3.990597  -0.001  0.461829  -0.000161  4.283517  0.0  0.487862  -0.000226  4.293281  0.0  0.297808  0.443944  -0.00022  4.27738  0.0
N  N30  1  0.37920502  0.16380517  0.12839440  1  -0.439993  -0.095709  3.234919  -0.118  -0.40454  -0.065723  3.553604  -0.085  -0.447377  -0.057207  3.576386  -0.078  -0.397381  -0.374962  -0.061289  3.538194  -0.077
N  N31  1  0.62075409  0.83616925  0.87163850  1  -0.440027  0.095701  3.234848  0.118  -0.404699  0.065737  3.553538  0.085  -0.447558  0.057212  3.576368  0.078  -0.397474  -0.375131  0.061305  3.538157  0.077
N  N32  1  0.93196260  0.85504626  0.20797108  1  -0.605985  -0.033059  2.977542  -0.037  -0.584637  -0.02979  3.309137  -0.034  -0.614116  -0.027047  3.302379  -0.032  -0.423022  -0.566663  -0.028321  3.315563  -0.031
N  N33  1  0.06802797  0.14496619  0.79206048  1  -0.605952  0.033107  2.977581  0.037  -0.584613  0.029786  3.309256  0.034  -0.614105  0.02705  3.302511  0.032  -0.422906  -0.566628  0.028318  3.31572  0.031
N  N34  1  0.96313843  0.21028797  0.25678299  1  -0.589498  -0.11514  3.133943  -0.14  -0.570237  -0.080544  3.409815  -0.103  -0.607125  -0.066931  3.414606  -0.091  -0.637609  -0.548528  -0.078031  3.409043  -0.097
N  N35  1  0.03684719  0.78971894  0.74321284  1  -0.589872  0.115094  3.133884  0.14  -0.57047  0.080507  3.409763  0.103  -0.607351  0.0669  3.414515  0.091  -0.637696  -0.548776  0.077995  3.409067  0.097
N  N36  1  0.62370068  0.73593714  0.34123667  1  -0.460058  -0.004071  3.280635  -0.005  -0.404212  -0.00259  3.538026  -0.003  -0.426431  -0.00169  3.538086  -0.002  -0.306828  -0.389362  -0.003315  3.537968  -0.003
N  N37  1  0.37628712  0.26407537  0.65880540  1  -0.459818  0.004076  3.281358  0.005  -0.403956  0.002588  3.538732  0.003  -0.426167  0.001687  3.538801  0.002  -0.306622  -0.3891  0.003312  3.538688  0.003
N  N38  1  0.30273308  0.87218420  0.44201491  1  -0.595219  -0.001216  2.69503  -0.002  -0.570317  -0.000179  2.951649  -0.001  -0.590131  0.000119  2.955562  -0.001  -0.371625  -0.557069  -0.000784  2.949597  -0.002
N  N39  1  0.69726149  0.12793712  0.55792724  1  -0.595304  0.001271  2.69551  0.002  -0.570399  0.000171  2.952117  0.001  -0.590215  -0.000123  2.956053  0.001  -0.371584  -0.55716  0.000776  2.95008  0.002
O  O40  1  0.68825497  0.15676123  0.97932250  1  -0.555022  0.051985  2.120492  0.068  -0.519444  0.044891  2.389721  0.063  -0.559266  0.0386  2.387147  0.057  -0.305986  -0.488601  0.042542  2.390222  0.058
O  O41  1  0.31170576  0.84318420  0.02067194  1  -0.555191  -0.051937  2.120824  -0.068  -0.519541  -0.044873  2.389815  -0.063  -0.559362  -0.038587  2.387256  -0.057  -0.305981  -0.488653  -0.042523  2.390181  -0.058
