# generated using pymatgen
data_K2H12C11N3O5F6
_symmetry_space_group_name_H-M   'P 1'
_cell_length_a   7.26638358
_cell_length_b   11.04694498
_cell_length_c   11.14759830
_cell_angle_alpha   84.80027949
_cell_angle_beta   84.58745208
_cell_angle_gamma   80.87025425
_symmetry_Int_Tables_number   1
_chemical_formula_structural   K2H12C11N3O5F6
_chemical_formula_sum   'K4 H24 C22 N6 O10 F12'
_cell_volume   876.94768095
_cell_formula_units_Z   2
loop_
 _symmetry_equiv_pos_site_id
 _symmetry_equiv_pos_as_xyz
  1  'x, y, z'
loop_
 _atom_site_type_symbol
 _atom_site_label
 _atom_site_symmetry_multiplicity
 _atom_site_fract_x
 _atom_site_fract_y
 _atom_site_fract_z
 _atom_site_occupancy
 _atom_site_pbe_bader_spin_density
 _atom_site_pbe_cm5_charge
 _atom_site_pbe_ddec_charge
 _atom_site_pbe_ddec_spin_density
 _atom_site_pbe_ddec_sum_bond_order
 _atom_site_pbe_magmom
K  K0  1  0.63673565  0.65746345  0.00276614  1  0  0.779464  0.848689  0  0.675624  0
K  K1  1  0.36323882  0.34256168  0.99709358  1  0  0.779425  0.848445  0  0.675779  0
K  K2  1  0.22794864  0.97807152  0.10646767  1  0  0.775502  0.875299  0  0.637882  0
K  K3  1  0.77208855  0.02192032  0.89348447  1  0  0.775481  0.875301  0  0.637827  0
H  H4  1  0.47483318  0.44268804  0.37233721  1  0  0.09708  0.139052  0  1.004416  0
H  H5  1  0.52518417  0.55731098  0.62767202  1  0  0.09702  0.139024  0  1.00411  0
H  H6  1  0.69070525  0.48638468  0.40010048  1  0  0.092242  0.133254  0  1.011482  0
H  H7  1  0.30929311  0.51360698  0.59990155  1  0  0.092222  0.133193  0  1.011392  0
H  H8  1  0.59868080  0.36814902  0.49571300  1  0  0.093248  0.139556  0  1.000107  0
H  H9  1  0.40132028  0.63186656  0.50428590  1  0  0.093251  0.139558  0  0.999898  0
H  H10  1  0.45208393  0.25146142  0.28658871  1  0  0.097432  0.135208  0  1.039263  0
H  H11  1  0.54790267  0.74854492  0.71342531  1  0  0.097458  0.135291  0  1.03913  0
H  H12  1  0.56531235  0.16376339  0.40761825  1  0  0.089631  0.136291  0  1.008981  0
H  H13  1  0.43467974  0.83625488  0.59240158  1  0  0.089671  0.136267  0  1.008901  0
H  H14  1  0.65316518  0.14117183  0.25526120  1  0  0.09746  0.131407  0  1.023884  0
H  H15  1  0.34681763  0.85882715  0.74474652  1  0  0.097464  0.131417  0  1.023852  0
H  H16  1  0.09715021  0.09923529  0.41986030  1  0  0.096187  0.139295  0  1.009486  0
H  H17  1  0.90284583  0.90078393  0.58015294  1  0  0.096144  0.139213  0  1.00954  0
H  H18  1  0.89971076  0.06143270  0.35643170  1  0  0.092055  0.12876  0  1.052324  0
H  H19  1  0.10030166  0.93858747  0.64357688  1  0  0.092008  0.128659  0  1.052224  0
H  H20  1  0.87252069  0.12739305  0.49849653  1  0  0.096997  0.143664  0  0.986463  0
H  H21  1  0.12748486  0.87261516  0.50150992  1  0  0.09704  0.143786  0  0.986339  0
H  H22  1  0.16414585  0.30839272  0.41327978  1  0  0.094669  0.139878  0  1.006333  0
H  H23  1  0.83584570  0.69162186  0.58674579  1  0  0.094653  0.139963  0  1.006272  0
H  H24  1  0.95828770  0.33842093  0.51166045  1  0  0.088061  0.138133  0  1.020718  0
H  H25  1  0.04169191  0.66157989  0.48834999  1  0  0.08809  0.138167  0  1.02073  0
H  H26  1  0.99197493  0.43728991  0.37845726  1  0  0.08288  0.119541  0  1.049359  0
H  H27  1  0.00802727  0.56272654  0.62156033  1  0  0.082847  0.119715  0  1.048862  0
C  C28  1  0.71129373  0.90329455  0.17521643  1  0  0.179612  0.441975  0  4.402346  0
C  C29  1  0.28870749  0.09671460  0.82477853  1  0  0.179561  0.44205  0  4.402081  0
C  C30  1  0.61823765  0.86582673  0.30357840  1  0  0.292945  0.566687  0  3.990025  0
C  C31  1  0.38176548  0.13417414  0.69642165  1  0  0.29296  0.566621  0  3.990236  0
C  C32  1  0.71139783  0.31002403  0.32101043  1  0  0.091482  0.202603  0  3.738  0
C  C33  1  0.28859344  0.68997400  0.67901390  1  0  0.091479  0.202469  0  3.738269  0
C  C34  1  0.61430817  0.40827562  0.40230243  1  0  -0.239126  -0.430821  0  3.89532  0
C  C35  1  0.38569270  0.59172891  0.59770462  1  0  -0.23898  -0.430517  0  3.894761  0
C  C36  1  0.58857220  0.21001553  0.31750914  1  0  -0.242176  -0.446416  0  3.88475  0
C  C37  1  0.41141888  0.78998345  0.68250616  1  0  -0.242235  -0.446478  0  3.884681  0
C  C38  1  0.91983003  0.25788303  0.34736560  1  0  0.090303  0.201467  0  3.736436  0
C  C39  1  0.08014813  0.74212970  0.65265914  1  0  0.090403  0.201668  0  3.736656  0
C  C40  1  0.94801448  0.12799122  0.40852224  1  0  -0.240644  -0.441188  0  3.895463  0
C  C41  1  0.05198859  0.87202158  0.59149023  1  0  -0.240601  -0.441213  0  3.895153  0
C  C42  1  0.01339364  0.34191539  0.41671169  1  0  -0.244793  -0.440176  0  3.887226  0
C  C43  1  0.98659380  0.65809922  0.58330246  1  0  -0.244812  -0.440104  0  3.886414  0
C  C44  1  0.90515052  0.32045113  0.13866083  1  0  0.329331  0.288662  0  4.134906  0
C  C45  1  0.09484582  0.67954329  0.86134019  1  0  0.329413  0.288695  0  4.134766  0
C  C46  1  0.86071059  0.31732638  0.93991493  1  0  0.218146  0.347246  0  4.319401  0
C  C47  1  0.13928101  0.68264689  0.06008552  1  0  0.218098  0.346857  0  4.319707  0
C  C48  1  0.90983067  0.37509473  0.81187903  1  0  0.310848  0.605547  0  3.972559  0
C  C49  1  0.09017218  0.62487761  0.18812890  1  0  0.311012  0.604895  0  3.973659  0
N  N50  1  0.73646590  0.36479330  0.19343773  1  0  -0.125951  0.150223  0  3.794295  0
N  N51  1  0.26351635  0.63519655  0.80655018  1  0  -0.126011  0.150407  0  3.794634  0
N  N52  1  0.01335297  0.25595247  0.22178617  1  0  -0.136547  0.145595  0  3.800495  0
N  N53  1  0.98666898  0.74405673  0.77820396  1  0  -0.136794  0.145639  0  3.800648  0
N  N54  1  0.96555684  0.34456530  0.02176965  1  0  -0.433155  -0.553053  0  3.471341  0
N  N55  1  0.03444413  0.65541536  0.97822331  1  0  -0.433171  -0.553055  0  3.471592  0
O  O56  1  0.86461000  0.94248796  0.17054715  1  0  -0.395404  -0.590267  0  2.198538  0
O  O57  1  0.13538075  0.05753036  0.82945571  1  0  -0.395446  -0.590315  0  2.198632  0
O  O58  1  0.61371033  0.89021725  0.09074220  1  0  -0.481604  -0.643372  0  2.259723  0
O  O59  1  0.38629525  0.10977902  0.90926170  1  0  -0.481726  -0.643475  0  2.259432  0
O  O60  1  0.60416692  0.43546063  0.14035217  1  0  -0.300879  -0.462506  0  1.99264  0
O  O61  1  0.39584033  0.56455220  0.85964750  1  0  -0.301397  -0.462621  0  1.992596  0
O  O62  1  0.18425831  0.20392337  0.19805807  1  0  -0.301309  -0.467796  0  1.977493  0
O  O63  1  0.81574315  0.79607292  0.80193530  1  0  -0.301597  -0.467961  0  1.977204  0
O  O64  1  0.72792877  0.25612851  0.95090037  1  0  -0.456656  -0.581724  0  2.277947  0
O  O65  1  0.27208630  0.74385675  0.04909763  1  0  -0.456653  -0.58175  0  2.277767  0
F  F66  1  0.57633997  0.74885163  0.31099533  1  0  -0.096038  -0.209384  0  1.339667  0
F  F67  1  0.42368038  0.25114650  0.68900393  1  0  -0.095999  -0.209281  0  1.339727  0
F  F68  1  0.72351016  0.87257453  0.39634909  1  0  -0.090536  -0.187059  0  1.36939  0
F  F69  1  0.27648243  0.12744197  0.60364665  1  0  -0.090554  -0.187089  0  1.369322  0
F  F70  1  0.45045399  0.94179414  0.32653711  1  0  -0.116985  -0.22523  0  1.311452  0
F  F71  1  0.54952433  0.05819479  0.67344933  1  0  -0.11694  -0.225202  0  1.311471  0
F  F72  1  0.86666925  0.30947388  0.72397177  1  0  -0.086682  -0.198332  0  1.347415  0
F  F73  1  0.13334647  0.69048467  0.27604196  1  0  -0.08669  -0.198751  0  1.347726  0
F  F74  1  0.80778244  0.49057953  0.79733640  1  0  -0.095538  -0.211066  0  1.354985  0
F  F75  1  0.19224587  0.50938460  0.20265636  1  0  -0.095658  -0.207398  0  1.350505  0
F  F76  1  0.09398346  0.38845876  0.78885001  1  0  -0.101043  -0.210651  0  1.37398  0
F  F77  1  0.90601963  0.61151269  0.21114901  1  0  -0.10094  -0.21108  0  1.374276  0
