# generated using pymatgen
data_Ba2H22(C6O5)3
_symmetry_space_group_name_H-M   'P 1'
_cell_length_a   7.49086454
_cell_length_b   12.03021178
_cell_length_c   14.46145171
_cell_angle_alpha   114.56796273
_cell_angle_beta   100.01410380
_cell_angle_gamma   90.00523213
_symmetry_Int_Tables_number   1
_chemical_formula_structural   Ba2H22(C6O5)3
_chemical_formula_sum   'Ba4 H44 C36 O30'
_cell_volume   1163.36013658
_cell_formula_units_Z   2
loop_
 _symmetry_equiv_pos_site_id
 _symmetry_equiv_pos_as_xyz
  1  'x, y, z'
loop_
 _atom_site_type_symbol
 _atom_site_label
 _atom_site_symmetry_multiplicity
 _atom_site_fract_x
 _atom_site_fract_y
 _atom_site_fract_z
 _atom_site_occupancy
 _atom_site_hle17_bader_spin_density
 _atom_site_hle17_ddec_charge
 _atom_site_hle17_ddec_spin_density
 _atom_site_hle17_ddec_sum_bond_order
 _atom_site_hle17_magmom
 _atom_site_hse06_10hf_bader_spin_density
 _atom_site_hse06_10hf_ddec_charge
 _atom_site_hse06_10hf_ddec_spin_density
 _atom_site_hse06_10hf_ddec_sum_bond_order
 _atom_site_hse06_10hf_magmom
 _atom_site_hse06_bader_spin_density
 _atom_site_hse06_ddec_charge
 _atom_site_hse06_ddec_spin_density
 _atom_site_hse06_ddec_sum_bond_order
 _atom_site_hse06_magmom
 _atom_site_pbe_bader_spin_density
 _atom_site_pbe_cm5_charge
 _atom_site_pbe_ddec_charge
 _atom_site_pbe_ddec_spin_density
 _atom_site_pbe_ddec_sum_bond_order
 _atom_site_pbe_magmom
Ba  Ba0  1  0.93993995  0.16140656  0.88538480  1  0  1.663795  0  1.116226  0  0  1.522271  0  1.507103  0  0  1.561111  0  1.461866  0  0  0.958881  1.493683  0  1.539271  0
Ba  Ba1  1  0.55971700  0.27599984  0.11458973  1  0  1.663938  0  1.11492  0  0  1.522415  0  1.505797  0  0  1.561259  0  1.460642  0  0  0.958481  1.493798  0  1.537921  0
Ba  Ba2  1  0.06005801  0.83858783  0.11461285  1  0  1.663847  0  1.116288  0  0  1.522351  0  1.507178  0  0  1.561194  0  1.461934  0  0  0.958867  1.493745  0  1.539353  0
Ba  Ba3  1  0.44028160  0.72400005  0.88541126  1  0  1.663911  0  1.115005  0  0  1.522436  0  1.505823  0  0  1.561284  0  1.460674  0  0  0.95843  1.493823  0  1.537945  0
H  H4  1  0.09925108  0.45615415  0.99482886  1  0  0.411825  0  0.864852  0  0  0.390665  0  0.92868  0  0  0.400215  0  0.914014  0  0  0.31545  0.383732  0  0.937556  0
H  H5  1  0.40082334  0.46165844  0.00522822  1  0  0.412655  0  0.863868  0  0  0.391409  0  0.927745  0  0  0.400964  0  0.913079  0  0  0.315701  0.384459  0  0.936644  0
H  H6  1  0.90083200  0.54380197  0.00516374  1  0  0.411667  0  0.865159  0  0  0.390561  0  0.928814  0  0  0.4001  0  0.914175  0  0  0.315392  0.383631  0  0.937712  0
H  H7  1  0.59926417  0.53837377  0.99476897  1  0  0.412687  0  0.863982  0  0  0.391454  0  0.9277  0  0  0.40101  0  0.913029  0  0  0.315809  0.384507  0  0.936721  0
H  H8  1  0.09661499  0.42630994  0.09147726  1  0  0.432288  0  0.875807  0  0  0.396037  0  0.947239  0  0  0.408506  0  0.928997  0  0  0.298079  0.387222  0  0.96011  0
H  H9  1  0.40332038  0.33510859  0.90864113  1  0  0.431752  0  0.876479  0  0  0.396045  0  0.947322  0  0  0.408496  0  0.929067  0  0  0.29801  0.38726  0  0.960172  0
H  H10  1  0.90336850  0.57368807  0.90852383  1  0  0.43231  0  0.87579  0  0  0.396087  0  0.947171  0  0  0.408559  0  0.928926  0  0  0.298098  0.387269  0  0.960045  0
H  H11  1  0.59666498  0.66489401  0.09136033  1  0  0.431685  0  0.876577  0  0  0.396003  0  0.947373  0  0  0.408455  0  0.929114  0  0  0.29801  0.387215  0  0.960225  0
H  H12  1  0.19128022  0.09203619  0.04543875  1  0  0.420405  0  0.893478  0  0  0.389097  0  0.95868  0  0  0.400803  0  0.941702  0  0  0.300947  0.380828  0  0.970655  0
H  H13  1  0.30850838  0.04655865  0.95443465  1  0  0.420313  0  0.8938  0  0  0.388975  0  0.959111  0  0  0.400678  0  0.942115  0  0  0.300915  0.380722  0  0.971069  0
H  H14  1  0.80871554  0.90796277  0.95455891  1  0  0.420393  0  0.893495  0  0  0.389079  0  0.958709  0  0  0.400786  0  0.941729  0  0  0.300951  0.380811  0  0.970682  0
H  H15  1  0.69148322  0.95343939  0.04556370  1  0  0.420306  0  0.893804  0  0  0.388962  0  0.959122  0  0  0.400663  0  0.94213  0  0  0.300935  0.380707  0  0.971082  0
H  H16  1  0.77521438  0.36982061  0.78913948  1  0  0.41832  0  0.88817  0  0  0.386839  0  0.952382  0  0  0.39671  0  0.938012  0  0  0.289695  0.37989  0  0.962486  0
H  H17  1  0.72500956  0.58045846  0.21067851  1  0  0.418159  0  0.888382  0  0  0.386576  0  0.952679  0  0  0.396429  0  0.938345  0  0  0.289784  0.37966  0  0.962722  0
H  H18  1  0.22478408  0.63017836  0.21085773  1  0  0.418192  0  0.888313  0  0  0.386689  0  0.952565  0  0  0.39656  0  0.938196  0  0  0.289624  0.379739  0  0.962673  0
H  H19  1  0.27498799  0.41954417  0.78932196  1  0  0.418089  0  0.888475  0  0  0.386525  0  0.952742  0  0  0.396377  0  0.93841  0  0  0.28976  0.379611  0  0.962784  0
H  H20  1  0.60434632  0.28985598  0.78757504  1  0  0.42347  0  0.877003  0  0  0.390996  0  0.943467  0  0  0.401345  0  0.928276  0  0  0.293994  0.383667  0  0.954211  0
H  H21  1  0.89580034  0.50202737  0.21228805  1  0  0.423209  0  0.87752  0  0  0.390907  0  0.943768  0  0  0.401267  0  0.928549  0  0  0.293862  0.38358  0  0.954512  0
H  H22  1  0.39564975  0.71014574  0.21242291  1  0  0.423488  0  0.876983  0  0  0.391031  0  0.943423  0  0  0.401377  0  0.928235  0  0  0.293994  0.383701  0  0.954169  0
H  H23  1  0.10419429  0.49797343  0.78771222  1  0  0.423216  0  0.877493  0  0  0.390911  0  0.943756  0  0  0.401272  0  0.928536  0  0  0.293831  0.383583  0  0.954501  0
H  H24  1  0.43753049  0.30241568  0.63304993  1  0  0.093081  0  0.951834  0  0  0.103825  0  1.011491  0  0  0.107098  0  1.009017  0  0  0.105756  0.101419  0  1.013363  0
H  H25  1  0.06227697  0.66882587  0.36684255  1  0  0.092134  0  0.952858  0  0  0.103363  0  1.01206  0  0  0.10655  0  1.009702  0  0  0.105647  0.10096  0  1.013886  0
H  H26  1  0.56246559  0.69758604  0.36694940  1  0  0.093057  0  0.951891  0  0  0.103836  0  1.011513  0  0  0.107109  0  1.009038  0  0  0.105755  0.101431  0  1.013384  0
H  H27  1  0.93773329  0.33118138  0.63315857  1  0  0.092146  0  0.952922  0  0  0.103368  0  1.01212  0  0  0.106583  0  1.009721  0  0  0.105674  0.100966  0  1.013947  0
H  H28  1  0.47798491  0.22807207  0.45253477  1  0  0.104291  0  0.976819  0  0  0.114575  0  1.040307  0  0  0.117116  0  1.040495  0  0  0.102276  0.112777  0  1.040265  0
H  H29  1  0.02206485  0.77524429  0.54734373  1  0  0.103891  0  0.976915  0  0  0.114005  0  1.040651  0  0  0.116531  0  1.040848  0  0  0.101863  0.112216  0  1.040613  0
H  H30  1  0.52201232  0.77192782  0.54746472  1  0  0.10425  0  0.97684  0  0  0.114556  0  1.040319  0  0  0.11711  0  1.04048  0  0  0.102275  0.112761  0  1.040278  0
H  H31  1  0.97794270  0.22476295  0.45265852  1  0  0.103913  0  0.976929  0  0  0.114022  0  1.040654  0  0  0.116543  0  1.040862  0  0  0.101856  0.112232  0  1.040614  0
H  H32  1  0.18836904  0.88246891  0.37892725  1  0  0.115021  0  0.953656  0  0  0.123116  0  1.018794  0  0  0.126961  0  1.016654  0  0  0.112943  0.120305  0  1.02053  0
H  H33  1  0.31148715  0.50340875  0.62125032  1  0  0.114712  0  0.953637  0  0  0.122837  0  1.018854  0  0  0.126759  0  1.016636  0  0  0.112938  0.120004  0  1.020604  0
H  H34  1  0.81163123  0.11753374  0.62107484  1  0  0.115  0  0.953678  0  0  0.123091  0  1.018826  0  0  0.126935  0  1.016687  0  0  0.112937  0.120281  0  1.020565  0
H  H35  1  0.68851435  0.49659298  0.37874949  1  0  0.114705  0  0.953631  0  0  0.122834  0  1.018839  0  0  0.126753  0  1.016626  0  0  0.112929  0.120001  0  1.020593  0
H  H36  1  0.14640507  0.96103043  0.56298188  1  0  0.086271  0  0.969981  0  0  0.094487  0  1.038522  0  0  0.09754  0  1.03626  0  0  0.099288  0.09219  0  1.040322  0
H  H37  1  0.35317915  0.39761099  0.43719351  1  0  0.086416  0  0.970575  0  0  0.094391  0  1.039219  0  0  0.097534  0  1.036841  0  0  0.099436  0.092079  0  1.041058  0
H  H38  1  0.85359645  0.03897130  0.43701931  1  0  0.086268  0  0.96997  0  0  0.094482  0  1.03852  0  0  0.097535  0  1.036258  0  0  0.099274  0.092187  0  1.040317  0
H  H39  1  0.64682372  0.60239074  0.56280642  1  0  0.086403  0  0.97055  0  0  0.09439  0  1.039183  0  0  0.097531  0  1.036807  0  0  0.099437  0.092077  0  1.041025  0
H  H40  1  0.59926648  0.08809717  0.32248001  1  0  0.091204  0  0.931703  0  0  0.101156  0  1.00027  0  0  0.101924  0  0.999732  0  0  0.113426  0.100596  0  1.000777  0
H  H41  1  0.90084503  0.76542941  0.67755012  1  0  0.091509  0  0.931671  0  0  0.101473  0  1.000404  0  0  0.102283  0  0.999908  0  0  0.113536  0.100878  0  1.000886  0
H  H42  1  0.40072837  0.91190546  0.67752160  1  0  0.091225  0  0.931636  0  0  0.101218  0  1.000219  0  0  0.101981  0  0.999677  0  0  0.113457  0.100659  0  1.00073  0
H  H43  1  0.09915323  0.23456773  0.32244574  1  0  0.091542  0  0.931621  0  0  0.101473  0  1.000347  0  0  0.102279  0  0.999858  0  0  0.113554  0.100884  0  1.000819  0
H  H44  1  0.41006759  0.15709541  0.27948582  1  0  0.091412  0  0.930846  0  0  0.100618  0  1.000113  0  0  0.102876  0  0.997119  0  0  0.120257  0.098996  0  1.0024  0
H  H45  1  0.08994141  0.87749662  0.72031383  1  0  0.091675  0  0.930766  0  0  0.101138  0  0.999931  0  0  0.103427  0  0.996979  0  0  0.120302  0.099502  0  1.00218  0
H  H46  1  0.58992694  0.84290447  0.72051412  1  0  0.091496  0  0.93085  0  0  0.100749  0  1.000097  0  0  0.103  0  0.997102  0  0  0.12032  0.099127  0  1.002384  0
H  H47  1  0.91005597  0.12250419  0.27969083  1  0  0.091676  0  0.930786  0  0  0.101109  0  0.999937  0  0  0.103399  0  0.996984  0  0  0.120295  0.099468  0  1.002189  0
C  C48  1  0.28840404  0.13683737  0.61033126  1  0  -0.109106  0  3.772214  0  0  -0.091191  0  4.014294  0  0  -0.101024  0  4.037376  0  0  -0.034903  -0.084917  0  3.998776  0
C  C49  1  0.21132592  0.52602631  0.38969470  1  0  -0.110721  0  3.775167  0  0  -0.092038  0  4.016412  0  0  -0.102055  0  4.039731  0  0  -0.034748  -0.085628  0  4.000714  0
C  C50  1  0.71159777  0.86316711  0.38966953  1  0  -0.109173  0  3.772408  0  0  -0.091156  0  4.014359  0  0  -0.100986  0  4.037434  0  0  -0.034898  -0.08488  0  3.998838  0
C  C51  1  0.78867706  0.47397634  0.61030694  1  0  -0.110734  0  3.774997  0  0  -0.092042  0  4.016242  0  0  -0.102061  0  4.039561  0  0  -0.034801  -0.085631  0  4.000543  0
C  C52  1  0.38086227  0.21083019  0.57743435  1  0  -0.033945  0  3.749804  0  0  -0.057618  0  4.000099  0  0  -0.054516  0  4.019455  0  0  -0.082226  -0.059368  0  3.986857  0
C  C53  1  0.11902173  0.63293898  0.42252571  1  0  -0.032197  0  3.750601  0  0  -0.056616  0  4.0007  0  0  -0.053434  0  4.020156  0  0  -0.081905  -0.058351  0  3.987364  0
C  C54  1  0.61913497  0.78916970  0.42256583  1  0  -0.033926  0  3.749806  0  0  -0.057658  0  4.000086  0  0  -0.054559  0  4.019445  0  0  -0.082208  -0.059405  0  3.986845  0
C  C55  1  0.88098666  0.36706368  0.57747503  1  0  -0.032197  0  3.75049  0  0  -0.056619  0  4.000606  0  0  -0.05345  0  4.020044  0  0  -0.081938  -0.05836  0  3.987274  0
C  C56  1  0.40226784  0.16920212  0.47493380  1  0  -0.215039  0  3.767888  0  0  -0.232515  0  4.020071  0  0  -0.240563  0  4.041951  0  0  -0.110975  -0.227177  0  4.005269  0
C  C57  1  0.09770836  0.69395038  0.52501378  1  0  -0.214666  0  3.767776  0  0  -0.231928  0  4.020055  0  0  -0.239961  0  4.04189  0  0  -0.110742  -0.226605  0  4.005265  0
C  C58  1  0.59773221  0.83079869  0.52506557  1  0  -0.21491  0  3.767889  0  0  -0.232419  0  4.020061  0  0  -0.240469  0  4.041956  0  0  -0.110953  -0.227083  0  4.00526  0
C  C59  1  0.90229605  0.30605319  0.47498485  1  0  -0.214686  0  3.767801  0  0  -0.231944  0  4.020085  0  0  -0.239981  0  4.041924  0  0  -0.110724  -0.22662  0  4.005293  0
C  C60  1  0.33084277  0.05063555  0.40349560  1  0  0.281704  0  3.783749  0  0  0.273351  0  4.040049  0  0  0.285676  0  4.056248  0  0  0.093514  0.265006  0  4.028961  0
C  C61  1  0.16920246  0.64697867  0.59655496  1  0  0.281164  0  3.786399  0  0  0.273307  0  4.041784  0  0  0.285594  0  4.057949  0  0  0.093865  0.264927  0  4.030724  0
C  C62  1  0.66915874  0.94936618  0.59650490  1  0  0.281558  0  3.783843  0  0  0.27322  0  4.040111  0  0  0.28553  0  4.056321  0  0  0.093431  0.264878  0  4.029015  0
C  C63  1  0.83080041  0.35302306  0.40344636  1  0  0.281132  0  3.786485  0  0  0.273298  0  4.041838  0  0  0.285584  0  4.058  0  0  0.093874  0.264921  0  4.03078  0
C  C64  1  0.23886367  0.97509369  0.43519703  1  0  -0.17653  0  3.730781  0  0  -0.1971  0  3.985638  0  0  -0.203816  0  4.005097  0  0  -0.092621  -0.192659  0  3.972551  0
C  C65  1  0.26101587  0.53967824  0.56491435  1  0  -0.175819  0  3.730275  0  0  -0.196585  0  3.984997  0  0  -0.203382  0  4.004462  0  0  -0.092763  -0.192114  0  3.97193  0
C  C66  1  0.76113358  0.02490619  0.56480454  1  0  -0.176505  0  3.730853  0  0  -0.197068  0  3.985689  0  0  -0.203785  0  4.005156  0  0  -0.092608  -0.192626  0  3.972599  0
C  C67  1  0.73898574  0.46032440  0.43508648  1  0  -0.17579  0  3.730285  0  0  -0.196558  0  3.98499  0  0  -0.203358  0  4.004455  0  0  -0.092757  -0.192092  0  3.971931  0
C  C68  1  0.21804748  0.01860324  0.53751939  1  0  -0.042757  0  3.764374  0  0  -0.064636  0  4.012488  0  0  -0.062034  0  4.032579  0  0  -0.082435  -0.066025  0  3.998758  0
C  C69  1  0.28169899  0.48070001  0.46258583  1  0  -0.042734  0  3.765099  0  0  -0.064586  0  4.012901  0  0  -0.062007  0  4.033037  0  0  -0.082907  -0.066002  0  3.999142  0
C  C70  1  0.78195112  0.98139665  0.46248160  1  0  -0.042716  0  3.764571  0  0  -0.06463  0  4.012659  0  0  -0.062028  0  4.03275  0  0  -0.082407  -0.066016  0  3.998922  0
C  C71  1  0.71830074  0.51929805  0.53741187  1  0  -0.04269  0  3.765015  0  0  -0.064554  0  4.012821  0  0  -0.06198  0  4.032966  0  0  -0.082865  -0.065973  0  3.999067  0
C  C72  1  0.26683343  0.18176170  0.72056959  1  0  0.680447  0  3.884922  0  0  0.625889  0  4.184211  0  0  0.660489  0  4.174821  0  0  0.222136  0.602404  0  4.189924  0
C  C73  1  0.23280052  0.46073605  0.27944118  1  0  0.68262  0  3.882311  0  0  0.627886  0  4.181713  0  0  0.662551  0  4.172277  0  0  0.223261  0.60435  0  4.187472  0
C  C74  1  0.73316297  0.81824277  0.27943141  1  0  0.680558  0  3.884669  0  0  0.625988  0  4.183948  0  0  0.660589  0  4.174554  0  0  0.222216  0.602502  0  4.189666  0
C  C75  1  0.76719879  0.53925834  0.72055590  1  0  0.682478  0  3.882368  0  0  0.627773  0  4.181765  0  0  0.662439  0  4.172327  0  0  0.22326  0.604235  0  4.18752  0
C  C76  1  0.46427984  0.06911540  0.27190619  1  0  -0.081576  0  3.636001  0  0  -0.141788  0  3.903991  0  0  -0.136837  0  3.902356  0  0  -0.058045  -0.145322  0  3.905203  0
C  C77  1  0.03587275  0.79715764  0.72805072  1  0  -0.082088  0  3.636007  0  0  -0.14323  0  3.904661  0  0  -0.138615  0  3.903473  0  0  -0.058419  -0.146602  0  3.905657  0
C  C78  1  0.53572146  0.93088449  0.72809366  1  0  -0.081563  0  3.635945  0  0  -0.142  0  3.904195  0  0  -0.137027  0  3.902516  0  0  -0.058127  -0.145541  0  3.905411  0
C  C79  1  0.96412449  0.20284224  0.27195015  1  0  -0.082145  0  3.63605  0  0  -0.143187  0  3.904471  0  0  -0.138574  0  3.903305  0  0  -0.058442  -0.146557  0  3.905464  0
C  C80  1  0.48896167  0.99858692  0.16038544  1  0  0.713545  0  3.858804  0  0  0.661235  0  4.162516  0  0  0.69506  0  4.152655  0  0  0.236279  0.638209  0  4.168626  0
C  C81  1  0.01125087  0.83837107  0.83961520  1  0  0.712214  0  3.860585  0  0  0.660946  0  4.163043  0  0  0.694847  0  4.15324  0  0  0.236119  0.63787  0  4.169111  0
C  C82  1  0.51105090  0.00141667  0.83961669  1  0  0.713097  0  3.858808  0  0  0.660854  0  4.16252  0  0  0.694667  0  4.152665  0  0  0.236059  0.637833  0  4.168624  0
C  C83  1  0.98873977  0.16163063  0.16038087  1  0  0.711967  0  3.86096  0  0  0.660879  0  4.163085  0  0  0.694753  0  4.15333  0  0  0.236038  0.637803  0  4.169151  0
O  O84  1  0.16229707  0.12129261  0.74588881  1  0  -0.692622  0  1.926154  0  0  -0.637334  0  2.16924  0  0  -0.662172  0  2.159122  0  0  -0.375271  -0.619981  0  2.175771  0
O  O85  1  0.33704039  0.37480783  0.25403365  1  0  -0.693564  0  1.92415  0  0  -0.638363  0  2.167719  0  0  -0.663167  0  2.157523  0  0  -0.375448  -0.621013  0  2.174279  0
O  O86  1  0.83769839  0.87871553  0.25411268  1  0  -0.692665  0  1.926043  0  0  -0.63739  0  2.169143  0  0  -0.662229  0  2.159024  0  0  -0.375289  -0.620033  0  2.175673  0
O  O87  1  0.66294966  0.62518837  0.74596531  1  0  -0.693565  0  1.924106  0  0  -0.638355  0  2.167624  0  0  -0.663171  0  2.157451  0  0  -0.375473  -0.621008  0  2.174183  0
O  O88  1  0.35951432  0.28363988  0.78548003  1  0  -0.694763  0  2.055711  0  0  -0.614409  0  2.265485  0  0  -0.640602  0  2.25178  0  0  -0.309621  -0.596125  0  2.274479  0
O  O89  1  0.14043451  0.49791795  0.21459416  1  0  -0.695402  0  2.055344  0  0  -0.61523  0  2.265751  0  0  -0.641461  0  2.252014  0  0  -0.310218  -0.596901  0  2.274768  0
O  O90  1  0.64048853  0.71636186  0.21451921  1  0  -0.694793  0  2.055578  0  0  -0.61448  0  2.265387  0  0  -0.64067  0  2.25168  0  0  -0.309695  -0.596197  0  2.274387  0
O  O91  1  0.85956397  0.50208103  0.78540374  1  0  -0.695303  0  2.055354  0  0  -0.615217  0  2.265807  0  0  -0.641446  0  2.25207  0  0  -0.310226  -0.59689  0  2.274822  0
O  O92  1  0.34541450  0.00135640  0.30092361  1  0  -0.300739  0  2.391035  0  0  -0.22531  0  2.626818  0  0  -0.244443  0  2.630657  0  0  -0.183473  -0.21175  0  2.623762  0
O  O93  1  0.15481222  0.70042238  0.69914728  1  0  -0.300601  0  2.391478  0  0  -0.225257  0  2.627423  0  0  -0.244122  0  2.631261  0  0  -0.18371  -0.211703  0  2.624282  0
O  O94  1  0.65458431  0.99864532  0.69907804  1  0  -0.300727  0  2.390993  0  0  -0.22523  0  2.626808  0  0  -0.244348  0  2.630629  0  0  -0.183432  -0.211662  0  2.623745  0
O  O95  1  0.84518762  0.29957660  0.30085144  1  0  -0.300556  0  2.391471  0  0  -0.225264  0  2.627381  0  0  -0.244122  0  2.631218  0  0  -0.183736  -0.21172  0  2.624248  0
O  O96  1  0.59571207  0.05763631  0.13365902  1  0  -0.707908  0  2.013773  0  0  -0.645259  0  2.257817  0  0  -0.673027  0  2.247813  0  0  -0.353328  -0.62567  0  2.264038  0
O  O97  1  0.90428506  0.92399038  0.86621998  1  0  -0.707833  0  2.014595  0  0  -0.645018  0  2.25767  0  0  -0.672746  0  2.247602  0  0  -0.353454  -0.625508  0  2.264072  0
O  O98  1  0.40426848  0.94235986  0.86633910  1  0  -0.707822  0  2.01306  0  0  -0.645151  0  2.257001  0  0  -0.67294  0  2.247043  0  0  -0.353265  -0.625563  0  2.263218  0
O  O99  1  0.09570958  0.07599850  0.13377755  1  0  -0.707805  0  2.014215  0  0  -0.645107  0  2.257221  0  0  -0.672832  0  2.247169  0  0  -0.353472  -0.625594  0  2.263626  0
O  O100  1  0.41012540  0.89333388  0.10357058  1  0  -0.695557  0  1.937297  0  0  -0.630392  0  2.172248  0  0  -0.656927  0  2.163224  0  0  -0.363832  -0.611758  0  2.178024  0
O  O101  1  0.09039657  0.79020929  0.89658228  1  0  -0.69476  0  1.93822  0  0  -0.630128  0  2.172947  0  0  -0.656652  0  2.163905  0  0  -0.363619  -0.61151  0  2.178751  0
O  O102  1  0.58988484  0.10664863  0.89643373  1  0  -0.695177  0  1.937947  0  0  -0.630039  0  2.172892  0  0  -0.656569  0  2.163878  0  0  -0.363658  -0.611411  0  2.178666  0
O  O103  1  0.90960206  0.20977868  0.10342012  1  0  -0.694583  0  1.93896  0  0  -0.629963  0  2.173485  0  0  -0.656462  0  2.164441  0  0  -0.363518  -0.611351  0  2.179292  0
O  O104  1  0.04914688  0.39599176  0.01439864  1  0  -0.904455  0  1.825601  0  0  -0.848507  0  2.016008  0  0  -0.868631  0  1.982282  0  0  -0.638788  -0.834071  0  2.037974  0
O  O105  1  0.45077579  0.38188132  0.98570488  1  0  -0.904672  0  1.825628  0  0  -0.849272  0  2.015157  0  0  -0.869377  0  1.981498  0  0  -0.638789  -0.834838  0  2.037089  0
O  O106  1  0.95080574  0.60402084  0.98560615  1  0  -0.904408  0  1.825794  0  0  -0.848459  0  2.016156  0  0  -0.868589  0  1.982422  0  0  -0.638847  -0.834016  0  2.03816  0
O  O107  1  0.54918108  0.61810838  0.01430135  1  0  -0.904571  0  1.826003  0  0  -0.849223  0  2.015442  0  0  -0.869325  0  1.981783  0  0  -0.638769  -0.834796  0  2.037478  0
O  O108  1  0.24982881  0.11900435  0.99991037  1  0  -0.94706  0  1.850388  0  0  -0.886042  0  2.045353  0  0  -0.909142  0  2.012817  0  0  -0.667657  -0.869563  0  2.06804  0
O  O109  1  0.75016268  0.88099277  0.00008696  1  0  -0.947009  0  1.850405  0  0  -0.885995  0  2.045386  0  0  -0.909094  0  2.012849  0  0  -0.667653  -0.869516  0  2.068073  0
O  O110  1  0.73867479  0.29614382  0.79784707  1  0  -0.898225  0  1.774217  0  0  -0.844843  0  1.955223  0  0  -0.863989  0  1.924017  0  0  -0.643306  -0.831144  0  1.977009  0
O  O111  1  0.76146106  0.49808963  0.20203554  1  0  -0.89814  0  1.775036  0  0  -0.844734  0  1.956027  0  0  -0.863984  0  1.92503  0  0  -0.643418  -0.830975  0  1.977639  0
O  O112  1  0.26132400  0.70385790  0.20215250  1  0  -0.898103  0  1.774316  0  0  -0.844725  0  1.955304  0  0  -0.863871  0  1.924102  0  0  -0.643236  -0.831024  0  1.977089  0
O  O113  1  0.23853775  0.50191209  0.79796680  1  0  -0.898097  0  1.775112  0  0  -0.844695  0  1.956033  0  0  -0.863945  0  1.925035  0  0  -0.643365  -0.830936  0  1.977642  0
