# generated using pymatgen
data_TbH16C21I3O8
_symmetry_space_group_name_H-M   'P 1'
_cell_length_a   9.52984052
_cell_length_b   9.94605029
_cell_length_c   14.05074088
_cell_angle_alpha   74.57446824
_cell_angle_beta   85.47677437
_cell_angle_gamma   74.46771083
_symmetry_Int_Tables_number   1
_chemical_formula_structural   TbH16C21I3O8
_chemical_formula_sum   'Tb2 H32 C42 I6 O16'
_cell_volume   1236.88707889
_cell_formula_units_Z   2
loop_
 _symmetry_equiv_pos_site_id
 _symmetry_equiv_pos_as_xyz
  1  'x, y, z'
loop_
 _atom_site_type_symbol
 _atom_site_label
 _atom_site_symmetry_multiplicity
 _atom_site_fract_x
 _atom_site_fract_y
 _atom_site_fract_z
 _atom_site_occupancy
 _atom_site_pbe_bader_spin_density
 _atom_site_pbe_cm5_charge
 _atom_site_pbe_ddec_charge
 _atom_site_pbe_ddec_spin_density
 _atom_site_pbe_ddec_sum_bond_order
 _atom_site_pbe_magmom
Tb  Tb0  1  0.24143675  0.01852353  0.51621821  1  0  1.505739  2.108477  0  2.153099  0
Tb  Tb1  1  0.75856747  0.98147550  0.48378210  1  0  1.505764  2.108432  0  2.153211  0
H  H2  1  0.74191948  0.67584493  0.75452853  1  0  0.107925  0.11385  0  1.014761  0
H  H3  1  0.25807353  0.32416492  0.24547315  1  0  0.107994  0.113968  0  1.014566  0
H  H4  1  0.80063954  0.55991793  0.93209216  1  0  0.086684  0.079058  0  1.068921  0
H  H5  1  0.19935781  0.44008324  0.06790526  1  0  0.08669  0.079072  0  1.068825  0
H  H6  1  0.65088187  0.66691781  0.06148560  1  0  0.090178  0.087909  0  1.049289  0
H  H7  1  0.34912346  0.33307690  0.93851619  1  0  0.090169  0.087897  0  1.049282  0
H  H8  1  0.44838159  0.88591141  0.01216194  1  0  0.083794  0.09286  0  1.065749  0
H  H9  1  0.55162505  0.11408228  0.98784709  1  0  0.083847  0.092983  0  1.065613  0
H  H10  1  0.95779428  0.58292556  0.56924520  1  0  0.114021  0.121265  0  0.994992  0
H  H11  1  0.04221711  0.41707016  0.43074824  1  0  0.113992  0.121234  0  0.995043  0
H  H12  1  0.91790353  0.35003522  0.67263962  1  0  0.102335  0.112335  0  1.006967  0
H  H13  1  0.08208907  0.64996806  0.32734982  1  0  0.102309  0.112381  0  1.006976  0
H  H14  1  0.97558341  0.27508535  0.85232422  1  0  0.082758  0.075671  0  1.067373  0
H  H15  1  0.02440348  0.72491150  0.14767103  1  0  0.082821  0.075749  0  1.067317  0
H  H16  1  0.07686536  0.42853923  0.92585752  1  0  0.094851  0.101518  0  1.035212  0
H  H17  1  0.92312735  0.57145545  0.07413854  1  0  0.094815  0.101413  0  1.035285  0
H  H18  1  0.33876240  0.67735272  0.09989015  1  0  0.093922  0.102956  0  1.017972  0
H  H19  1  0.66123789  0.32264523  0.90010986  1  0  0.093954  0.102989  0  1.018055  0
H  H20  1  0.52118469  0.44803512  0.16619265  1  0  0.092159  0.088142  0  1.04347  0
H  H21  1  0.47882052  0.55196823  0.83380820  1  0  0.092149  0.08811  0  1.043516  0
H  H22  1  0.62151539  0.39255719  0.33519525  1  0  0.103813  0.121501  0  1.031094  0
H  H23  1  0.37848645  0.60744291  0.66480427  1  0  0.103819  0.121553  0  1.031053  0
H  H24  1  0.53341966  0.57165422  0.43589242  1  0  0.106213  0.107303  0  1.017077  0
H  H25  1  0.46657459  0.42834266  0.56410884  1  0  0.106221  0.107313  0  1.017023  0
H  H26  1  0.25061294  0.24519617  0.61064165  1  0  0.300929  0.37996  0  0.94156  0
H  H27  1  0.74938812  0.75480289  0.38936237  1  0  0.300925  0.379985  0  0.941499  0
H  H28  1  0.38709089  0.23239485  0.53990396  1  0  0.297857  0.397202  0  0.937806  0
H  H29  1  0.61290485  0.76760849  0.46009454  1  0  0.297896  0.397287  0  0.937695  0
H  H30  1  0.09702777  0.03623481  0.71028456  1  0  0.283891  0.354592  0  0.995185  0
H  H31  1  0.90296865  0.96375776  0.28971740  1  0  0.283896  0.354611  0  0.995179  0
H  H32  1  0.96727055  0.09753430  0.63375663  1  0  0.298898  0.412425  0  0.920325  0
H  H33  1  0.03272791  0.90246258  0.36624440  1  0  0.298908  0.41244  0  0.920311  0
C  C34  1  0.55852564  0.83979535  0.78259167  1  0  -0.021938  -0.082374  0  3.948869  0
C  C35  1  0.44147362  0.16021886  0.21741382  1  0  -0.02197  -0.082251  0  3.948825  0
C  C36  1  0.67758087  0.71948940  0.81213663  1  0  -0.080639  -0.072235  0  3.949967  0
C  C37  1  0.32242190  0.28051935  0.18786402  1  0  -0.080678  -0.072492  0  3.950002  0
C  C38  1  0.71044403  0.65578883  0.91132274  1  0  -0.10101  -0.095518  0  4.022965  0
C  C39  1  0.28955985  0.34421560  0.08867726  1  0  -0.101038  -0.095496  0  4.022991  0
C  C40  1  0.62676108  0.71460738  0.98338132  1  0  -0.096621  -0.070435  0  4.015883  0
C  C41  1  0.37324341  0.28539059  0.01662273  1  0  -0.0966  -0.070304  0  4.015904  0
C  C42  1  0.51125452  0.83733257  0.95599777  1  0  -0.112099  -0.141779  0  4.039855  0
C  C43  1  0.48874996  0.16266542  0.04400841  1  0  -0.112187  -0.142088  0  4.039927  0
C  C44  1  0.47651481  0.89860778  0.85639107  1  0  -0.048306  0.031542  0  3.878693  0
C  C45  1  0.52348773  0.10139780  0.14361661  1  0  -0.048253  0.031568  0  3.878613  0
C  C46  1  0.52713342  0.89313395  0.67420336  1  0  0.237975  0.672311  0  4.144648  0
C  C47  1  0.47286718  0.10687916  0.32580014  1  0  0.237893  0.672407  0  4.144661  0
C  C48  1  0.04870175  0.63292196  0.68666317  1  0  -0.012039  -0.065013  0  3.939027  0
C  C49  1  0.95130548  0.36706947  0.31333345  1  0  -0.012018  -0.065042  0  3.93917  0
C  C50  1  0.98838087  0.54535830  0.64687165  1  0  -0.072632  -0.076102  0  3.925966  0
C  C51  1  0.01162630  0.45463744  0.35312343  1  0  -0.072537  -0.076071  0  3.925945  0
C  C52  1  0.96412108  0.41650286  0.70496518  1  0  -0.089996  -0.075275  0  3.977991  0
C  C53  1  0.03587657  0.58349718  0.29502532  1  0  -0.090018  -0.075292  0  3.978002  0
C  C54  1  0.99740900  0.37414889  0.80539121  1  0  -0.096656  -0.064748  0  4.002009  0
C  C55  1  0.00258210  0.62584794  0.19460310  1  0  -0.096763  -0.064946  0  4.002244  0
C  C56  1  0.05484598  0.46057106  0.84697383  1  0  -0.10494  -0.135892  0  4.022948  0
C  C57  1  0.94514539  0.53942471  0.15302351  1  0  -0.104848  -0.135699  0  4.022874  0
C  C58  1  0.08074926  0.58910210  0.78781837  1  0  -0.0385  0.040337  0  3.866303  0
C  C59  1  0.91924605  0.41089476  0.21217998  1  0  -0.03849  0.040394  0  3.866357  0
C  C60  1  0.07171512  0.76856747  0.61654151  1  0  0.235071  0.655076  0  4.164712  0
C  C61  1  0.92828623  0.23143044  0.38345418  1  0  0.235009  0.654963  0  4.164949  0
C  C62  1  0.38416924  0.72304407  0.32724544  1  0  -0.027584  -0.083139  0  3.978669  0
C  C63  1  0.61582628  0.27695607  0.67275655  1  0  -0.027579  -0.083186  0  3.978723  0
C  C64  1  0.33080341  0.75304900  0.23105497  1  0  -0.043601  0.034759  0  3.868464  0
C  C65  1  0.66919560  0.24694573  0.76894715  1  0  -0.043613  0.034771  0  3.868573  0
C  C66  1  0.38027790  0.65348234  0.17419086  1  0  -0.101668  -0.12451  0  4.008649  0
C  C67  1  0.61972505  0.34651346  0.82581084  1  0  -0.10169  -0.124525  0  4.008716  0
C  C68  1  0.48387580  0.52436146  0.21158884  1  0  -0.085439  -0.050891  0  3.982373  0
C  C69  1  0.51612870  0.47563649  0.78841166  1  0  -0.085436  -0.050857  0  3.982223  0
C  C70  1  0.54022735  0.49344684  0.30593441  1  0  -0.09039  -0.079533  0  3.95935  0
C  C71  1  0.45977216  0.50655003  0.69406585  1  0  -0.090425  -0.079642  0  3.959266  0
C  C72  1  0.49064419  0.59298991  0.36215551  1  0  -0.081726  -0.081318  0  3.95496  0
C  C73  1  0.50935244  0.40700590  0.63784654  1  0  -0.081696  -0.081244  0  3.954906  0
C  C74  1  0.33486357  0.81702569  0.39678612  1  0  0.204077  0.593137  0  4.180975  0
C  C75  1  0.66513540  0.18297332  0.60321162  1  0  0.204004  0.593077  0  4.181065  0
I  I76  1  0.30422391  0.08990566  0.82779105  1  0  0.124256  0.003411  0  1.787113  0
I  I77  1  0.69577442  0.91009989  0.17221402  1  0  0.124265  0.003434  0  1.787142  0
I  I78  1  0.18576567  0.95036431  0.15922505  1  0  0.104663  -0.028781  0  1.793296  0
I  I79  1  0.81423068  0.04963256  0.84077467  1  0  0.104684  -0.028765  0  1.793346  0
I  I80  1  0.15413205  0.71885303  0.86045774  1  0  0.122114  0.01883  0  1.662762  0
I  I81  1  0.84586752  0.28113952  0.13954263  1  0  0.122082  0.018801  0  1.662848  0
O  O82  1  0.39593022  0.94929084  0.64757818  1  0  -0.409096  -0.676836  0  2.392413  0
O  O83  1  0.60407177  0.05071684  0.35242272  1  0  -0.4091  -0.676884  0  2.392307  0
O  O84  1  0.19151174  0.80034363  0.61748449  1  0  -0.370801  -0.636215  0  2.321427  0
O  O85  1  0.80849726  0.19965318  0.38250887  1  0  -0.370742  -0.636107  0  2.321646  0
O  O86  1  0.42283534  0.81574976  0.46143253  1  0  -0.338165  -0.61187  0  2.249491  0
O  O87  1  0.57716783  0.18424925  0.53856570  1  0  -0.338141  -0.611817  0  2.249592  0
O  O88  1  0.20475021  0.89772042  0.39350787  1  0  -0.36569  -0.635911  0  2.344991  0
O  O89  1  0.79524664  0.10227863  0.60649354  1  0  -0.365671  -0.635896  0  2.345068  0
O  O90  1  0.63454263  0.87532020  0.61525657  1  0  -0.409026  -0.670814  0  2.325709  0
O  O91  1  0.36546190  0.12469399  0.38474792  1  0  -0.408925  -0.670811  0  2.32565  0
O  O92  1  0.96905391  0.84242091  0.55709830  1  0  -0.416736  -0.683941  0  2.370676  0
O  O93  1  0.03094842  0.15758138  0.44290361  1  0  -0.416747  -0.683962  0  2.370592  0
O  O94  1  0.27968522  0.24272531  0.54281125  1  0  -0.62202  -0.815451  0  2.06095  0
O  O95  1  0.72030918  0.75727915  0.45719139  1  0  -0.622037  -0.815524  0  2.060878  0
O  O96  1  0.07214445  0.09102980  0.64235948  1  0  -0.636849  -0.847876  0  2.161472  0
O  O97  1  0.92785590  0.90896383  0.35764135  1  0  -0.636852  -0.847904  0  2.161451  0
