# generated using pymatgen
data_CdH13C14(NO2)2
_symmetry_space_group_name_H-M   'P 1'
_cell_length_a   7.74140484
_cell_length_b   11.96409823
_cell_length_c   15.34480210
_cell_angle_alpha   96.03877086
_cell_angle_beta   89.99991824
_cell_angle_gamma   90.00001550
_symmetry_Int_Tables_number   1
_chemical_formula_structural   CdH13C14(NO2)2
_chemical_formula_sum   'Cd4 H52 C56 N8 O16'
_cell_volume   1413.33268379
_cell_formula_units_Z   4
loop_
 _symmetry_equiv_pos_site_id
 _symmetry_equiv_pos_as_xyz
  1  'x, y, z'
loop_
 _atom_site_type_symbol
 _atom_site_label
 _atom_site_symmetry_multiplicity
 _atom_site_fract_x
 _atom_site_fract_y
 _atom_site_fract_z
 _atom_site_occupancy
 _atom_site_hle17_bader_spin_density
 _atom_site_hle17_ddec_charge
 _atom_site_hle17_ddec_spin_density
 _atom_site_hle17_ddec_sum_bond_order
 _atom_site_hle17_magmom
 _atom_site_hse06_10hf_bader_spin_density
 _atom_site_hse06_10hf_ddec_charge
 _atom_site_hse06_10hf_ddec_spin_density
 _atom_site_hse06_10hf_ddec_sum_bond_order
 _atom_site_hse06_10hf_magmom
 _atom_site_hse06_bader_spin_density
 _atom_site_hse06_ddec_charge
 _atom_site_hse06_ddec_spin_density
 _atom_site_hse06_ddec_sum_bond_order
 _atom_site_hse06_magmom
 _atom_site_pbe_bader_spin_density
 _atom_site_pbe_cm5_charge
 _atom_site_pbe_ddec_charge
 _atom_site_pbe_ddec_spin_density
 _atom_site_pbe_ddec_sum_bond_order
 _atom_site_pbe_magmom
Cd  Cd0  1  0.74530789  0.50150830  0.97458362  1  0  1.178806  0  1.629929  0  0  1.000239  0  2.065758  0  0  1.058663  0  2.012244  0  0  0.77713  0.958545  0  2.102276  0
Cd  Cd1  1  0.24530895  0.99849323  0.52541545  1  0  1.1788  0  1.629892  0  0  1.00024  0  2.065711  0  0  1.058666  0  2.012198  0  0  0.777151  0.958561  0  2.102235  0
Cd  Cd2  1  0.25469157  0.49849414  0.02541575  1  0  1.178794  0  1.629935  0  0  1.000222  0  2.065766  0  0  1.058648  0  2.012254  0  0  0.777119  0.958523  0  2.102283  0
Cd  Cd3  1  0.75469181  0.00150752  0.47458314  1  0  1.178828  0  1.629871  0  0  1.000271  0  2.065699  0  0  1.058696  0  2.012184  0  0  0.777158  0.958586  0  2.102219  0
H  H4  1  0.89072274  0.62076848  0.51816227  1  0  0.08819  0  0.975181  0  0  0.096652  0  1.043414  0  0  0.100053  0  1.040665  0  0  0.098925  0.094209  0  1.045417  0
H  H5  1  0.39072116  0.87923054  0.98183779  1  0  0.088194  0  0.975108  0  0  0.096652  0  1.043349  0  0  0.100051  0  1.040603  0  0  0.098928  0.094209  0  1.045355  0
H  H6  1  0.10927801  0.37923059  0.48183813  1  0  0.08816  0  0.975138  0  0  0.096615  0  1.043381  0  0  0.100014  0  1.040637  0  0  0.098908  0.094172  0  1.045394  0
H  H7  1  0.60927830  0.12077021  0.01816144  1  0  0.088179  0  0.975091  0  0  0.096639  0  1.04333  0  0  0.100039  0  1.040583  0  0  0.098925  0.094195  0  1.045343  0
H  H8  1  0.97173243  0.46534534  0.60675754  1  0  0.086688  0  0.980601  0  0  0.094802  0  1.048848  0  0  0.097406  0  1.048872  0  0  0.095958  0.092953  0  1.048933  0
H  H9  1  0.47173224  0.03465323  0.89324201  1  0  0.086687  0  0.980623  0  0  0.094801  0  1.048867  0  0  0.097406  0  1.048891  0  0  0.095972  0.092954  0  1.048952  0
H  H10  1  0.02826833  0.53465290  0.39324280  1  0  0.086714  0  0.980619  0  0  0.094816  0  1.048869  0  0  0.09742  0  1.048893  0  0  0.095972  0.092967  0  1.048956  0
H  H11  1  0.52826851  0.96534752  0.10675722  1  0  0.086702  0  0.980585  0  0  0.094795  0  1.048851  0  0  0.0974  0  1.048875  0  0  0.095969  0.092948  0  1.048939  0
H  H12  1  0.19894094  0.70716176  0.80092743  1  0  0.098641  0  0.963215  0  0  0.109499  0  1.022952  0  0  0.111886  0  1.02317  0  0  0.09883  0.107755  0  1.022966  0
H  H13  1  0.69893821  0.79283808  0.69907219  1  0  0.098656  0  0.963207  0  0  0.109527  0  1.022942  0  0  0.111919  0  1.023146  0  0  0.098853  0.107785  0  1.022958  0
H  H14  1  0.80106239  0.29283815  0.19907304  1  0  0.098633  0  0.963192  0  0  0.109486  0  1.02294  0  0  0.111873  0  1.023159  0  0  0.098827  0.10774  0  1.022953  0
H  H15  1  0.30105867  0.20716098  0.30092626  1  0  0.098604  0  0.96319  0  0  0.109465  0  1.022931  0  0  0.11185  0  1.023154  0  0  0.098832  0.107721  0  1.022947  0
H  H16  1  0.11869856  0.86143382  0.71136882  1  0  0.101959  0  0.944818  0  0  0.112402  0  1.004326  0  0  0.115972  0  1.001988  0  0  0.103333  0.109796  0  1.006098  0
H  H17  1  0.61869680  0.63856518  0.78862949  1  0  0.102018  0  0.944799  0  0  0.112462  0  1.004287  0  0  0.116032  0  1.00195  0  0  0.103351  0.109849  0  1.006063  0
H  H18  1  0.88130349  0.13856610  0.28863035  1  0  0.101945  0  0.944841  0  0  0.112404  0  1.004332  0  0  0.115974  0  1.001994  0  0  0.103333  0.109796  0  1.006102  0
H  H19  1  0.38130137  0.36143473  0.21136968  1  0  0.101971  0  0.94483  0  0  0.112439  0  1.004301  0  0  0.116008  0  1.001963  0  0  0.103349  0.109829  0  1.006068  0
H  H20  1  0.25444763  0.49107901  0.79596624  1  0  0.120688  0  0.94244  0  0  0.130144  0  1.010277  0  0  0.132786  0  1.008536  0  0  0.101491  0.128288  0  1.011582  0
H  H21  1  0.75445122  0.00892123  0.70403425  1  0  0.120684  0  0.942434  0  0  0.130135  0  1.010277  0  0  0.132777  0  1.008539  0  0  0.101478  0.128274  0  1.011579  0
H  H22  1  0.74555054  0.50892091  0.20403423  1  0  0.120691  0  0.942391  0  0  0.13015  0  1.010232  0  0  0.132792  0  1.008492  0  0  0.101477  0.128284  0  1.011532  0
H  H23  1  0.24555212  0.99107869  0.29596688  1  0  0.120693  0  0.942406  0  0  0.130141  0  1.01024  0  0  0.132784  0  1.0085  0  0  0.101488  0.128282  0  1.011543  0
H  H24  1  0.11064693  0.40062625  0.72955372  1  0  0.112579  0  0.927353  0  0  0.126425  0  0.985624  0  0  0.128835  0  0.98483  0  0  0.103632  0.124783  0  0.98619  0
H  H25  1  0.61064908  0.09937230  0.77044674  1  0  0.112557  0  0.927292  0  0  0.126383  0  0.985598  0  0  0.128794  0  0.984804  0  0  0.103614  0.12474  0  0.986151  0
H  H26  1  0.88935253  0.59937283  0.27044603  1  0  0.112567  0  0.92729  0  0  0.126399  0  0.985593  0  0  0.12881  0  0.984799  0  0  0.10362  0.12475  0  0.986152  0
H  H27  1  0.38935167  0.90062846  0.22955445  1  0  0.112615  0  0.92724  0  0  0.126411  0  0.985566  0  0  0.128823  0  0.984771  0  0  0.103627  0.124769  0  0.986122  0
H  H28  1  0.01240219  0.72169621  0.98452534  1  0  0.112485  0  0.957344  0  0  0.119029  0  1.024452  0  0  0.12233  0  1.020346  0  0  0.135237  0.116576  0  1.02745  0
H  H29  1  0.51240255  0.77830362  0.51547507  1  0  0.112478  0  0.957344  0  0  0.119024  0  1.024449  0  0  0.122324  0  1.020344  0  0  0.135234  0.116574  0  1.027445  0
H  H30  1  0.98759469  0.27830287  0.01547572  1  0  0.112452  0  0.957336  0  0  0.119003  0  1.024443  0  0  0.122304  0  1.020337  0  0  0.135208  0.116548  0  1.027437  0
H  H31  1  0.48759691  0.22169629  0.48452541  1  0  0.112477  0  0.957345  0  0  0.119018  0  1.024456  0  0  0.122318  0  1.02035  0  0  0.135236  0.116566  0  1.027449  0
H  H32  1  0.57485943  0.69131168  0.14396235  1  0  0.111365  0  0.938262  0  0  0.124507  0  0.990918  0  0  0.127054  0  0.989854  0  0  0.120816  0.122643  0  0.99184  0
H  H33  1  0.07485946  0.80868790  0.35603823  1  0  0.111399  0  0.938246  0  0  0.124542  0  0.990896  0  0  0.127087  0  0.989836  0  0  0.120837  0.122679  0  0.991815  0
H  H34  1  0.42513874  0.30868739  0.85603806  1  0  0.111327  0  0.938289  0  0  0.124474  0  0.990954  0  0  0.127021  0  0.989886  0  0  0.120805  0.122609  0  0.991884  0
H  H35  1  0.92514129  0.19131286  0.64396231  1  0  0.111367  0  0.938266  0  0  0.124505  0  0.990931  0  0  0.127053  0  0.989864  0  0  0.120819  0.122643  0  0.991856  0
H  H36  1  0.75756523  0.88185259  0.20923375  1  0  0.132914  0  0.992439  0  0  0.138489  0  1.056588  0  0  0.142968  0  1.052938  0  0  0.117661  0.135184  0  1.059388  0
H  H37  1  0.25756666  0.61814701  0.29076669  1  0  0.132912  0  0.992437  0  0  0.138487  0  1.056583  0  0  0.142965  0  1.052931  0  0  0.11766  0.13518  0  1.059375  0
H  H38  1  0.24243294  0.11814649  0.79076665  1  0  0.132917  0  0.992397  0  0  0.13849  0  1.056548  0  0  0.142968  0  1.0529  0  0  0.117675  0.135189  0  1.05935  0
H  H39  1  0.74243409  0.38185375  0.70923385  1  0  0.132913  0  0.992404  0  0  0.138486  0  1.056555  0  0  0.142966  0  1.052903  0  0  0.117662  0.135182  0  1.05935  0
H  H40  1  0.17308364  0.87739191  0.07874250  1  0  0.082329  0  0.926431  0  0  0.098673  0  0.990179  0  0  0.099787  0  0.989001  0  0  0.113455  0.097692  0  0.991249  0
H  H41  1  0.67308538  0.62260935  0.42125749  1  0  0.082314  0  0.926481  0  0  0.09866  0  0.990217  0  0  0.099772  0  0.989043  0  0  0.113456  0.097677  0  0.991288  0
H  H42  1  0.82691453  0.12260884  0.92125739  1  0  0.082313  0  0.926472  0  0  0.098668  0  0.990206  0  0  0.09978  0  0.989031  0  0  0.113459  0.097687  0  0.991275  0
H  H43  1  0.32691538  0.37739140  0.57874305  1  0  0.082324  0  0.926469  0  0  0.09868  0  0.990195  0  0  0.099793  0  0.98902  0  0  0.113465  0.097699  0  0.991265  0
H  H44  1  0.06754454  0.94795057  0.17129470  1  0  0.081141  0  0.92013  0  0  0.101154  0  0.976219  0  0  0.101513  0  0.976314  0  0  0.116579  0.10078  0  0.976265  0
H  H45  1  0.56754522  0.55204984  0.32870464  1  0  0.081158  0  0.920246  0  0  0.101165  0  0.976329  0  0  0.101522  0  0.976425  0  0  0.116584  0.100789  0  0.976372  0
H  H46  1  0.93245363  0.05204934  0.82870382  1  0  0.081147  0  0.920253  0  0  0.101167  0  0.976327  0  0  0.101524  0  0.976426  0  0  0.116582  0.100793  0  0.976377  0
H  H47  1  0.43245424  0.44795007  0.67129583  1  0  0.081162  0  0.920249  0  0  0.101178  0  0.976326  0  0  0.101535  0  0.976424  0  0  0.116586  0.100804  0  0.976371  0
H  H48  1  0.88563244  0.05515367  0.07491015  1  0  0.070046  0  0.940899  0  0  0.090425  0  0.999529  0  0  0.090617  0  1.000871  0  0  0.092241  0.090188  0  0.998699  0
H  H49  1  0.38563234  0.44484716  0.42508923  1  0  0.069987  0  0.940842  0  0  0.09038  0  0.999494  0  0  0.090571  0  1.00083  0  0  0.09221  0.090143  0  0.998664  0
H  H50  1  0.11436702  0.94484624  0.92508837  1  0  0.069986  0  0.940786  0  0  0.090378  0  0.999448  0  0  0.090568  0  1.000785  0  0  0.092194  0.090142  0  0.998622  0
H  H51  1  0.61436712  0.55515444  0.57491138  1  0  0.070039  0  0.940919  0  0  0.090417  0  0.999569  0  0  0.090604  0  1.000907  0  0  0.092219  0.09018  0  0.998741  0
H  H52  1  0.10895044  0.07944379  0.06396079  1  0  0.07436  0  0.943033  0  0  0.092025  0  1.004848  0  0  0.092009  0  1.007058  0  0  0.09423  0.091965  0  1.003359  0
H  H53  1  0.60895096  0.42055701  0.43603944  1  0  0.074339  0  0.943032  0  0  0.092025  0  1.004848  0  0  0.092009  0  1.007052  0  0  0.09423  0.091964  0  1.003359  0
H  H54  1  0.89104903  0.92055612  0.93603904  1  0  0.074347  0  0.943062  0  0  0.092028  0  1.004892  0  0  0.092011  0  1.007097  0  0  0.09424  0.091968  0  1.003405  0
H  H55  1  0.39104850  0.57944374  0.56396110  1  0  0.074346  0  0.94303  0  0  0.092026  0  1.00485  0  0  0.092007  0  1.007053  0  0  0.094231  0.091966  0  1.003364  0
C  C56  1  0.93156932  0.84247056  0.56055362  1  0  0.634557  0  3.928308  0  0  0.581744  0  4.222697  0  0  0.616861  0  4.216423  0  0  0.194243  0.557926  0  4.226106  0
C  C57  1  0.43157035  0.65752763  0.93944700  1  0  0.634656  0  3.928187  0  0  0.58184  0  4.222561  0  0  0.616955  0  4.216283  0  0  0.194215  0.55802  0  4.225974  0
C  C58  1  0.06843014  0.15752936  0.43944750  1  0  0.634599  0  3.928267  0  0  0.581785  0  4.222646  0  0  0.616901  0  4.216371  0  0  0.194217  0.557969  0  4.226053  0
C  C59  1  0.56843170  0.34247144  0.06055275  1  0  0.634814  0  3.928192  0  0  0.581999  0  4.222594  0  0  0.617117  0  4.216317  0  0  0.194304  0.558177  0  4.226002  0
C  C60  1  0.99646959  0.75040459  0.61003662  1  0  -0.081627  0  3.793334  0  0  -0.059044  0  4.029545  0  0  -0.068333  0  4.053351  0  0  -0.027107  -0.053057  0  4.013522  0
C  C61  1  0.49647339  0.74959612  0.88996416  1  0  -0.081723  0  3.793242  0  0  -0.059143  0  4.029459  0  0  -0.068428  0  4.053258  0  0  -0.027196  -0.053152  0  4.013429  0
C  C62  1  0.00352858  0.24959700  0.38996398  1  0  -0.081719  0  3.793303  0  0  -0.059153  0  4.029542  0  0  -0.06844  0  4.053343  0  0  -0.027161  -0.05317  0  4.013522  0
C  C63  1  0.50352995  0.25040463  0.11003573  1  0  -0.081819  0  3.793419  0  0  -0.059309  0  4.02977  0  0  -0.0686  0  4.053575  0  0  -0.027202  -0.053316  0  4.013736  0
C  C64  1  0.95864831  0.63842296  0.58018212  1  0  -0.065723  0  3.757249  0  0  -0.090919  0  4.006831  0  0  -0.089211  0  4.025845  0  0  -0.088335  -0.091826  0  3.993892  0
C  C65  1  0.45865336  0.86157691  0.91981797  1  0  -0.065696  0  3.757194  0  0  -0.090887  0  4.006767  0  0  -0.089178  0  4.025776  0  0  -0.08832  -0.091795  0  3.993829  0
C  C66  1  0.04135115  0.36157696  0.41981835  1  0  -0.06563  0  3.757204  0  0  -0.090815  0  4.006781  0  0  -0.089107  0  4.025791  0  0  -0.088318  -0.091729  0  3.993855  0
C  C67  1  0.54134869  0.13842217  0.08018244  1  0  -0.065602  0  3.75714  0  0  -0.09077  0  4.006731  0  0  -0.089061  0  4.025743  0  0  -0.088302  -0.091683  0  3.9938  0
C  C68  1  0.00466375  0.55210800  0.62963525  1  0  -0.14109  0  3.752997  0  0  -0.158894  0  4.000844  0  0  -0.163803  0  4.02269  0  0  -0.098292  -0.155638  0  3.98601  0
C  C69  1  0.50466318  0.94789016  0.87036503  1  0  -0.141083  0  3.753112  0  0  -0.158892  0  4.000935  0  0  -0.163801  0  4.02278  0  0  -0.098312  -0.155636  0  3.986107  0
C  C70  1  0.99533700  0.44789192  0.37036522  1  0  -0.141139  0  3.753055  0  0  -0.158925  0  4.0009  0  0  -0.163834  0  4.022744  0  0  -0.098298  -0.155674  0  3.986075  0
C  C71  1  0.49533628  0.05210892  0.12963407  1  0  -0.141124  0  3.753016  0  0  -0.158923  0  4.000854  0  0  -0.163833  0  4.022698  0  0  -0.098315  -0.155671  0  3.986032  0
C  C72  1  0.08897521  0.57588182  0.71030547  1  0  0.135138  0  3.732337  0  0  0.155383  0  3.964833  0  0  0.157624  0  3.98864  0  0  -0.002386  0.153965  0  3.948685  0
C  C73  1  0.58897486  0.92411634  0.78969475  1  0  0.135041  0  3.732485  0  0  0.155312  0  3.964948  0  0  0.157553  0  3.988755  0  0  -0.002418  0.153879  0  3.948803  0
C  C74  1  0.91102683  0.42411726  0.28969494  1  0  0.135123  0  3.732416  0  0  0.155361  0  3.964923  0  0  0.157603  0  3.988729  0  0  -0.002404  0.153931  0  3.948761  0
C  C75  1  0.41102331  0.07588357  0.21030377  1  0  0.135035  0  3.732411  0  0  0.155325  0  3.96483  0  0  0.157567  0  3.988635  0  0  -0.00242  0.153895  0  3.948684  0
C  C76  1  0.13186018  0.68786397  0.73874324  1  0  -0.122922  0  3.714489  0  0  -0.139564  0  3.956911  0  0  -0.144067  0  3.978809  0  0  -0.091798  -0.136608  0  3.94209  0
C  C77  1  0.63185728  0.81213419  0.76125630  1  0  -0.122791  0  3.714436  0  0  -0.139451  0  3.956833  0  0  -0.143952  0  3.978732  0  0  -0.091764  -0.136499  0  3.942021  0
C  C78  1  0.86814316  0.31213510  0.26125652  1  0  -0.122883  0  3.71443  0  0  -0.139515  0  3.95685  0  0  -0.144018  0  3.978748  0  0  -0.091792  -0.136561  0  3.942027  0
C  C79  1  0.36813831  0.18786488  0.23874215  1  0  -0.122715  0  3.714454  0  0  -0.139374  0  3.956876  0  0  -0.143877  0  3.978773  0  0  -0.091739  -0.136424  0  3.94206  0
C  C80  1  0.08684518  0.77431752  0.68909619  1  0  -0.060594  0  3.735771  0  0  -0.084781  0  3.983963  0  0  -0.083613  0  4.003438  0  0  -0.083541  -0.085325  0  3.97072  0
C  C81  1  0.58684469  0.72568148  0.81090410  1  0  -0.060748  0  3.735841  0  0  -0.084934  0  3.984035  0  0  -0.083768  0  4.003508  0  0  -0.083562  -0.085473  0  3.970791  0
C  C82  1  0.91315557  0.22568240  0.31090363  1  0  -0.060611  0  3.735806  0  0  -0.084807  0  3.983995  0  0  -0.08364  0  4.003468  0  0  -0.083554  -0.08535  0  3.970746  0
C  C83  1  0.41315348  0.27431843  0.18909572  1  0  -0.060702  0  3.735912  0  0  -0.084888  0  3.984144  0  0  -0.083719  0  4.003616  0  0  -0.083579  -0.085431  0  3.970889  0
C  C84  1  0.12442992  0.48314848  0.76740524  1  0  -0.31959  0  3.700181  0  0  -0.362659  0  3.944618  0  0  -0.368925  0  3.951372  0  0  -0.162551  -0.358412  0  3.940029  0
C  C85  1  0.62443085  0.01684839  0.73259508  1  0  -0.319572  0  3.700159  0  0  -0.362652  0  3.944629  0  0  -0.368922  0  3.951388  0  0  -0.162541  -0.358372  0  3.93999  0
C  C86  1  0.87557083  0.51684808  0.23259497  1  0  -0.319617  0  3.700133  0  0  -0.362696  0  3.944597  0  0  -0.368965  0  3.951351  0  0  -0.162549  -0.35841  0  3.939947  0
C  C87  1  0.37557119  0.98315321  0.26740618  1  0  -0.319626  0  3.700182  0  0  -0.362646  0  3.944578  0  0  -0.368917  0  3.951334  0  0  -0.16254  -0.358381  0  3.939957  0
C  C88  1  0.99520587  0.49222797  0.84287332  1  0  0.706586  0  3.8485  0  0  0.660017  0  4.143848  0  0  0.693707  0  4.13889  0  0  0.202752  0.637154  0  4.146286  0
C  C89  1  0.49520635  0.00777061  0.65712687  1  0  0.706606  0  3.848487  0  0  0.660045  0  4.143819  0  0  0.693736  0  4.13886  0  0  0.202742  0.637183  0  4.146246  0
C  C90  1  0.00479488  0.50777111  0.15712644  1  0  0.706664  0  3.848457  0  0  0.660114  0  4.143781  0  0  0.693806  0  4.13882  0  0  0.202779  0.637247  0  4.146202  0
C  C91  1  0.50479570  0.99222846  0.34287223  1  0  0.706578  0  3.848492  0  0  0.659997  0  4.143847  0  0  0.69369  0  4.138887  0  0  0.202772  0.63714  0  4.146269  0
C  C92  1  0.91421660  0.74010273  0.03433024  1  0  0.160284  0  3.65099  0  0  0.099308  0  3.915608  0  0  0.113871  0  3.927996  0  0  0.13709  0.089891  0  3.906917  0
C  C93  1  0.41421631  0.75989688  0.46567009  1  0  0.160232  0  3.651094  0  0  0.099269  0  3.915709  0  0  0.113831  0  3.9281  0  0  0.137058  0.089852  0  3.907021  0
C  C94  1  0.08578157  0.25989635  0.96567017  1  0  0.160317  0  3.65104  0  0  0.099333  0  3.915645  0  0  0.113895  0  3.928036  0  0  0.137106  0.089923  0  3.906939  0
C  C95  1  0.58578315  0.24010388  0.53433045  1  0  0.160273  0  3.651026  0  0  0.099314  0  3.915631  0  0  0.113877  0  3.928021  0  0  0.137086  0.089902  0  3.906932  0
C  C96  1  0.69220251  0.72684368  0.11995248  1  0  0.007135  0  3.752089  0  0  -0.027871  0  4.021552  0  0  -0.026151  0  4.043084  0  0  -0.005591  -0.029114  0  4.007048  0
C  C97  1  0.19220505  0.77315590  0.38004736  1  0  0.007077  0  3.752165  0  0  -0.027927  0  4.021624  0  0  -0.026207  0  4.043157  0  0  -0.005635  -0.029171  0  4.007115  0
C  C98  1  0.30779437  0.27315540  0.88004858  1  0  0.007124  0  3.752175  0  0  -0.027901  0  4.021645  0  0  -0.02618  0  4.04318  0  0  -0.005674  -0.029145  0  4.007148  0
C  C99  1  0.80779571  0.22684485  0.61995318  1  0  0.00712  0  3.752131  0  0  -0.027888  0  4.021584  0  0  -0.026166  0  4.043116  0  0  -0.005664  -0.029133  0  4.007081  0
C  C100  1  0.78062571  0.82217739  0.15187471  1  0  -0.084887  0  3.66764  0  0  -0.120853  0  3.920855  0  0  -0.119989  0  3.938675  0  0  -0.004735  -0.121331  0  3.909002  0
C  C101  1  0.28062701  0.67782389  0.34812455  1  0  -0.084863  0  3.667668  0  0  -0.120815  0  3.920874  0  0  -0.11995  0  3.938692  0  0  -0.004701  -0.121282  0  3.909001  0
C  C102  1  0.21937375  0.17782253  0.84812576  1  0  -0.084828  0  3.667599  0  0  -0.120786  0  3.920807  0  0  -0.119923  0  3.938626  0  0  -0.004689  -0.121268  0  3.908963  0
C  C103  1  0.71937245  0.32217687  0.65187534  1  0  -0.084909  0  3.667613  0  0  -0.120861  0  3.920817  0  0  -0.119998  0  3.938636  0  0  -0.004713  -0.121332  0  3.908954  0
C  C104  1  0.05154625  0.91773598  0.10180118  1  0  0.003621  0  3.614076  0  0  -0.061532  0  3.876491  0  0  -0.056943  0  3.887335  0  0  -0.047645  -0.064422  0  3.868982  0
C  C105  1  0.55154803  0.58226528  0.39819824  1  0  0.003563  0  3.614228  0  0  -0.061553  0  3.876643  0  0  -0.056968  0  3.887486  0  0  -0.047653  -0.064448  0  3.869132  0
C  C106  1  0.94845192  0.08226478  0.89819805  1  0  0.003598  0  3.614183  0  0  -0.061557  0  3.87665  0  0  -0.056972  0  3.887491  0  0  -0.047642  -0.064449  0  3.869144  0
C  C107  1  0.44845272  0.41773464  0.60180158  1  0  0.003577  0  3.61418  0  0  -0.061569  0  3.876625  0  0  -0.056987  0  3.887464  0  0  -0.047641  -0.06446  0  3.869117  0
C  C108  1  0.00697024  0.01606629  0.04950059  1  0  -0.128928  0  3.678857  0  0  -0.170881  0  3.944293  0  0  -0.172516  0  3.958832  0  0  -0.164223  -0.169587  0  3.934145  0
C  C109  1  0.50697075  0.48393451  0.45049971  1  0  -0.128785  0  3.678722  0  0  -0.170831  0  3.944252  0  0  -0.172456  0  3.958773  0  0  -0.164195  -0.169539  0  3.934103  0
C  C110  1  0.99302922  0.98393362  0.95049923  1  0  -0.128772  0  3.678655  0  0  -0.170832  0  3.944194  0  0  -0.172448  0  3.958719  0  0  -0.164207  -0.169539  0  3.934052  0
C  C111  1  0.49303000  0.51606625  0.54950083  1  0  -0.128861  0  3.678837  0  0  -0.170872  0  3.944344  0  0  -0.172481  0  3.958853  0  0  -0.164214  -0.16958  0  3.934202  0
N  N112  1  0.77693141  0.67644143  0.04677797  1  0  -0.41052  0  3.292121  0  0  -0.33283  0  3.574034  0  0  -0.356951  0  3.595204  0  0  -0.364423  -0.316301  0  3.55915  0
N  N113  1  0.27693118  0.82355733  0.45322239  1  0  -0.41049  0  3.292151  0  0  -0.332813  0  3.57407  0  0  -0.356937  0  3.595242  0  0  -0.364397  -0.316288  0  3.559198  0
N  N114  1  0.22306676  0.32355849  0.95322250  1  0  -0.410534  0  3.292065  0  0  -0.332833  0  3.573969  0  0  -0.356958  0  3.595145  0  0  -0.364382  -0.316301  0  3.559077  0
N  N115  1  0.72306957  0.17644175  0.54677736  1  0  -0.410547  0  3.292082  0  0  -0.332861  0  3.573984  0  0  -0.356985  0  3.595154  0  0  -0.364374  -0.316333  0  3.559107  0
N  N116  1  0.92052417  0.82929685  0.09651639  1  0  -0.054556  0  3.560229  0  0  0.042437  0  3.776296  0  0  0.027895  0  3.802078  0  0  -0.24324  0.052037  0  3.758633  0
N  N117  1  0.42052531  0.67070444  0.40348277  1  0  -0.054493  0  3.560249  0  0  0.042478  0  3.776306  0  0  0.027935  0  3.80209  0  0  -0.24322  0.052083  0  3.758637  0
N  N118  1  0.07947271  0.17070391  0.90348415  1  0  -0.054532  0  3.560265  0  0  0.042465  0  3.776322  0  0  0.027923  0  3.802106  0  0  -0.243211  0.052064  0  3.75866  0
N  N119  1  0.57947286  0.32929547  0.59651640  1  0  -0.054455  0  3.560209  0  0  0.042523  0  3.776271  0  0  0.027979  0  3.802056  0  0  -0.243213  0.052125  0  3.758603  0
O  O120  1  0.83125557  0.81788802  0.49551777  1  0  -0.621774  0  1.961957  0  0  -0.562314  0  2.208304  0  0  -0.590707  0  2.198098  0  0  -0.322249  -0.54247  0  2.214568  0
O  O121  1  0.33125138  0.68211157  0.00448132  1  0  -0.621792  0  1.962  0  0  -0.562317  0  2.208322  0  0  -0.59072  0  2.198144  0  0  -0.322217  -0.542474  0  2.214589  0
O  O122  1  0.16874906  0.18211273  0.50448081  1  0  -0.621798  0  1.962052  0  0  -0.562317  0  2.208373  0  0  -0.590713  0  2.198175  0  0  -0.322211  -0.542476  0  2.214643  0
O  O123  1  0.66875066  0.31788834  0.99551785  1  0  -0.621827  0  1.961938  0  0  -0.562351  0  2.20828  0  0  -0.59074  0  2.198066  0  0  -0.322236  -0.542513  0  2.214553  0
O  O124  1  0.97359527  0.94481727  0.58649293  1  0  -0.687508  0  2.007768  0  0  -0.617728  0  2.264277  0  0  -0.646792  0  2.250726  0  0  -0.342066  -0.597171  0  2.272682  0
O  O125  1  0.47359504  0.55518176  0.91350708  1  0  -0.687505  0  2.007811  0  0  -0.617727  0  2.264323  0  0  -0.646791  0  2.250773  0  0  -0.342026  -0.597158  0  2.272695  0
O  O126  1  0.02640290  0.05518349  0.41350761  1  0  -0.687456  0  2.00774  0  0  -0.617688  0  2.264265  0  0  -0.646752  0  2.250714  0  0  -0.342044  -0.597136  0  2.272679  0
O  O127  1  0.52640443  0.44481815  0.08649144  1  0  -0.687567  0  2.007736  0  0  -0.617784  0  2.264256  0  0  -0.646848  0  2.250703  0  0  -0.342072  -0.597229  0  2.272653  0
O  O128  1  0.84623163  0.44816472  0.83103483  1  0  -0.632234  0  1.92976  0  0  -0.567013  0  2.158672  0  0  -0.595723  0  2.148562  0  0  -0.323093  -0.546909  0  2.164922  0
O  O129  1  0.34623338  0.05183470  0.66896749  1  0  -0.632227  0  1.929752  0  0  -0.567  0  2.158656  0  0  -0.59571  0  2.148546  0  0  -0.323057  -0.546892  0  2.164904  0
O  O130  1  0.15376783  0.55183520  0.16896564  1  0  -0.632234  0  1.929746  0  0  -0.567015  0  2.158642  0  0  -0.595725  0  2.14853  0  0  -0.323082  -0.546916  0  2.164891  0
O  O131  1  0.65377125  0.94816522  0.33103233  1  0  -0.632233  0  1.929729  0  0  -0.566997  0  2.158625  0  0  -0.595708  0  2.148514  0  0  -0.323115  -0.546891  0  2.164869  0
O  O132  1  0.03822832  0.54756653  0.91512622  1  0  -0.687616  0  2.052845  0  0  -0.616507  0  2.307759  0  0  -0.64815  0  2.299305  0  0  -0.332355  -0.594196  0  2.312634  0
O  O133  1  0.53822985  0.95243247  0.58487475  1  0  -0.687608  0  2.05283  0  0  -0.616503  0  2.307758  0  0  -0.648146  0  2.299295  0  0  -0.332341  -0.594195  0  2.312639  0
O  O134  1  0.96177115  0.45243254  0.08487353  1  0  -0.687646  0  2.052884  0  0  -0.616521  0  2.307769  0  0  -0.648162  0  2.299304  0  0  -0.332347  -0.594216  0  2.312644  0
O  O135  1  0.46177607  0.04756493  0.41512683  1  0  -0.68758  0  2.052839  0  0  -0.616479  0  2.307781  0  0  -0.648119  0  2.29931  0  0  -0.332338  -0.594172  0  2.312657  0
