# generated using pymatgen
data_DyH13(CO)10
_symmetry_space_group_name_H-M   'P 1'
_cell_length_a   6.57645629
_cell_length_b   12.00740404
_cell_length_c   19.19318822
_cell_angle_alpha   71.75672128
_cell_angle_beta   79.78359704
_cell_angle_gamma   74.00831393
_symmetry_Int_Tables_number   1
_chemical_formula_structural   DyH13(CO)10
_chemical_formula_sum   'Dy4 H52 C40 O40'
_cell_volume   1376.81889524
_cell_formula_units_Z   4
loop_
 _symmetry_equiv_pos_site_id
 _symmetry_equiv_pos_as_xyz
  1  'x, y, z'
loop_
 _atom_site_type_symbol
 _atom_site_label
 _atom_site_symmetry_multiplicity
 _atom_site_fract_x
 _atom_site_fract_y
 _atom_site_fract_z
 _atom_site_occupancy
 _atom_site_hle17_bader_spin_density
 _atom_site_hle17_ddec_charge
 _atom_site_hle17_ddec_spin_density
 _atom_site_hle17_ddec_sum_bond_order
 _atom_site_hle17_magmom
 _atom_site_hse06_10hf_bader_spin_density
 _atom_site_hse06_10hf_ddec_charge
 _atom_site_hse06_10hf_ddec_spin_density
 _atom_site_hse06_10hf_ddec_sum_bond_order
 _atom_site_hse06_10hf_magmom
 _atom_site_hse06_bader_spin_density
 _atom_site_hse06_ddec_charge
 _atom_site_hse06_ddec_spin_density
 _atom_site_hse06_ddec_sum_bond_order
 _atom_site_hse06_magmom
 _atom_site_pbe_bader_charge
 _atom_site_pbe_bader_spin_density
 _atom_site_pbe_cm5_charge
 _atom_site_pbe_ddec_charge
 _atom_site_pbe_ddec_spin_density
 _atom_site_pbe_ddec_sum_bond_order
 _atom_site_pbe_magmom
Dy  Dy0  1  0.13449277  0.82691858  0.01571726  1  0  2.145298  0  1.756482  0  0  2.075438  0  2.075263  0  0  2.123763  0  2.03609  0  2.159769  0  1.523778  2.038289  0  2.106878  0
Dy  Dy1  1  0.97829392  0.67282890  0.48508407  1  0  2.14567  0  1.755567  0  0  2.075513  0  2.074849  0  0  2.124025  0  2.035344  0  2.161103  0  1.52552  2.038559  0  2.106185  0
Dy  Dy2  1  0.86551086  0.17307999  0.98428255  1  0  2.145254  0  1.756511  0  0  2.075429  0  2.075245  0  0  2.123728  0  2.036109  0  2.159674  0  1.523772  2.038287  0  2.106845  0
Dy  Dy3  1  0.02170283  0.32717418  0.51491689  1  0  2.145698  0  1.755532  0  0  2.075486  0  2.074914  0  0  2.124002  0  2.035405  0  2.161166  0  1.525539  2.038533  0  2.106245  0
H  H4  1  0.90681879  0.77047455  0.64845148  1  0  0.424196  0  0.86758  0  0  0.391482  0  0.944739  0  0  0.404841  0  0.925919  0  0.667942  0  0.308647  0.382105  0  0.95755  0
H  H5  1  0.32602105  0.72893188  0.85263257  1  0  0.423384  0  0.86773  0  0  0.390278  0  0.945957  0  0  0.403609  0  0.927198  0  0.667581  0  0.30857  0.380922  0  0.958228  0
H  H6  1  0.09318073  0.22952312  0.35154989  1  0  0.424087  0  0.867723  0  0  0.391415  0  0.944826  0  0  0.404739  0  0.926059  0  0.667954  0  0.308599  0.382038  0  0.957618  0
H  H7  1  0.67398351  0.27106668  0.14736786  1  0  0.423373  0  0.867795  0  0  0.390255  0  0.946005  0  0  0.403586  0  0.927247  0  0.667553  0  0.308556  0.380899  0  0.958314  0
H  H8  1  0.27011828  0.55459869  0.06289831  1  0  0.459886  0  0.825812  0  0  0.429142  0  0.887144  0  0  0.439793  0  0.871512  0  0.676225  0  0.309375  0.421636  0  0.898157  0
H  H9  1  0.88791784  0.94504413  0.43777910  1  0  0.460302  0  0.825026  0  0  0.429588  0  0.886369  0  0  0.440245  0  0.870725  0  0.662921  0  0.309955  0.42207  0  0.897398  0
H  H10  1  0.72988441  0.44539988  0.93710090  1  0  0.45995  0  0.825725  0  0  0.429182  0  0.887081  0  0  0.439832  0  0.87145  0  0.676218  0  0.309404  0.42168  0  0.898084  0
H  H11  1  0.11207832  0.05495714  0.56222043  1  0  0.46027  0  0.825046  0  0  0.429573  0  0.886376  0  0  0.440231  0  0.87073  0  0.662931  0  0.309938  0.422053  0  0.897409  0
H  H12  1  0.04859608  0.59318562  0.03008240  1  0  0.434998  0  0.814947  0  0  0.421247  0  0.861395  0  0  0.429095  0  0.849991  0  0.619897  0  0.334829  0.415644  0  0.869603  0
H  H13  1  0.67213137  0.90547557  0.47078449  1  0  0.435387  0  0.81465  0  0  0.422196  0  0.860064  0  0  0.430106  0  0.84854  0  0.593884  0  0.335688  0.416549  0  0.868354  0
H  H14  1  0.95140444  0.40681566  0.96991739  1  0  0.434994  0  0.814938  0  0  0.421244  0  0.861392  0  0  0.42909  0  0.84999  0  0.619889  0  0.334822  0.41564  0  0.869601  0
H  H15  1  0.32786875  0.09452119  0.52921372  1  0  0.435365  0  0.814735  0  0  0.422179  0  0.860103  0  0  0.43009  0  0.848576  0  0.59387  0  0.335691  0.416533  0  0.86839  0
H  H16  1  0.67178865  0.77346637  0.07541410  1  0  0.462623  0  0.825886  0  0  0.43167  0  0.88775  0  0  0.442919  0  0.871377  0  0.672544  0  0.30523  0.423712  0  0.899316  0
H  H17  1  0.52192443  0.72617194  0.42552689  1  0  0.462189  0  0.826343  0  0  0.431791  0  0.88712  0  0  0.442922  0  0.87092  0  0.64395  0  0.306068  0.423939  0  0.898529  0
H  H18  1  0.32821315  0.22653310  0.92458547  1  0  0.462605  0  0.825917  0  0  0.431641  0  0.887799  0  0  0.44289  0  0.871426  0  0.672543  0  0.305214  0.423682  0  0.899365  0
H  H19  1  0.47806565  0.27383294  0.57447507  1  0  0.462227  0  0.826286  0  0  0.4318  0  0.887124  0  0  0.442935  0  0.870913  0  0.643863  0  0.306066  0.423947  0  0.898534  0
H  H20  1  0.84227388  0.74951645  0.13209386  1  0  0.433617  0  0.84148  0  0  0.41139  0  0.898891  0  0  0.420352  0  0.885361  0  0.625268  0  0.315316  0.405014  0  0.908563  0
H  H21  1  0.72733239  0.74926743  0.36901505  1  0  0.433933  0  0.841179  0  0  0.411922  0  0.897894  0  0  0.420908  0  0.884339  0  0.629389  0  0.31519  0.405541  0  0.907561  0
H  H22  1  0.15772844  0.25048302  0.86790519  1  0  0.433619  0  0.841498  0  0  0.411395  0  0.898882  0  0  0.420356  0  0.885353  0  0.625317  0  0.315318  0.405017  0  0.908556  0
H  H23  1  0.27265672  0.25073654  0.63098532  1  0  0.433933  0  0.841123  0  0  0.411932  0  0.897865  0  0  0.420918  0  0.884312  0  0.629397  0  0.315188  0.405552  0  0.907531  0
H  H24  1  0.58806823  0.07714408  0.86085593  1  0  0.094579  0  0.918613  0  0  0.103628  0  0.980214  0  0  0.105963  0  0.979355  0  0.074232  0  0.110366  0.101908  0  0.980982  0
H  H25  1  0.52546778  0.42205897  0.64000521  1  0  0.093144  0  0.919496  0  0  0.1025  0  0.981088  0  0  0.104905  0  0.980149  0  0.070345  0  0.109908  0.100742  0  0.9819  0
H  H26  1  0.41193576  0.92285358  0.13914404  1  0  0.094615  0  0.918538  0  0  0.103616  0  0.980185  0  0  0.105949  0  0.979324  0  0.074169  0  0.11037  0.101897  0  0.980953  0
H  H27  1  0.47453766  0.57794320  0.35999530  1  0  0.093158  0  0.91954  0  0  0.102549  0  0.981081  0  0  0.104947  0  0.980158  0  0.070301  0  0.109925  0.100797  0  0.981876  0
H  H28  1  0.72433930  0.83100842  0.83025600  1  0  0.106432  0  0.896057  0  0  0.117594  0  0.94925  0  0  0.1207  0  0.947489  0  0.100334  0  0.114019  0.115314  0  0.950732  0
H  H29  1  0.38317035  0.66851710  0.67006223  1  0  0.105626  0  0.897315  0  0  0.117178  0  0.950069  0  0  0.120277  0  0.948328  0  0.066822  0  0.113483  0.114902  0  0.951526  0
H  H30  1  0.27566287  0.16899014  0.16974373  1  0  0.10639  0  0.896066  0  0  0.117525  0  0.949255  0  0  0.120635  0  0.947494  0  0.100371  0  0.114009  0.115245  0  0.950738  0
H  H31  1  0.61682991  0.33148327  0.32993989  1  0  0.105693  0  0.897325  0  0  0.11724  0  0.950061  0  0  0.120336  0  0.948324  0  0.066864  0  0.113479  0.114964  0  0.951518  0
H  H32  1  0.34845381  0.03274133  0.76653844  1  0  0.0775  0  0.920829  0  0  0.095525  0  0.981497  0  0  0.096897  0  0.980978  0  0.034473  0  0.094451  0.09441  0  0.982067  0
H  H33  1  0.14560974  0.46652128  0.73614729  1  0  0.077355  0  0.922419  0  0  0.09513  0  0.983413  0  0  0.096561  0  0.982806  0  0.029743  0  0.093556  0.093976  0  0.984073  0
H  H34  1  0.65154717  0.96725634  0.23346301  1  0  0.077517  0  0.920891  0  0  0.095537  0  0.981559  0  0  0.096913  0  0.981029  0  0.034453  0  0.094467  0.094414  0  0.982136  0
H  H35  1  0.85439332  0.53347639  0.26385208  1  0  0.077357  0  0.922521  0  0  0.095137  0  0.9835  0  0  0.096571  0  0.98289  0  0.029744  0  0.093584  0.093982  0  0.984165  0
H  H36  1  0.44297478  0.88897994  0.75087836  1  0  0.09668  0  0.929691  0  0  0.110502  0  0.992718  0  0  0.11306  0  0.991097  0  0.045958  0  0.101258  0.108549  0  0.994064  0
H  H37  1  0.08073421  0.61056363  0.75126961  1  0  0.097248  0  0.927888  0  0  0.110775  0  0.991307  0  0  0.113307  0  0.98973  0  0.07699  0  0.101398  0.108932  0  0.992479  0
H  H38  1  0.55702489  0.11101862  0.24912232  1  0  0.096688  0  0.929705  0  0  0.110523  0  0.992714  0  0  0.11307  0  0.991109  0  0.045962  0  0.101268  0.108569  0  0.994059  0
H  H39  1  0.91926531  0.38943404  0.24873176  1  0  0.097238  0  0.9279  0  0  0.110757  0  0.991328  0  0  0.113287  0  0.989757  0  0.077003  0  0.101386  0.108916  0  0.9925  0
H  H40  1  0.53813602  0.05976788  0.64647819  1  0  0.085943  0  0.916745  0  0  0.098207  0  0.973651  0  0  0.100936  0  0.971959  0  0.053145  0  0.111342  0.096193  0  0.975061  0
H  H41  1  0.24380898  0.44031035  0.85509909  1  0  0.085303  0  0.919637  0  0  0.097964  0  0.976181  0  0  0.100714  0  0.974462  0  0.067717  0  0.111752  0.095956  0  0.977585  0
H  H42  1  0.46185473  0.94023340  0.35352212  1  0  0.085958  0  0.916767  0  0  0.098206  0  0.973692  0  0  0.100943  0  0.971989  0  0.053166  0  0.111363  0.096192  0  0.975102  0
H  H43  1  0.75619248  0.55968641  0.14490086  1  0  0.085313  0  0.91964  0  0  0.097985  0  0.976182  0  0  0.100738  0  0.974463  0  0.067726  0  0.111737  0.095975  0  0.97759  0
H  H44  1  0.56943084  0.18028346  0.72454528  1  0  0.070609  0  0.917346  0  0  0.085446  0  0.974256  0  0  0.086927  0  0.973806  0  0.046228  0  0.104251  0.08432  0  0.974794  0
H  H45  1  0.47448811  0.31950064  0.77666816  1  0  0.069156  0  0.92043  0  0  0.085449  0  0.976882  0  0  0.086797  0  0.976624  0  0.036544  0  0.104899  0.084388  0  0.977313  0
H  H46  1  0.43056357  0.81971601  0.27545551  1  0  0.07065  0  0.917378  0  0  0.085474  0  0.974279  0  0  0.086955  0  0.97383  0  0.046273  0  0.104283  0.084348  0  0.974817  0
H  H47  1  0.52551525  0.68049883  0.22332985  1  0  0.069201  0  0.920405  0  0  0.085504  0  0.976854  0  0  0.086853  0  0.97659  0  0.036362  0  0.104917  0.084442  0  0.977286  0
H  H48  1  0.90700892  0.13031299  0.78529037  1  0  0.098907  0  0.944389  0  0  0.111358  0  1.011105  0  0  0.113842  0  1.009794  0  0.072893  0  0.097789  0.109559  0  1.012097  0
H  H49  1  0.82253521  0.37031380  0.71401104  1  0  0.098897  0  0.944894  0  0  0.111587  0  1.010389  0  0  0.113988  0  1.009196  0  0.083936  0  0.097852  0.109814  0  1.011345  0
H  H50  1  0.09299444  0.86968648  0.21470764  1  0  0.098895  0  0.944387  0  0  0.111357  0  1.011096  0  0  0.113839  0  1.009787  0  0.072873  0  0.097791  0.109555  0  1.012087  0
H  H51  1  0.17746878  0.62968837  0.28598938  1  0  0.098958  0  0.944822  0  0  0.111628  0  1.010325  0  0  0.114028  0  1.009132  0  0.083827  0  0.097861  0.109837  0  1.011306  0
H  H52  1  0.98551437  0.99253254  0.76176613  1  0  0.08565  0  0.923644  0  0  0.10437  0  0.981635  0  0  0.105479  0  0.981987  0  0.048091  0  0.097724  0.10346  0  0.981567  0
H  H53  1  0.73863834  0.50834724  0.73728157  1  0  0.087082  0  0.923532  0  0  0.104986  0  0.981952  0  0  0.106056  0  0.982366  0  0.025148  0  0.097769  0.104083  0  0.981878  0
H  H54  1  0.01448295  0.00746873  0.23823070  1  0  0.085685  0  0.923596  0  0  0.104399  0  0.9816  0  0  0.105507  0  0.981955  0  0.048102  0  0.097723  0.103493  0  0.981524  0
H  H55  1  0.26136285  0.49165313  0.26272116  1  0  0.087123  0  0.923487  0  0  0.104998  0  0.98192  0  0  0.10606  0  0.982346  0  0.025187  0  0.097785  0.104107  0  0.981831  0
C  C56  1  0.71157459  0.00444984  0.84432307  1  0  -0.126308  0  3.618535  0  0  -0.132271  0  3.855065  0  0  -0.13747  0  3.868206  0  0.003586  0  -0.08358  -0.128736  0  3.846027  0
C  C57  1  0.55876722  0.49511050  0.65613861  1  0  -0.12308  0  3.624838  0  0  -0.13106  0  3.863093  0  0  -0.136303  0  3.876243  0  0.018908  0  -0.083681  -0.127493  0  3.853996  0
C  C58  1  0.28842702  0.99554782  0.15567621  1  0  -0.126344  0  3.618556  0  0  -0.132288  0  3.855079  0  0  -0.137485  0  3.868217  0  0.004003  0  -0.083613  -0.128762  0  3.84605  0
C  C59  1  0.44123047  0.50489257  0.34386296  1  0  -0.123036  0  3.625025  0  0  -0.131007  0  3.863152  0  0  -0.136252  0  3.876299  0  0.019124  0  -0.083653  -0.127438  0  3.854056  0
C  C60  1  0.60362597  0.91463419  0.83235657  1  0  -0.125981  0  3.611982  0  0  -0.132848  0  3.852551  0  0  -0.138165  0  3.865327  0  -0.022193  0  -0.085209  -0.129295  0  3.843755  0
C  C61  1  0.34821590  0.58463601  0.66862360  1  0  -0.125635  0  3.612034  0  0  -0.132334  0  3.852656  0  0  -0.137601  0  3.865421  0  0.001447  0  -0.084419  -0.128808  0  3.843904  0
C  C62  1  0.39637751  0.08536348  0.16764393  1  0  -0.125877  0  3.611801  0  0  -0.132606  0  3.852169  0  0  -0.137926  0  3.864949  0  -0.022451  0  -0.08514  -0.129051  0  3.843365  0
C  C63  1  0.65178399  0.41536527  0.33137837  1  0  -0.125804  0  3.612245  0  0  -0.132454  0  3.852755  0  0  -0.137718  0  3.865521  0  0.001473  0  -0.08441  -0.128928  0  3.844007  0
C  C64  1  0.49327846  0.96217764  0.76065646  1  0  -0.121377  0  3.626406  0  0  -0.175828  0  3.893249  0  0  -0.175285  0  3.904501  0  -0.009819  0  -0.157803  -0.175902  0  3.885411  0
C  C65  1  0.21428974  0.53739390  0.74110772  1  0  -0.1202  0  3.623756  0  0  -0.174483  0  3.89042  0  0  -0.173928  0  3.901576  0  -0.021236  0  -0.156322  -0.174632  0  3.88266  0
C  C66  1  0.50672397  0.03782003  0.23934508  1  0  -0.121471  0  3.626534  0  0  -0.175953  0  3.893363  0  0  -0.175407  0  3.904615  0  -0.009812  0  -0.157878  -0.176021  0  3.885527  0
C  C67  1  0.78571392  0.46260556  0.25889308  1  0  -0.120111  0  3.623812  0  0  -0.174401  0  3.890487  0  0  -0.173847  0  3.901643  0  -0.021255  0  -0.15633  -0.174553  0  3.882728  0
C  C68  1  0.63521842  0.01763154  0.69350162  1  0  -0.128598  0  3.631661  0  0  -0.137572  0  3.876248  0  0  -0.142911  0  3.890143  0  0.010826  0  -0.081372  -0.13388  0  3.866563  0
C  C69  1  0.34567570  0.48246744  0.80755153  1  0  -0.129721  0  3.631731  0  0  -0.138282  0  3.876699  0  0  -0.143611  0  3.890596  0  -8.1e-05  0  -0.081999  -0.13461  0  3.867029  0
C  C70  1  0.36478121  0.98236612  0.30649809  1  0  -0.12855  0  3.631679  0  0  -0.137545  0  3.876284  0  0  -0.142888  0  3.890177  0  0.010916  0  -0.081361  -0.133854  0  3.866598  0
C  C71  1  0.65432726  0.51753023  0.19244948  1  0  -0.129826  0  3.631627  0  0  -0.138412  0  3.876679  0  0  -0.143742  0  3.890575  0  -6e-06  0  -0.081989  -0.134737  0  3.867014  0
C  C72  1  0.71363829  0.11546666  0.70945963  1  0  -0.113958  0  3.656453  0  0  -0.116922  0  3.892871  0  0  -0.121858  0  3.907321  0  -0.011179  0  -0.082446  -0.113566  0  3.882931  0
C  C73  1  0.53857438  0.38470179  0.79107920  1  0  -0.111698  0  3.656384  0  0  -0.11854  0  3.896323  0  0  -0.123463  0  3.910804  0  -0.022029  0  -0.082646  -0.115174  0  3.886325  0
C  C74  1  0.28635970  0.88453371  0.29054014  1  0  -0.114138  0  3.656665  0  0  -0.117053  0  3.893073  0  0  -0.121988  0  3.90752  0  -0.011186  0  -0.082483  -0.113701  0  3.883136  0
C  C75  1  0.46142507  0.61529858  0.20892065  1  0  -0.111667  0  3.656335  0  0  -0.118551  0  3.896333  0  0  -0.12347  0  3.91081  0  -0.021834  0  -0.082655  -0.115182  0  3.886334  0
C  C76  1  0.84651982  0.06109146  0.77500879  1  0  -0.131152  0  3.627313  0  0  -0.184952  0  3.885379  0  0  -0.185749  0  3.898061  0  -0.030823  0  -0.16293  -0.184187  0  3.876648  0
C  C77  1  0.68192354  0.43928270  0.72475123  1  0  -0.134626  0  3.630646  0  0  -0.185736  0  3.887538  0  0  -0.186457  0  3.900166  0  -0.024913  0  -0.163364  -0.18498  0  3.878771  0
C  C78  1  0.15348011  0.93890801  0.22498957  1  0  -0.131138  0  3.627279  0  0  -0.18496  0  3.885345  0  0  -0.185757  0  3.898028  0  -0.03083  0  -0.162929  -0.184184  0  3.876597  0
C  C79  1  0.31807885  0.56071857  0.27524978  1  0  -0.134775  0  3.630642  0  0  -0.185841  0  3.887516  0  0  -0.186559  0  3.900148  0  -0.024847  0  -0.163416  -0.185077  0  3.878744  0
C  C80  1  0.84913499  0.94392536  0.90753885  1  0  0.734  0  3.754968  0  0  0.687174  0  4.05538  0  0  0.721954  0  4.044815  0  1.541617  0  0.225025  0.663604  0  4.061541  0
C  C81  1  0.69897208  0.55609730  0.59259138  1  0  0.728714  0  3.761418  0  0  0.682442  0  4.06149  0  0  0.717173  0  4.051203  0  1.547566  0  0.222906  0.658903  0  4.0675  0
C  C82  1  0.15087653  0.05607321  0.09245923  1  0  0.733926  0  3.755108  0  0  0.687096  0  4.055528  0  0  0.721878  0  4.044961  0  1.542  0  0.225007  0.663526  0  4.061689  0
C  C83  1  0.30102468  0.44390577  0.40740959  1  0  0.728592  0  3.76167  0  0  0.682325  0  4.061713  0  0  0.717059  0  4.051433  0  1.547354  0  0.222842  0.658784  0  4.067725  0
C  C84  1  0.44457927  0.88055033  0.89830954  1  0  0.684713  0  3.804348  0  0  0.634301  0  4.114171  0  0  0.667783  0  4.106018  0  1.535079  0  0.211581  0.611692  0  4.118711  0
C  C85  1  0.22180101  0.61839055  0.60292636  1  0  0.683612  0  3.804116  0  0  0.633782  0  4.113195  0  0  0.667202  0  4.105214  0  1.53559  0  0.211286  0.611207  0  4.117649  0
C  C86  1  0.55542801  0.11944643  0.10169076  1  0  0.684769  0  3.804254  0  0  0.634294  0  4.114143  0  0  0.667774  0  4.105989  0  1.535522  0  0.211574  0.611686  0  4.118683  0
C  C87  1  0.77819970  0.38161253  0.39707374  1  0  0.683597  0  3.804379  0  0  0.633791  0  4.1134  0  0  0.667212  0  4.10542  0  1.535567  0  0.211252  0.611215  0  4.117856  0
C  C88  1  0.82208593  0.92879211  0.66542189  1  0  0.68698  0  3.733903  0  0  0.635371  0  4.043588  0  0  0.667606  0  4.035979  0  1.554677  0  0.241451  0.613462  0  4.048209  0
C  C89  1  0.41609647  0.57127115  0.83505107  1  0  0.686261  0  3.736255  0  0  0.635446  0  4.044583  0  0  0.667647  0  4.037063  0  1.554868  0  0.242005  0.613557  0  4.049152  0
C  C90  1  0.17791098  0.07120916  0.33457381  1  0  0.687183  0  3.733555  0  0  0.635559  0  4.04324  0  0  0.667791  0  4.035629  0  1.55455  0  0.241514  0.613649  0  4.047863  0
C  C91  1  0.58390118  0.42872651  0.16494908  1  0  0.686292  0  3.736091  0  0  0.635464  0  4.044448  0  0  0.667663  0  4.036925  0  1.554866  0  0.241965  0.613559  0  4.049034  0
C  C92  1  0.82265344  0.18984538  0.64193850  1  0  0.669674  0  3.869386  0  0  0.613958  0  4.185221  0  0  0.64752  0  4.177554  0  1.535604  0  0.200272  0.591201  0  4.189607  0
C  C93  1  0.65576268  0.31074532  0.85797819  1  0  0.668785  0  3.865825  0  0  0.613886  0  4.182013  0  0  0.647436  0  4.174322  0  1.511135  0  0.199771  0.591125  0  4.18639  0
C  C94  1  0.17733690  0.81016040  0.35806113  1  0  0.669959  0  3.869099  0  0  0.6142  0  4.184984  0  0  0.647761  0  4.177314  0  1.536538  0  0.200349  0.59144  0  4.189375  0
C  C95  1  0.34423557  0.68924964  0.14202293  1  0  0.668665  0  3.865961  0  0  0.613786  0  4.182146  0  0  0.647333  0  4.174463  0  1.511138  0  0.199699  0.591026  0  4.186523  0
O  O96  1  0.92293893  0.00969996  0.93473656  1  0  -0.82436  0  2.083029  0  0  -0.783765  0  2.342897  0  0  -0.81074  0  2.332633  0  -1.212887  0  -0.451988  -0.764268  0  2.348829  0
O  O97  1  0.86579433  0.49065254  0.56458372  1  0  -0.822544  0  2.08666  0  0  -0.782179  0  2.347183  0  0  -0.809063  0  2.336615  0  -1.215523  0  -0.453807  -0.762826  0  2.353319  0
O  O98  1  0.07706361  0.99029770  0.06526332  1  0  -0.82435  0  2.083041  0  0  -0.783714  0  2.342843  0  0  -0.810685  0  2.332565  0  -1.212978  0  -0.451983  -0.764217  0  2.348775  0
O  O99  1  0.13420413  0.50935595  0.43541545  1  0  -0.822372  0  2.086456  0  0  -0.78204  0  2.34702  0  0  -0.808896  0  2.33639  0  -1.215639  0  -0.453716  -0.762689  0  2.35316  0
O  O100  1  0.90247600  0.83059249  0.93141812  1  0  -0.639394  0  1.950996  0  0  -0.598971  0  2.175219  0  0  -0.622946  0  2.166599  0  -1.166691  0  -0.36245  -0.58232  0  2.180682  0
O  O101  1  0.66355061  0.66947618  0.56939451  1  0  -0.63656  0  1.952734  0  0  -0.596253  0  2.176887  0  0  -0.620324  0  2.16836  0  -1.169784  0  -0.361725  -0.579574  0  2.182292  0
O  O102  1  0.09753281  0.16940788  0.06858009  1  0  -0.639341  0  1.951045  0  0  -0.59893  0  2.17527  0  0  -0.622905  0  2.166654  0  -1.167122  0  -0.362416  -0.58228  0  2.180732  0
O  O103  1  0.33644107  0.33052960  0.43060686  1  0  -0.636524  0  1.952988  0  0  -0.596231  0  2.177152  0  0  -0.620307  0  2.168623  0  -1.169673  0  -0.361739  -0.579552  0  2.18256  0
O  O104  1  0.40385590  0.93242091  0.94891165  1  0  -0.641201  0  1.979629  0  0  -0.604618  0  2.219102  0  0  -0.628157  0  2.211565  0  -1.16109  0  -0.356576  -0.588057  0  2.22355  0
O  O105  1  0.28556616  0.56698552  0.55211181  1  0  -0.640621  0  1.977169  0  0  -0.603793  0  2.215714  0  0  -0.627345  0  2.208115  0  -1.158569  0  -0.354574  -0.587261  0  2.220203  0
O  O106  1  0.59615571  0.06757314  0.05109208  1  0  -0.641178  0  1.979742  0  0  -0.604593  0  2.219254  0  0  -0.628126  0  2.211716  0  -1.161575  0  -0.356528  -0.588033  0  2.223701  0
O  O107  1  0.71443794  0.43302117  0.44788741  1  0  -0.640613  0  1.977252  0  0  -0.603848  0  2.215882  0  0  -0.627394  0  2.208274  0  -1.158665  0  -0.35458  -0.587316  0  2.220374  0
O  O108  1  0.34480796  0.79932632  0.90270402  1  0  -0.709157  0  2.06659  0  0  -0.658977  0  2.305975  0  0  -0.685924  0  2.295255  0  -1.184472  0  -0.375374  -0.639953  0  2.312368  0
O  O109  1  0.04452665  0.69928072  0.59872664  1  0  -0.707771  0  2.068153  0  0  -0.65798  0  2.306979  0  0  -0.684974  0  2.296273  0  -1.195547  0  -0.372938  -0.638955  0  2.31348  0
O  O110  1  0.65519711  0.20067224  0.09729589  1  0  -0.709247  0  2.066513  0  0  -0.659066  0  2.305937  0  0  -0.686008  0  2.295216  0  -1.184461  0  -0.375439  -0.640043  0  2.312338  0
O  O111  1  0.95546925  0.30071965  0.40127522  1  0  -0.707726  0  2.068243  0  0  -0.65797  0  2.307056  0  0  -0.684948  0  2.296365  0  -1.195504  0  -0.372922  -0.638945  0  2.313553  0
O  O112  1  0.98727056  0.95823305  0.63229023  1  0  -0.578622  0  1.946351  0  0  -0.532424  0  2.159286  0  0  -0.553874  0  2.148943  0  -1.181737  0  -0.289935  -0.517565  0  2.166031  0
O  O113  1  0.57835050  0.54165878  0.86729530  1  0  -0.577058  0  1.948348  0  0  -0.531382  0  2.161289  0  0  -0.55283  0  2.151039  0  -1.183971  0  -0.290077  -0.516527  0  2.167968  0
O  O114  1  0.01272105  0.04176822  0.36770460  1  0  -0.578735  0  1.946189  0  0  -0.532505  0  2.159091  0  0  -0.553957  0  2.148749  0  -1.181746  0  -0.289989  -0.517645  0  2.165835  0
O  O115  1  0.42165245  0.45833888  0.13270571  1  0  -0.576994  0  1.948406  0  0  -0.53132  0  2.16136  0  0  -0.552767  0  2.151108  0  -1.184031  0  -0.290028  -0.51646  0  2.16805  0
O  O116  1  0.78788183  0.82092411  0.67751195  1  0  -0.539791  0  2.053144  0  0  -0.490188  0  2.266357  0  0  -0.512737  0  2.247936  0  -1.176625  0  -0.321713  -0.474536  0  2.278441  0
O  O117  1  0.28565209  0.67907780  0.82376619  1  0  -0.538515  0  2.053427  0  0  -0.489341  0  2.26754  0  0  -0.511851  0  2.249111  0  -1.174512  0  -0.321237  -0.473711  0  2.27921  0
O  O118  1  0.21211981  0.17907446  0.32248830  1  0  -0.539825  0  2.053177  0  0  -0.490214  0  2.266328  0  0  -0.512736  0  2.247937  0  -1.176597  0  -0.321682  -0.474562  0  2.278399  0
O  O119  1  0.71435083  0.32091896  0.17623385  1  0  -0.538528  0  2.053395  0  0  -0.489329  0  2.26748  0  0  -0.511842  0  2.249051  0  -1.174509  0  -0.321222  -0.473692  0  2.279183  0
O  O120  1  0.98830017  0.22038886  0.64666863  1  0  -0.687514  0  2.035039  0  0  -0.643143  0  2.280257  0  0  -0.667752  0  2.269899  0  -1.19238  0  -0.369846  -0.625896  0  2.286852  0
O  O121  1  0.85714713  0.28104453  0.85245898  1  0  -0.687519  0  2.027989  0  0  -0.643419  0  2.272875  0  0  -0.667968  0  2.262587  0  -1.157824  0  -0.369277  -0.626202  0  2.279503  0
O  O122  1  0.01168296  0.77961873  0.35333252  1  0  -0.687604  0  2.034881  0  0  -0.643241  0  2.280139  0  0  -0.667848  0  2.269775  0  -1.193346  0  -0.369851  -0.625999  0  2.286752  0
O  O123  1  0.14285038  0.71895223  0.14754184  1  0  -0.687502  0  2.028096  0  0  -0.643408  0  2.272977  0  0  -0.66796  0  2.26269  0  -1.157887  0  -0.369266  -0.626189  0  2.279599  0
O  O124  1  0.74081272  0.22737399  0.58003446  1  0  -0.71153  0  2.005136  0  0  -0.663411  0  2.238354  0  0  -0.688972  0  2.228789  0  -1.198625  0  -0.37528  -0.645407  0  2.244372  0
O  O125  1  0.54953980  0.27257071  0.92022043  1  0  -0.710456  0  2.005459  0  0  -0.66192  0  2.23813  0  0  -0.687487  0  2.228667  0  -1.196454  0  -0.374691  -0.643846  0  2.244083  0
O  O126  1  0.25917602  0.77263090  0.41996575  1  0  -0.711634  0  2.005041  0  0  -0.663532  0  2.238284  0  0  -0.68909  0  2.228721  0  -1.198628  0  -0.375346  -0.645526  0  2.244305  0
O  O127  1  0.45045678  0.72742605  0.07977978  1  0  -0.710424  0  2.005472  0  0  -0.661883  0  2.238121  0  0  -0.687453  0  2.22866  0  -1.196386  0  -0.374671  -0.643809  0  2.244076  0
O  O128  1  0.18349372  0.61510730  0.02415007  1  0  -0.871581  0  1.82789  0  0  -0.835335  0  1.994053  0  0  -0.852331  0  1.964785  0  -1.253449  0  -0.616165  -0.823102  0  2.014406  0
O  O129  1  0.82284149  0.88444980  0.47678042  1  0  -0.872887  0  1.826109  0  0  -0.837594  0  1.991008  0  0  -0.854612  0  1.961696  0  -1.215728  0  -0.618627  -0.825393  0  2.011392  0
O  O130  1  0.81651222  0.38488946  0.97584849  1  0  -0.871637  0  1.827847  0  0  -0.835353  0  1.994057  0  0  -0.852345  0  1.964792  0  -1.253417  0  -0.616187  -0.823123  0  2.014408  0
O  O131  1  0.17715813  0.11555237  0.52321973  1  0  -0.872857  0  1.82617  0  0  -0.837569  0  1.990992  0  0  -0.854589  0  1.961678  0  -1.215723  0  -0.618616  -0.825368  0  2.011377  0
O  O132  1  0.80240630  0.79422326  0.08266324  1  0  -0.902553  0  1.87029  0  0  -0.867328  0  2.06127  0  0  -0.885302  0  2.030177  0  -1.27415  0  -0.635899  -0.854237  0  2.082847  0
O  O133  1  0.68083760  0.70582737  0.41873026  1  0  -0.902392  0  1.871586  0  0  -0.867348  0  2.062411  0  0  -0.885312  0  2.031378  0  -1.251621  0  -0.636325  -0.854322  0  2.083909  0
O  O134  1  0.19759569  0.20577350  0.91733619  1  0  -0.902523  0  1.870278  0  0  -0.86732  0  2.061298  0  0  -0.885284  0  2.030193  0  -1.274226  0  -0.635897  -0.854229  0  2.082876  0
O  O135  1  0.31915062  0.29417752  0.58127048  1  0  -0.902414  0  1.871479  0  0  -0.867364  0  2.062349  0  0  -0.885326  0  2.031301  0  -1.251536  0  -0.636325  -0.854337  0  2.083839  0
