# generated using pymatgen
data_UH4C5N2O7
_symmetry_space_group_name_H-M   'P 1'
_cell_length_a   7.06523680
_cell_length_b   10.37759073
_cell_length_c   11.27098516
_cell_angle_alpha   89.99992837
_cell_angle_beta   89.99992731
_cell_angle_gamma   90.25545776
_symmetry_Int_Tables_number   1
_chemical_formula_structural   UH4C5N2O7
_chemical_formula_sum   'U4 H16 C20 N8 O28'
_cell_volume   826.38195049
_cell_formula_units_Z   4
loop_
 _symmetry_equiv_pos_site_id
 _symmetry_equiv_pos_as_xyz
  1  'x, y, z'
loop_
 _atom_site_type_symbol
 _atom_site_label
 _atom_site_symmetry_multiplicity
 _atom_site_fract_x
 _atom_site_fract_y
 _atom_site_fract_z
 _atom_site_occupancy
 _atom_site_hle17_bader_spin_density
 _atom_site_hle17_ddec_charge
 _atom_site_hle17_ddec_spin_density
 _atom_site_hle17_ddec_sum_bond_order
 _atom_site_hle17_magmom
 _atom_site_hse06_10hf_bader_charge
 _atom_site_hse06_10hf_bader_spin_density
 _atom_site_hse06_10hf_ddec_charge
 _atom_site_hse06_10hf_ddec_spin_density
 _atom_site_hse06_10hf_ddec_sum_bond_order
 _atom_site_hse06_10hf_magmom
 _atom_site_hse06_bader_spin_density
 _atom_site_hse06_ddec_charge
 _atom_site_hse06_ddec_spin_density
 _atom_site_hse06_ddec_sum_bond_order
 _atom_site_hse06_magmom
 _atom_site_pbe_bader_spin_density
 _atom_site_pbe_cm5_charge
 _atom_site_pbe_ddec_charge
 _atom_site_pbe_ddec_spin_density
 _atom_site_pbe_ddec_sum_bond_order
 _atom_site_pbe_magmom
U  U0  1  0.74718801  0.67737643  0.85519696  1  0  2.436213  0  4.088075  0  2.98957  0  2.477382  0  4.748148  0  0  2.58745  0  4.709143  0  0  2.177024  2.40013  0  4.775611  0
U  U1  1  0.25282682  0.82264848  0.35520173  1  0  2.43619  0  4.088476  0  2.989449  0  2.477296  0  4.748621  0  0  2.58739  0  4.709558  0  0  2.176944  2.400093  0  4.775998  0
U  U2  1  0.25281323  0.32262492  0.14480249  1  0  2.436194  0  4.088233  0  2.989536  0  2.477361  0  4.748268  0  0  2.5874  0  4.709314  0  0  2.177055  2.400108  0  4.775751  0
U  U3  1  0.74717301  0.17735287  0.64479860  1  0  2.436177  0  4.088399  0  2.989776  0  2.477228  0  4.748615  0  0  2.587367  0  4.709488  0  0  2.176925  2.400053  0  4.775946  0
H  H4  1  0.97592875  0.77057082  0.07239479  1  0  0.44247  0  0.852037  0  0.665838  0  0.419435  0  0.903863  0  0  0.431319  0  0.886848  0  0  0.308558  0.410941  0  0.915997  0
H  H5  1  0.02407098  0.72942940  0.57239496  1  0  0.442457  0  0.85206  0  0.665832  0  0.419417  0  0.903894  0  0  0.431302  0  0.886878  0  0  0.308539  0.410923  0  0.916031  0
H  H6  1  0.02407249  0.22943053  0.92760555  1  0  0.442391  0  0.852133  0  0.665855  0  0.419344  0  0.903986  0  0  0.431227  0  0.886974  0  0  0.308515  0.410848  0  0.916125  0
H  H7  1  0.97592885  0.27057099  0.42760537  1  0  0.442462  0  0.852049  0  0.66583  0  0.419426  0  0.903877  0  0  0.431311  0  0.886862  0  0  0.308558  0.410931  0  0.916017  0
H  H8  1  0.97473173  0.61735510  0.06957081  1  0  0.444554  0  0.851217  0  0.691816  0  0.418019  0  0.907896  0  0  0.430218  0  0.890331  0  0  0.312133  0.409382  0  0.92029  0
H  H9  1  0.02526801  0.88264512  0.56957347  1  0  0.444516  0  0.851265  0  0.691816  0  0.417995  0  0.907921  0  0  0.430193  0  0.890358  0  0  0.312131  0.409363  0  0.920305  0
H  H10  1  0.02526952  0.38264625  0.93042864  1  0  0.444548  0  0.851216  0  0.691812  0  0.418027  0  0.907871  0  0  0.430226  0  0.890308  0  0  0.312159  0.409395  0  0.920259  0
H  H11  1  0.97473040  0.11735526  0.43042687  1  0  0.444493  0  0.851287  0  0.691792  0  0.417975  0  0.907939  0  0  0.430172  0  0.890378  0  0  0.312128  0.409346  0  0.920321  0
H  H12  1  0.35036347  0.84902211  0.68657467  1  0  0.314665  0  0.898647  0  0.584203  0  0.290902  0  0.96307  0  0  0.301085  0  0.954197  0  0  0.337637  0.283746  0  0.969346  0
H  H13  1  0.64964029  0.65098181  0.18657134  1  0  0.31447  0  0.899013  0  0.584155  0  0.291028  0  0.962928  0  0  0.301213  0  0.954049  0  0  0.337692  0.283877  0  0.969201  0
H  H14  1  0.64963777  0.15097924  0.31342656  1  0  0.314502  0  0.898854  0  0.584181  0  0.2909  0  0.963059  0  0  0.301083  0  0.954186  0  0  0.337643  0.283747  0  0.969327  0
H  H15  1  0.35036095  0.34901954  0.81342722  1  0  0.314532  0  0.898809  0  0.584179  0  0.290959  0  0.962963  0  0  0.301145  0  0.954084  0  0  0.337647  0.283802  0  0.969236  0
H  H16  1  0.16870333  0.01106166  0.01609612  1  0  0.152947  0  0.960257  0  0.151875  0  0.160586  0  1.023067  0  0  0.164451  0  1.020658  0  0  0.127731  0.157922  0  1.024868  0
H  H17  1  0.83129884  0.48894042  0.51609447  1  0  0.152921  0  0.960277  0  0.151937  0  0.1606  0  1.023031  0  0  0.164466  0  1.020622  0  0  0.127723  0.157937  0  1.024835  0
H  H18  1  0.83129932  0.98893873  0.98390510  1  0  0.152979  0  0.960238  0  0.151756  0  0.160622  0  1.023043  0  0  0.164485  0  1.020634  0  0  0.127744  0.157957  0  1.024833  0
H  H19  1  0.16870098  0.51105804  0.48390587  1  0  0.152985  0  0.960274  0  0.151797  0  0.16063  0  1.023074  0  0  0.164494  0  1.020665  0  0  0.12775  0.157967  0  1.024872  0
C  C20  1  0.46040182  0.80247568  0.06938814  1  0  0.700522  0  3.846196  0  1.602308  0  0.667777  0  4.128527  0  0  0.708285  0  4.113763  0  0  0.258785  0.639662  0  4.137851  0
C  C21  1  0.53959651  0.69752647  0.56938528  1  0  0.700541  0  3.84607  0  1.602035  0  0.667808  0  4.128383  0  0  0.708316  0  4.113619  0  0  0.258799  0.639705  0  4.137691  0
C  C22  1  0.53959517  0.19752374  0.93061486  1  0  0.700539  0  3.846139  0  1.601903  0  0.667786  0  4.128432  0  0  0.708296  0  4.113676  0  0  0.258834  0.639691  0  4.13773  0
C  C23  1  0.46040189  0.30247199  0.43061329  1  0  0.700521  0  3.846175  0  1.602359  0  0.667769  0  4.128546  0  0  0.708278  0  4.113784  0  0  0.258789  0.639677  0  4.137841  0
C  C24  1  0.37196762  0.85780868  0.96363384  1  0  0.036081  0  3.784537  0  0.434596  0  0.037038  0  4.048553  0  0  0.035454  0  4.065586  0  0  0.102988  0.038106  0  4.036957  0
C  C25  1  0.62803556  0.64218908  0.46363054  1  0  0.036181  0  3.784507  0  0.434947  0  0.037082  0  4.048622  0  0  0.035493  0  4.065663  0  0  0.103004  0.038147  0  4.037018  0
C  C26  1  0.62803220  0.14219074  0.03636650  1  0  0.036055  0  3.784582  0  0.435279  0  0.037054  0  4.048541  0  0  0.035468  0  4.065573  0  0  0.102983  0.038113  0  4.036952  0
C  C27  1  0.37196425  0.35780745  0.53636891  1  0  0.036214  0  3.784459  0  0.434615  0  0.037107  0  4.048593  0  0  0.035516  0  4.065634  0  0  0.102998  0.038172  0  4.036997  0
C  C28  1  0.23778091  0.95506946  0.94770799  1  0  -0.152555  0  3.61853  0  0.065807  0  -0.192557  0  3.877322  0  0  -0.194429  0  3.892983  0  0  -0.071789  -0.191371  0  3.866893  0
C  C29  1  0.76221665  0.54493120  0.44770292  1  0  -0.152583  0  3.618673  0  0.066071  0  -0.192624  0  3.877467  0  0  -0.194499  0  3.893122  0  0  -0.071805  -0.191437  0  3.867049  0
C  C30  1  0.76222033  0.04493092  0.05229323  1  0  -0.152606  0  3.618564  0  0.066134  0  -0.192611  0  3.877333  0  0  -0.194491  0  3.893012  0  0  -0.071802  -0.191421  0  3.866894  0
C  C31  1  0.23778175  0.45506725  0.55229386  1  0  -0.152659  0  3.61867  0  0.066064  0  -0.192647  0  3.877477  0  0  -0.194529  0  3.893162  0  0  -0.071821  -0.191453  0  3.867049  0
C  C32  1  0.21371050  0.96203334  0.82511090  1  0  0.069364  0  3.668861  0  0.42225  0  0.059962  0  3.922838  0  0  0.0606  0  3.936485  0  0  0.112343  0.059607  0  3.913815  0
C  C33  1  0.78629013  0.53796750  0.32510760  1  0  0.069441  0  3.668853  0  0.421994  0  0.060013  0  3.922765  0  0  0.060659  0  3.936392  0  0  0.112357  0.059654  0  3.913756  0
C  C34  1  0.78629074  0.03796801  0.17488943  1  0  0.069374  0  3.6689  0  0.421916  0  0.059943  0  3.922926  0  0  0.060578  0  3.936574  0  0  0.112347  0.059585  0  3.913902  0
C  C35  1  0.21370827  0.46203192  0.67489185  1  0  0.069386  0  3.668919  0  0.422022  0  0.059957  0  3.922908  0  0  0.060593  0  3.936549  0  0  0.112336  0.059596  0  3.913901  0
C  C36  1  0.07883103  0.03932611  0.75603767  1  0  0.652438  0  3.908638  0  1.647142  0  0.603036  0  4.217848  0  0  0.639897  0  4.206826  0  0  0.228559  0.577919  0  4.224173  0
C  C37  1  0.92117349  0.46067661  0.25603643  1  0  0.652559  0  3.908477  0  1.647345  0  0.603157  0  4.21767  0  0  0.64002  0  4.206634  0  0  0.228583  0.578058  0  4.223981  0
C  C38  1  0.92117163  0.96067524  0.24396266  1  0  0.652497  0  3.908635  0  1.647336  0  0.603117  0  4.217835  0  0  0.639985  0  4.206804  0  0  0.228557  0.578013  0  4.224139  0
C  C39  1  0.07882916  0.53932282  0.74396390  1  0  0.652428  0  3.908665  0  1.647322  0  0.60304  0  4.217869  0  0  0.639905  0  4.20684  0  0  0.22856  0.577933  0  4.224193  0
N  N40  1  0.42814818  0.80910429  0.85808673  1  0  -0.261237  0  3.099328  0  -0.676532  0  -0.26962  0  3.401463  0  0  -0.281716  0  3.422876  0  0  -0.246154  -0.260599  0  3.386322  0
N  N41  1  0.57185239  0.69089651  0.35808519  1  0  -0.261198  0  3.099277  0  -0.676547  0  -0.269682  0  3.401492  0  0  -0.281781  0  3.422906  0  0  -0.246127  -0.260644  0  3.386333  0
N  N42  1  0.57185306  0.19089513  0.14191361  1  0  -0.261163  0  3.099244  0  -0.676815  0  -0.269572  0  3.401414  0  0  -0.281661  0  3.422826  0  0  -0.246128  -0.260557  0  3.386286  0
N  N43  1  0.42814742  0.30910195  0.64191426  1  0  -0.261284  0  3.099311  0  -0.676597  0  -0.269672  0  3.401516  0  0  -0.281776  0  3.422932  0  0  -0.246151  -0.260656  0  3.386376  0
N  N44  1  0.33079660  0.87253320  0.77580022  1  0  -0.099224  0  3.410707  0  -0.807489  0  -0.036621  0  3.64136  0  0  -0.044775  0  3.656273  0  0  -0.223691  -0.031274  0  3.631418  0
N  N45  1  0.66920414  0.62746866  0.27579691  1  0  -0.099281  0  3.411036  0  -0.807519  0  -0.036704  0  3.641271  0  0  -0.044856  0  3.656176  0  0  -0.223765  -0.031363  0  3.631341  0
N  N46  1  0.66920606  0.12746815  0.22420100  1  0  -0.099182  0  3.410805  0  -0.807503  0  -0.03668  0  3.641401  0  0  -0.044836  0  3.656318  0  0  -0.223741  -0.031328  0  3.631451  0
N  N47  1  0.33079568  0.37253076  0.72420076  1  0  -0.099182  0  3.410875  0  -0.80748  0  -0.036648  0  3.641348  0  0  -0.0448  0  3.656261  0  0  -0.223703  -0.031285  0  3.631401  0
O  O48  1  0.64686850  0.52069031  0.88217876  1  0  -0.645373  0  1.553565  0  -0.834563  0  -0.6601  0  1.841767  0  0  -0.680148  0  1.82817  0  0  -0.747597  -0.648457  0  1.851919  0
O  O49  1  0.35312637  0.97931333  0.38217884  1  0  -0.645428  0  1.55448  0  -0.834229  0  -0.660072  0  1.842704  0  0  -0.68012  0  1.829105  0  0  -0.747837  -0.648442  0  1.852841  0
O  O50  1  0.35313415  0.47930815  0.11782069  1  0  -0.645369  0  1.55367  0  -0.834577  0  -0.660078  0  1.841835  0  0  -0.680135  0  1.828277  0  0  -0.747614  -0.648428  0  1.851994  0
O  O51  1  0.64687628  0.02068705  0.61782239  1  0  -0.645425  0  1.554426  0  -0.834514  0  -0.660046  0  1.842642  0  0  -0.680102  0  1.829031  0  0  -0.747822  -0.64842  0  1.852778  0
O  O52  1  0.83110799  0.83958543  0.83107294  1  0  -0.693532  0  1.641786  0  -0.870364  0  -0.703449  0  1.950148  0  0  -0.727486  0  1.940518  0  0  -0.75257  -0.68909  0  1.957382  0
O  O53  1  0.16889829  0.66041444  0.33107531  1  0  -0.693451  0  1.641337  0  -0.87062  0  -0.703354  0  1.94961  0  0  -0.727415  0  1.940018  0  0  -0.752234  -0.689019  0  1.956847  0
O  O54  1  0.16889184  0.16041592  0.16892651  1  0  -0.693501  0  1.641814  0  -0.870334  0  -0.703416  0  1.950173  0  0  -0.72745  0  1.940549  0  0  -0.752548  -0.689052  0  1.957409  0
O  O55  1  0.83109871  0.33958786  0.66892414  1  0  -0.693446  0  1.641273  0  -0.870652  0  -0.703341  0  1.949564  0  0  -0.727405  0  1.939947  0  0  -0.752212  -0.689005  0  1.956788  0
O  O56  1  0.97298264  0.69542465  0.01747772  1  0  -0.853135  0  1.901583  0  -1.301765  0  -0.835072  0  2.101291  0  0  -0.863025  0  2.071405  0  0  -0.616475  -0.814539  0  2.121747  0
O  O57  1  0.02701720  0.80457564  0.51747869  1  0  -0.853096  0  1.901586  0  -1.301729  0  -0.835042  0  2.101293  0  0  -0.862993  0  2.071405  0  0  -0.616445  -0.814519  0  2.12173  0
O  O58  1  0.02701719  0.30457574  0.98252262  1  0  -0.85306  0  1.901628  0  -1.301756  0  -0.835001  0  2.101306  0  0  -0.862948  0  2.071428  0  0  -0.616458  -0.814473  0  2.121775  0
O  O59  1  0.97297980  0.19542570  0.48252165  1  0  -0.853102  0  1.901622  0  -1.301708  0  -0.835036  0  2.101305  0  0  -0.862993  0  2.071415  0  0  -0.616486  -0.814511  0  2.121736  0
O  O60  1  0.59870050  0.72587457  0.05133824  1  0  -0.646918  0  2.081953  0  -1.183692  0  -0.618371  0  2.333924  0  0  -0.651043  0  2.326694  0  0  -0.322391  -0.594912  0  2.338005  0
O  O61  1  0.40130208  0.77412085  0.55133629  1  0  -0.647058  0  2.082114  0  -1.183715  0  -0.618384  0  2.334093  0  0  -0.651053  0  2.326854  0  0  -0.322421  -0.594936  0  2.338173  0
O  O62  1  0.40129222  0.27412002  0.94866564  1  0  -0.646968  0  2.081974  0  -1.183722  0  -0.618351  0  2.333929  0  0  -0.651022  0  2.326701  0  0  -0.322413  -0.5949  0  2.338012  0
O  O63  1  0.59869632  0.22587664  0.44866316  1  0  -0.64701  0  2.082113  0  -1.183725  0  -0.618389  0  2.334121  0  0  -0.651064  0  2.326884  0  0  -0.322417  -0.59495  0  2.338204  0
O  O64  1  0.40097822  0.83285043  0.17169242  1  0  -0.640916  0  2.106814  0  -1.190308  0  -0.631619  0  2.385735  0  0  -0.668041  0  2.378889  0  0  -0.368311  -0.604805  0  2.388929  0
O  O65  1  0.59902981  0.66715352  0.67169044  1  0  -0.640916  0  2.106658  0  -1.190301  0  -0.631645  0  2.385598  0  0  -0.668067  0  2.378756  0  0  -0.3683  -0.604823  0  2.388797  0
O  O66  1  0.59902303  0.16715285  0.82830791  1  0  -0.640893  0  2.106656  0  -1.190225  0  -0.63162  0  2.385636  0  0  -0.668048  0  2.37879  0  0  -0.368318  -0.604806  0  2.388813  0
O  O67  1  0.40097001  0.33284590  0.32830813  1  0  -0.640864  0  2.106689  0  -1.190307  0  -0.631588  0  2.385645  0  0  -0.668001  0  2.378805  0  0  -0.368281  -0.604765  0  2.388836  0
O  O68  1  0.04584613  0.01580193  0.64754408  1  0  -0.608159  0  2.015479  0  -1.184743  0  -0.570819  0  2.253217  0  0  -0.600647  0  2.244976  0  0  -0.292805  -0.549352  0  2.257831  0
O  O69  1  0.95416428  0.48420094  0.14754101  1  0  -0.608201  0  2.015388  0  -1.184783  0  -0.57084  0  2.253093  0  0  -0.600657  0  2.244844  0  0  -0.292746  -0.549363  0  2.257712  0
O  O70  1  0.95415795  0.98420038  0.35245715  1  0  -0.608186  0  2.015439  0  -1.184749  0  -0.57085  0  2.253167  0  0  -0.600683  0  2.244928  0  0  -0.292801  -0.549389  0  2.257779  0
O  O71  1  0.04584121  0.51580042  0.85245755  1  0  -0.608113  0  2.015494  0  -1.184737  0  -0.570751  0  2.253185  0  0  -0.600569  0  2.244938  0  0  -0.292715  -0.549272  0  2.257806  0
O  O72  1  0.98912156  0.13016951  0.80849230  1  0  -0.648085  0  2.033401  0  -1.205901  0  -0.615917  0  2.284186  0  0  -0.647471  0  2.277365  0  0  -0.324025  -0.593066  0  2.287598  0
O  O73  1  0.01088286  0.36983409  0.30849100  1  0  -0.648197  0  2.033451  0  -1.20609  0  -0.61605  0  2.284199  0  0  -0.647586  0  2.277349  0  0  -0.324061  -0.59319  0  2.287615  0
O  O74  1  0.01087969  0.86983183  0.19150893  1  0  -0.648127  0  2.0335  0  -1.206084  0  -0.615961  0  2.284231  0  0  -0.6475  0  2.277381  0  0  -0.324012  -0.593118  0  2.287645  0
O  O75  1  0.98911979  0.63016629  0.69150756  1  0  -0.648124  0  2.033413  0  -1.206075  0  -0.615981  0  2.284182  0  0  -0.647525  0  2.277345  0  0  -0.324065  -0.593118  0  2.287599  0
