# generated using pymatgen
data_CaH10(CO2)4
_symmetry_space_group_name_H-M   'P 1'
_cell_length_a   6.68044443
_cell_length_b   8.13772042
_cell_length_c   8.21687330
_cell_angle_alpha   90.00012055
_cell_angle_beta   89.99987607
_cell_angle_gamma   113.65808018
_symmetry_Int_Tables_number   1
_chemical_formula_structural   CaH10(CO2)4
_chemical_formula_sum   'Ca2 H20 C8 O16'
_cell_volume   409.15656702
_cell_formula_units_Z   2
loop_
 _symmetry_equiv_pos_site_id
 _symmetry_equiv_pos_as_xyz
  1  'x, y, z'
loop_
 _atom_site_type_symbol
 _atom_site_label
 _atom_site_symmetry_multiplicity
 _atom_site_fract_x
 _atom_site_fract_y
 _atom_site_fract_z
 _atom_site_occupancy
 _atom_site_pbe_bader_spin_density
 _atom_site_pbe_cm5_charge
 _atom_site_pbe_ddec_charge
 _atom_site_pbe_ddec_spin_density
 _atom_site_pbe_ddec_sum_bond_order
 _atom_site_pbe_magmom
Ca  Ca0  1  0.10705859  0.82212722  0.31038402  1  0  0.881875  1.399678  0  1.478337  0
Ca  Ca1  1  0.89294255  0.17787307  0.81038552  1  0  0.881876  1.399697  0  1.478331  0
H  H2  1  0.64171334  0.38369396  0.56086525  1  0  0.121715  0.07567  0  1.010005  0
H  H3  1  0.35828099  0.61630324  0.06086289  1  0  0.121715  0.075614  0  1.010064  0
H  H4  1  0.96696802  0.58961533  0.61168743  1  0  0.306903  0.35351  0  0.985839  0
H  H5  1  0.03302921  0.41038196  0.11168765  1  0  0.306925  0.353529  0  0.985803  0
H  H6  1  0.46797538  0.59653708  0.55877236  1  0  0.110626  0.137254  0  1.018951  0
H  H7  1  0.53202110  0.40346147  0.05877779  1  0  0.110628  0.137243  0  1.018976  0
H  H8  1  0.36641785  0.44501970  0.39920187  1  0  0.114049  0.138552  0  1.000584  0
H  H9  1  0.63358787  0.55498744  0.89920581  1  0  0.114033  0.138543  0  1.000543  0
H  H10  1  0.33664535  0.19519042  0.30050594  1  0  0.298462  0.379525  0  0.965785  0
H  H11  1  0.66335282  0.80480984  0.80050548  1  0  0.298442  0.379513  0  0.965808  0
H  H12  1  0.14485577  0.19905102  0.19106059  1  0  0.307687  0.382252  0  0.951217  0
H  H13  1  0.85514281  0.80094640  0.69105978  1  0  0.307686  0.382245  0  0.951228  0
H  H14  1  0.28423634  0.89649975  0.96006538  1  0  0.320042  0.401355  0  0.913291  0
H  H15  1  0.71576216  0.10350209  0.46006865  1  0  0.32004  0.401423  0  0.913216  0
H  H16  1  0.03301158  0.85561359  0.94029039  1  0  0.309016  0.404308  0  0.918198  0
H  H17  1  0.96698715  0.14438555  0.44028966  1  0  0.309011  0.404324  0  0.91815  0
H  H18  1  0.33183903  0.88269274  0.62755076  1  0  0.297086  0.379508  0  0.959495  0
H  H19  1  0.66816117  0.11730459  0.12754684  1  0  0.297095  0.37954  0  0.959462  0
H  H20  1  0.27962826  0.05651276  0.62521330  1  0  0.295781  0.38196  0  0.96129  0
H  H21  1  0.72037839  0.94348861  0.12520977  1  0  0.29579  0.381958  0  0.961298  0
C  C22  1  0.75429316  0.41165322  0.31780435  1  0  0.222692  0.557376  0  4.178057  0
C  C23  1  0.24570452  0.58834305  0.81780417  1  0  0.222644  0.557265  0  4.178093  0
C  C24  1  0.69828243  0.49298437  0.47098562  1  0  -0.003687  0.096014  0  3.889905  0
C  C25  1  0.30171345  0.50701212  0.97098639  1  0  -0.003646  0.096246  0  3.889849  0
C  C26  1  0.51496506  0.55609794  0.44234478  1  0  -0.164207  -0.371272  0  3.894015  0
C  C27  1  0.48503992  0.44390792  0.94234875  1  0  -0.164257  -0.371426  0  3.894137  0
C  C28  1  0.56273223  0.71258814  0.32608900  1  0  0.232188  0.681169  0  4.127798  0
C  C29  1  0.43727362  0.28741889  0.82609517  1  0  0.232276  0.681288  0  4.127552  0
O  O30  1  0.93789231  0.49621767  0.24980883  1  0  -0.32755  -0.575937  0  2.28804  0
O  O31  1  0.06210530  0.50378117  0.74980879  1  0  -0.327525  -0.575904  0  2.288153  0
O  O32  1  0.61064860  0.26158451  0.27000634  1  0  -0.299794  -0.568066  0  2.248431  0
O  O33  1  0.38935047  0.73841437  0.77000986  1  0  -0.299773  -0.56804  0  2.248384  0
O  O34  1  0.88582939  0.63980383  0.53468381  1  0  -0.420128  -0.560412  0  2.393297  0
O  O35  1  0.11416264  0.36019467  0.03468135  1  0  -0.420162  -0.560493  0  2.393304  0
O  O36  1  0.74577940  0.78136024  0.25140479  1  0  -0.366015  -0.624334  0  2.207366  0
O  O37  1  0.25422721  0.21863865  0.75140504  1  0  -0.366045  -0.62441  0  2.207228  0
O  O38  1  0.41274207  0.76764695  0.30657082  1  0  -0.396727  -0.638043  0  2.245973  0
O  O39  1  0.58726638  0.23235604  0.80658269  1  0  -0.396739  -0.63805  0  2.245867  0
O  O40  1  0.17301969  0.14401539  0.29107909  1  0  -0.594785  -0.794019  0  2.067445  0
O  O41  1  0.82697934  0.85598352  0.79107966  1  0  -0.594769  -0.793998  0  2.067387  0
O  O42  1  0.14857285  0.86811107  0.02057672  1  0  -0.610266  -0.808635  0  1.983899  0
O  O43  1  0.85142436  0.13188876  0.52057697  1  0  -0.610257  -0.808737  0  1.983818  0
O  O44  1  0.29075563  0.96095505  0.55442452  1  0  -0.634965  -0.827373  0  2.042002  0
O  O45  1  0.70924386  0.03904351  0.05442158  1  0  -0.634984  -0.827412  0  2.042001  0
