# generated using pymatgen
data_GdH13C23N4O7
_symmetry_space_group_name_H-M   'P 1'
_cell_length_a   13.09823733
_cell_length_b   13.09824044
_cell_length_c   15.12059298
_cell_angle_alpha   93.28839188
_cell_angle_beta   93.28856413
_cell_angle_gamma   117.64328189
_symmetry_Int_Tables_number   1
_chemical_formula_structural   GdH13C23N4O7
_chemical_formula_sum   'Gd4 H52 C92 N16 O28'
_cell_volume   2283.88363610
_cell_formula_units_Z   4
loop_
 _symmetry_equiv_pos_site_id
 _symmetry_equiv_pos_as_xyz
  1  'x, y, z'
loop_
 _atom_site_type_symbol
 _atom_site_label
 _atom_site_symmetry_multiplicity
 _atom_site_fract_x
 _atom_site_fract_y
 _atom_site_fract_z
 _atom_site_occupancy
 _atom_site_pbe_bader_charge
 _atom_site_pbe_bader_spin_density
 _atom_site_pbe_cm5_charge
 _atom_site_pbe_ddec_charge
 _atom_site_pbe_ddec_spin_density
 _atom_site_pbe_ddec_sum_bond_order
 _atom_site_pbe_magmom
Gd  Gd0  1  0.61526500  0.89966813  0.42047392  1  2.131928  0  1.502298  1.796121  0  2.447621  0
Gd  Gd1  1  0.10033231  0.38473838  0.07952497  1  2.132067  0  1.502313  1.796046  0  2.447638  0
Gd  Gd2  1  0.38473625  0.10033132  0.57952558  1  2.132007  0  1.502384  1.796115  0  2.44741  0
Gd  Gd3  1  0.89966550  0.61526253  0.92047310  1  2.131992  0  1.502328  1.796086  0  2.447633  0
H  H4  1  0.25983394  0.82836488  0.62350140  1  0.110805  0  0.128691  0.102143  0  0.985603  0
H  H5  1  0.17163219  0.74016560  0.87649756  1  0.110841  0  0.128687  0.102113  0  0.985652  0
H  H6  1  0.74016730  0.17163304  0.37649802  1  0.110831  0  0.128696  0.1021  0  0.985673  0
H  H7  1  0.82836648  0.25983418  0.12349983  1  0.110797  0  0.128703  0.102139  0  0.985668  0
H  H8  1  0.06854255  0.65727556  0.64216082  1  0.095869  0  0.110668  0.115885  0  0.990649  0
H  H9  1  0.34272146  0.93145581  0.85783805  1  0.095894  0  0.110652  0.115884  0  0.990693  0
H  H10  1  0.93145697  0.34272385  0.35783859  1  0.09587  0  0.11066  0.115878  0  0.990678  0
H  H11  1  0.65727720  0.06854320  0.14215997  1  0.095907  0  0.110664  0.115885  0  0.99067  0
H  H12  1  0.89521247  0.69046064  0.65424847  1  0.095106  0  0.112349  0.111318  0  0.998059  0
H  H13  1  0.30953856  0.10478748  0.84575030  1  0.09511  0  0.112306  0.111284  0  0.99813  0
H  H14  1  0.10478793  0.30954071  0.34575042  1  0.095083  0  0.11231  0.111291  0  0.998066  0
H  H15  1  0.69046270  0.89521274  0.15424858  1  0.095133  0  0.112324  0.111308  0  0.998133  0
H  H16  1  0.91860500  0.88832772  0.64671354  1  0.146314  0  0.103296  0.110798  0  1.06972  0
H  H17  1  0.11167186  0.08139557  0.85328637  1  0.146326  0  0.103277  0.110783  0  1.069728  0
H  H18  1  0.08139885  0.11167523  0.35328694  1  0.146184  0  0.103294  0.110778  0  1.069716  0
H  H19  1  0.88832940  0.91860541  0.14671255  1  0.146296  0  0.103284  0.110789  0  1.06972  0
H  H20  1  0.94919791  0.05101045  0.64226164  1  0.107774  0  0.110974  0.123995  0  1.032477  0
H  H21  1  0.94899010  0.05080449  0.85774482  1  0.107646  0  0.11092  0.123907  0  1.032425  0
H  H22  1  0.05080762  0.94899020  0.35774476  1  0.108079  0  0.110954  0.123996  0  1.032466  0
H  H23  1  0.05101025  0.94919757  0.14226138  1  0.107691  0  0.110946  0.12392  0  1.032471  0
H  H24  1  0.20170099  0.40692221  0.64002056  1  0.072921  0  0.10943  0.114261  0  1.012466  0
H  H25  1  0.59307705  0.79830053  0.85997710  1  0.072873  0  0.109425  0.114253  0  1.012557  0
H  H26  1  0.79830199  0.59307805  0.35997907  1  0.072886  0  0.109441  0.114286  0  1.012531  0
H  H27  1  0.40692249  0.20170042  0.14002040  1  0.072894  0  0.109429  0.114273  0  1.012498  0
H  H28  1  0.37091833  0.51703236  0.66962873  1  0.069864  0  0.110173  0.114501  0  0.997688  0
H  H29  1  0.48296659  0.62908028  0.83036950  1  0.069826  0  0.110174  0.114494  0  0.997685  0
H  H30  1  0.62908120  0.48296858  0.33037142  1  0.069825  0  0.110204  0.114558  0  0.99767  0
H  H31  1  0.51703293  0.37091989  0.16963060  1  0.069856  0  0.110181  0.114506  0  0.997653  0
H  H32  1  0.57482977  0.65353963  0.64800907  1  0.166072  0  0.107153  0.10489  0  1.035059  0
H  H33  1  0.34646069  0.42517168  0.85199013  1  0.166038  0  0.107135  0.104868  0  1.035119  0
H  H34  1  0.42517150  0.34646365  0.35199063  1  0.166082  0  0.107135  0.104892  0  1.035133  0
H  H35  1  0.65353971  0.57483043  0.14800946  1  0.166056  0  0.107156  0.10492  0  1.035069  0
H  H36  1  0.70045223  0.57219096  0.58766636  1  0.101447  0  0.11011  0.112343  0  0.993882  0
H  H37  1  0.42780791  0.29954879  0.91233367  1  0.101477  0  0.110099  0.112347  0  0.993911  0
H  H38  1  0.29954816  0.42781038  0.41233386  1  0.101443  0  0.110125  0.112357  0  0.993863  0
H  H39  1  0.57219162  0.70045368  0.08766656  1  0.10145  0  0.110102  0.112351  0  0.993895  0
H  H40  1  0.61353078  0.35673676  0.55384469  1  0.13795  0  0.123252  0.090966  0  1.023356  0
H  H41  1  0.64326200  0.38646911  0.94615411  1  0.138003  0  0.123229  0.090975  0  1.023346  0
H  H42  1  0.38647221  0.64326579  0.44615572  1  0.137992  0  0.123254  0.090983  0  1.023323  0
H  H43  1  0.35673753  0.61353260  0.05384542  1  0.137968  0  0.123242  0.090965  0  1.023338  0
H  H44  1  0.84834947  0.12064260  0.56364499  1  0.105204  0  0.109093  0.110082  0  1.053571  0
H  H45  1  0.87935317  0.15165199  0.93635567  1  0.105224  0  0.109129  0.110112  0  1.053569  0
H  H46  1  0.15165346  0.87935151  0.43635763  1  0.105201  0  0.109123  0.110095  0  1.053621  0
H  H47  1  0.12064290  0.84835040  0.06364437  1  0.105157  0  0.109081  0.110056  0  1.053626  0
H  H48  1  0.72344300  0.35085040  0.66464380  1  0.120994  0  0.111361  0.114595  0  1.028206  0
H  H49  1  0.64914741  0.27655608  0.83535440  1  0.120979  0  0.111326  0.114536  0  1.02829  0
H  H50  1  0.27655564  0.64914477  0.33535534  1  0.120912  0  0.11133  0.114526  0  1.028283  0
H  H51  1  0.35084692  0.72344091  0.16464394  1  0.12101  0  0.111334  0.114568  0  1.028221  0
H  H52  1  0.07202124  0.42325061  0.74324667  1  0.120179  0  0.107664  0.117752  0  1.008722  0
H  H53  1  0.57674631  0.92797537  0.75675307  1  0.120152  0  0.107699  0.117778  0  1.008641  0
H  H54  1  0.92797742  0.57674917  0.25675271  1  0.120173  0  0.107663  0.117743  0  1.008714  0
H  H55  1  0.42325147  0.07202247  0.24324682  1  0.12016  0  0.107659  0.117729  0  1.008736  0
C  C56  1  0.18155126  0.83725576  0.62816992  1  0.479857  0  0.057099  0.107841  0  3.967777  0
C  C57  1  0.16274018  0.81844691  0.87183012  1  0.47981  0  0.057121  0.107986  0  3.967489  0
C  C58  1  0.81844824  0.16274211  0.37183073  1  0.479817  0  0.057098  0.10802  0  3.967567  0
C  C59  1  0.83725849  0.18155363  0.12816798  1  0.479889  0  0.057123  0.107922  0  3.96767  0
C  C60  1  0.07519020  0.74287741  0.63801732  1  -0.030373  0  -0.077485  -0.119278  0  3.950761  0
C  C61  1  0.25712374  0.92480904  0.86198303  1  -0.030249  0  -0.07746  -0.119306  0  3.950453  0
C  C62  1  0.92481019  0.25712240  0.36198215  1  -0.030346  0  -0.077521  -0.119386  0  3.950582  0
C  C63  1  0.74287752  0.07519042  0.13801515  1  -0.030223  0  -0.077516  -0.119334  0  3.95055  0
C  C64  1  0.97928955  0.76170653  0.64403775  1  -0.042904  0  -0.061132  -0.010748  0  3.932726  0
C  C65  1  0.23829027  0.02070931  0.85596151  1  -0.04297  0  -0.061069  -0.010675  0  3.932665  0
C  C66  1  0.02071257  0.23829332  0.35596181  1  -0.042927  0  -0.061044  -0.010636  0  3.932595  0
C  C67  1  0.76171013  0.97929128  0.14403668  1  -0.043001  0  -0.061061  -0.010694  0  3.932792  0
C  C68  1  0.99319250  0.87346187  0.64089849  1  -0.064355  0  -0.080456  -0.153427  0  3.909461  0
C  C69  1  0.12653661  0.00680807  0.85910214  1  -0.0643  0  -0.080481  -0.15346  0  3.90951  0
C  C70  1  0.00680788  0.12653870  0.35910235  1  -0.063592  0  -0.080475  -0.153398  0  3.909608  0
C  C71  1  0.87346292  0.99319286  0.14089800  1  -0.064378  0  -0.080449  -0.153393  0  3.909501  0
C  C72  1  0.10354472  0.96464692  0.63270932  1  0.504971  0  0.12735  0.184956  0  3.960577  0
C  C73  1  0.03535136  0.89645563  0.86729201  1  0.505006  0  0.127454  0.185052  0  3.960421  0
C  C74  1  0.89645997  0.03535412  0.36729375  1  0.504417  0  0.127437  0.184994  0  3.960518  0
C  C75  1  0.96464902  0.10354647  0.13270890  1  0.504948  0  0.127349  0.18492  0  3.960647  0
C  C76  1  0.12709615  0.08715020  0.63493562  1  0.500817  0  0.13078  0.207175  0  3.968404  0
C  C77  1  0.91284793  0.87290494  0.86506558  1  0.500811  0  0.130766  0.207146  0  3.968462  0
C  C78  1  0.87290768  0.91284892  0.36506598  1  0.500683  0  0.130802  0.20723  0  3.968523  0
C  C79  1  0.08715158  0.12709675  0.13493659  1  0.500807  0  0.130728  0.207072  0  3.968479  0
C  C80  1  0.03829256  0.11749787  0.64049361  1  -0.002565  0  -0.069621  -0.18339  0  3.835902  0
C  C81  1  0.88249860  0.96170739  0.85950927  1  -0.002479  0  -0.069599  -0.183338  0  3.835972  0
C  C82  1  0.96171039  0.88250160  0.35950928  1  -0.00288  0  -0.069642  -0.183472  0  3.836047  0
C  C83  1  0.11750004  0.03829389  0.14049349  1  -0.002561  0  -0.06957  -0.183276  0  3.835884  0
C  C84  1  0.06412308  0.23419777  0.64425601  1  0.052432  0  0.016968  0.136849  0  3.991875  0
C  C85  1  0.76580336  0.93588155  0.85574592  1  0.052445  0  0.017029  0.136902  0  3.991835  0
C  C86  1  0.93588248  0.76580368  0.35574646  1  0.052387  0  0.016978  0.136862  0  3.991706  0
C  C87  1  0.23419702  0.06412054  0.14425565  1  0.052437  0  0.016994  0.136903  0  3.991817  0
C  C88  1  0.17931912  0.31589758  0.64017590  1  -0.044261  0  -0.075355  -0.197478  0  3.91019  0
C  C89  1  0.68409874  0.82068013  0.85982356  1  -0.044257  0  -0.075419  -0.197583  0  3.910211  0
C  C90  1  0.82068212  0.68410033  0.35982417  1  -0.044226  0  -0.075379  -0.197555  0  3.910183  0
C  C91  1  0.31589992  0.17932041  0.14017586  1  -0.044228  0  -0.075408  -0.197578  0  3.910184  0
C  C92  1  0.26397703  0.28010307  0.63369106  1  0.477089  0  0.129156  0.200983  0  4.000671  0
C  C93  1  0.71989695  0.73602346  0.86630683  1  0.477124  0  0.12918  0.200998  0  4.000681  0
C  C94  1  0.73602510  0.71989908  0.36630797  1  0.477119  0  0.129182  0.200967  0  4.000681  0
C  C95  1  0.28010345  0.26397866  0.13369210  1  0.477072  0  0.129177  0.200927  0  4.000694  0
C  C96  1  0.38531953  0.36492951  0.62398680  1  0.591354  0  0.127456  0.179642  0  3.989657  0
C  C97  1  0.63506801  0.61468046  0.87601164  1  0.591339  0  0.127458  0.179614  0  3.989769  0
C  C98  1  0.61468257  0.63506957  0.37601338  1  0.591564  0  0.127428  0.179528  0  3.989738  0
C  C99  1  0.36493152  0.38532048  0.12398719  1  0.591258  0  0.127437  0.17968  0  3.989613  0
C  C100  1  0.42679596  0.48412003  0.64352320  1  -0.092206  0  -0.079852  -0.162309  0  3.955742  0
C  C101  1  0.51587929  0.57320449  0.85647592  1  -0.092432  0  -0.079858  -0.16228  0  3.955783  0
C  C102  1  0.57320963  0.51588527  0.35647749  1  -0.092361  0  -0.079844  -0.162304  0  3.955746  0
C  C103  1  0.48412024  0.42679722  0.14352360  1  -0.092434  0  -0.079835  -0.16227  0  3.955773  0
C  C104  1  0.54094755  0.56075628  0.63151851  1  -0.08283  0  -0.065619  -0.01626  0  3.955819  0
C  C105  1  0.43924062  0.45905113  0.86847977  1  -0.082307  0  -0.065614  -0.016255  0  3.955774  0
C  C106  1  0.45905024  0.43924156  0.36848072  1  -0.082585  0  -0.065633  -0.016329  0  3.95575  0
C  C107  1  0.56075804  0.54094865  0.13151961  1  -0.082631  0  -0.065663  -0.016364  0  3.95585  0
C  C108  1  0.61052522  0.51603934  0.59839480  1  0.028722  0  -0.075118  -0.109095  0  3.939141  0
C  C109  1  0.48396029  0.38947467  0.90160450  1  0.028105  0  -0.075163  -0.109169  0  3.939196  0
C  C110  1  0.38947778  0.48396704  0.40160582  1  0.028505  0  -0.075175  -0.109123  0  3.939295  0
C  C111  1  0.51603837  0.61052664  0.09839562  1  0.028495  0  -0.075118  -0.109118  0  3.939154  0
C  C112  1  0.56320966  0.39653875  0.57988253  1  0.403856  0  0.060807  0.117061  0  3.945426  0
C  C113  1  0.60345860  0.43678931  0.92011471  1  0.403751  0  0.060849  0.117067  0  3.945432  0
C  C114  1  0.43679159  0.60346147  0.42011700  1  0.404009  0  0.060812  0.117027  0  3.945556  0
C  C115  1  0.39654007  0.56321124  0.07988405  1  0.403809  0  0.060825  0.117103  0  3.94547  0
C  C116  1  0.97268009  0.26928611  0.65054581  1  -0.022358  0  -0.009612  0.051117  0  4.001336  0
C  C117  1  0.73070856  0.02731816  0.84945260  1  -0.022449  0  -0.009591  0.051334  0  4.001327  0
C  C118  1  0.02732116  0.73071029  0.34945154  1  -0.022341  0  -0.009604  0.051318  0  4.001194  0
C  C119  1  0.26928923  0.97268197  0.15054741  1  -0.022432  0  -0.009564  0.051299  0  4.001298  0
C  C120  1  0.86434319  0.19929044  0.60369546  1  -0.025761  0  -0.073506  -0.120198  0  3.917946  0
C  C121  1  0.80070792  0.13565515  0.89630575  1  -0.025649  0  -0.07358  -0.120437  0  3.918098  0
C  C122  1  0.13565803  0.80070822  0.39630730  1  -0.025673  0  -0.073584  -0.120512  0  3.918028  0
C  C123  1  0.19928987  0.86434574  0.10369563  1  -0.025725  0  -0.073507  -0.120309  0  3.918076  0
C  C124  1  0.77482593  0.22847675  0.60708905  1  -0.011095  0  -0.017871  -0.051582  0  3.98599  0
C  C125  1  0.77151990  0.22517514  0.89291008  1  -0.011121  0  -0.017919  -0.051499  0  3.985892  0
C  C126  1  0.22517702  0.77151890  0.39291232  1  -0.011193  0  -0.017885  -0.051341  0  3.985803  0
C  C127  1  0.22847443  0.77482491  0.10708975  1  -0.01079  0  -0.017888  -0.051567  0  3.985938  0
C  C128  1  0.79343906  0.32891361  0.65848052  1  -0.015203  0  -0.068795  -0.091889  0  3.909533  0
C  C129  1  0.67108516  0.20656049  0.84152118  1  -0.015051  0  -0.068722  -0.091822  0  3.909544  0
C  C130  1  0.20656043  0.67108501  0.34152215  1  -0.015047  0  -0.068766  -0.091904  0  3.909513  0
C  C131  1  0.32891001  0.79343766  0.15848058  1  -0.01519  0  -0.068794  -0.091924  0  3.90957  0
C  C132  1  0.90101934  0.39976492  0.70602454  1  -0.041587  0  -0.016843  -0.027379  0  3.967544  0
C  C133  1  0.60023367  0.09898008  0.79397653  1  -0.041224  0  -0.016876  -0.02734  0  3.967431  0
C  C134  1  0.09898017  0.60023371  0.29397681  1  -0.04123  0  -0.016867  -0.027355  0  3.967451  0
C  C135  1  0.39976324  0.90101735  0.20602396  1  -0.041714  0  -0.016845  -0.027321  0  3.96744  0
C  C136  1  0.99068681  0.36989363  0.70223189  1  -0.068171  0  -0.072015  -0.12204  0  3.882837  0
C  C137  1  0.63010558  0.00931304  0.79776806  1  -0.068091  0  -0.072026  -0.122147  0  3.882796  0
C  C138  1  0.00931444  0.63010659  0.29776765  1  -0.068103  0  -0.071987  -0.122071  0  3.882839  0
C  C139  1  0.36989479  0.99068676  0.20223339  1  -0.068077  0  -0.072029  -0.122094  0  3.882805  0
C  C140  1  0.65932343  0.14909280  0.55728024  1  1.608554  0  0.244905  0.660218  0  4.13659  0
C  C141  1  0.85091594  0.34066950  0.94272434  1  1.608161  0  0.245  0.660246  0  4.136588  0
C  C142  1  0.34066745  0.85091862  0.44272596  1  1.607805  0  0.245016  0.660197  0  4.136661  0
C  C143  1  0.14908270  0.65932873  0.05727694  1  1.608139  0  0.245046  0.660459  0  4.136298  0
C  C144  1  0.91618471  0.50200399  0.76639370  1  1.529087  0  0.179253  0.551017  0  4.247415  0
C  C145  1  0.49799088  0.08381170  0.73360425  1  1.529356  0  0.179288  0.551017  0  4.247375  0
C  C146  1  0.08381222  0.49799269  0.23360410  1  1.529312  0  0.179258  0.551021  0  4.247303  0
C  C147  1  0.50200345  0.91618377  0.26639335  1  1.529349  0  0.179324  0.551113  0  4.247214  0
N  N148  1  0.19572865  0.94531104  0.62517711  1  -1.238446  0  -0.386018  -0.368745  0  3.50503  0
N  N149  1  0.05468622  0.80427090  0.87482361  1  -1.238577  0  -0.386123  -0.368929  0  3.504858  0
N  N150  1  0.80427172  0.05468646  0.37482422  1  -1.238478  0  -0.386149  -0.368991  0  3.504894  0
N  N151  1  0.94531330  0.19573004  0.12517653  1  -1.238538  0  -0.386046  -0.368787  0  3.505051  0
N  N152  1  0.23864443  0.16761812  0.63193629  1  -1.191098  0  -0.361521  -0.388139  0  3.434444  0
N  N153  1  0.83237837  0.76135474  0.86806278  1  -1.191107  0  -0.361499  -0.388066  0  3.434456  0
N  N154  1  0.76135855  0.83238137  0.36806330  1  -1.191084  0  -0.361478  -0.388013  0  3.434482  0
N  N155  1  0.16762028  0.23864579  0.13193730  1  -1.191127  0  -0.361495  -0.388033  0  3.434397  0
N  N156  1  0.45402302  0.32190819  0.59346562  1  -1.225416  0  -0.365261  -0.347061  0  3.451804  0
N  N157  1  0.67809162  0.54597765  0.90653378  1  -1.225238  0  -0.365252  -0.346987  0  3.451811  0
N  N158  1  0.54598256  0.67809633  0.40653569  1  -1.225632  0  -0.365278  -0.346941  0  3.451665  0
N  N159  1  0.32190878  0.45402447  0.09346515  1  -1.225235  0  -0.365274  -0.347091  0  3.451799  0
N  N160  1  0.69611520  0.86262206  0.59599921  1  0.836401  0  0.083556  0.719158  0  4.415174  0
N  N161  1  0.13737823  0.30388623  0.90400318  1  0.836341  0  0.083581  0.719239  0  4.415029  0
N  N162  1  0.30388774  0.13737587  0.40400559  1  0.836405  0  0.083565  0.719156  0  4.415038  0
N  N163  1  0.86262129  0.69611318  0.09599622  1  0.836375  0  0.083612  0.719158  0  4.415111  0
O  O164  1  0.64836985  0.05929376  0.51285192  1  -1.196623  0  -0.398225  -0.64257  0  2.387627  0
O  O165  1  0.94069737  0.35162100  0.98714049  1  -1.196745  0  -0.398167  -0.642384  0  2.388326  0
O  O166  1  0.35162535  0.94069219  0.48713994  1  -1.196678  0  -0.398148  -0.642318  0  2.388609  0
O  O167  1  0.05929699  0.64837908  0.01285472  1  -1.19676  0  -0.398221  -0.642579  0  2.388038  0
O  O168  1  0.57959879  0.17796380  0.56324144  1  -1.196693  0  -0.401249  -0.633163  0  2.355775  0
O  O169  1  0.82203722  0.42040666  0.93676259  1  -1.196471  0  -0.401378  -0.63339  0  2.355163  0
O  O170  1  0.42041022  0.82203468  0.43675974  1  -1.196035  0  -0.401432  -0.633453  0  2.35489  0
O  O171  1  0.17795798  0.57959532  0.06323805  1  -1.196465  0  -0.401409  -0.633423  0  2.355318  0
O  O172  1  0.83518716  0.53108678  0.76562348  1  -1.173998  0  -0.384415  -0.627089  0  2.178496  0
O  O173  1  0.46890970  0.16481107  0.73437650  1  -1.174196  0  -0.384424  -0.627111  0  2.178563  0
O  O174  1  0.16481148  0.46890993  0.23437573  1  -1.174182  0  -0.384432  -0.627116  0  2.178527  0
O  O175  1  0.53108721  0.83518636  0.26562399  1  -1.174057  0  -0.384448  -0.627127  0  2.178445  0
O  O176  1  0.00667090  0.55395421  0.82129840  1  -1.170582  0  -0.373648  -0.601337  0  2.19378  0
O  O177  1  0.44604490  0.99332766  0.67870131  1  -1.170669  0  -0.373666  -0.60135  0  2.193779  0
O  O178  1  0.99332777  0.44604709  0.17870106  1  -1.170643  0  -0.373636  -0.601339  0  2.193709  0
O  O179  1  0.55395548  0.00666986  0.32129738  1  -1.170615  0  -0.373687  -0.601428  0  2.193683  0
O  O180  1  0.58904749  0.82899877  0.57438245  1  -0.547764  0  -0.213458  -0.477339  0  2.004985  0
O  O181  1  0.17100390  0.41095200  0.92561722  1  -0.547749  0  -0.213408  -0.477322  0  2.005013  0
O  O182  1  0.41095030  0.17100213  0.42561761  1  -0.54773  0  -0.213359  -0.477233  0  2.005108  0
O  O183  1  0.82899649  0.58904781  0.07438225  1  -0.547768  0  -0.213413  -0.477263  0  2.005066  0
O  O184  1  0.76737146  0.91649993  0.53930254  1  -0.591084  0  -0.231344  -0.511504  0  2.069269  0
O  O185  1  0.08349994  0.23262937  0.96069651  1  -0.59105  0  -0.231277  -0.511419  0  2.069264  0
O  O186  1  0.23262892  0.08349759  0.46069681  1  -0.591091  0  -0.231282  -0.511372  0  2.069316  0
O  O187  1  0.91649786  0.76737000  0.03930280  1  -0.591048  0  -0.231331  -0.511418  0  2.069233  0
O  O188  1  0.73105887  0.84347669  0.66831086  1  -0.520268  0  -0.1554  -0.393584  0  1.979995  0
O  O189  1  0.15652236  0.26893993  0.83168676  1  -0.520232  0  -0.155519  -0.393725  0  1.979795  0
O  O190  1  0.26893894  0.15652269  0.33168581  1  -0.520246  0  -0.155556  -0.393773  0  1.979573  0
O  O191  1  0.84347716  0.73105872  0.16831260  1  -0.520251  0  -0.155502  -0.39369  0  1.979807  0
