# generated using pymatgen
data_Mn3Zn6H94C128(N4O21)2
_symmetry_space_group_name_H-M   'P 1'
_cell_length_a   10.37360866
_cell_length_b   14.90507816
_cell_length_c   21.06097652
_cell_angle_alpha   99.91025553
_cell_angle_beta   93.56797578
_cell_angle_gamma   106.88678021
_symmetry_Int_Tables_number   1
_chemical_formula_structural   Mn3Zn6H94C128(N4O21)2
_chemical_formula_sum   'Mn3 Zn6 H94 C128 N8 O42'
_cell_volume   3047.69219220
_cell_formula_units_Z   1
loop_
 _symmetry_equiv_pos_site_id
 _symmetry_equiv_pos_as_xyz
  1  'x, y, z'
loop_
 _atom_site_type_symbol
 _atom_site_label
 _atom_site_symmetry_multiplicity
 _atom_site_fract_x
 _atom_site_fract_y
 _atom_site_fract_z
 _atom_site_occupancy
 _atom_site_pbe_bader_charge
 _atom_site_pbe_bader_spin_density
 _atom_site_pbe_cm5_charge
 _atom_site_pbe_ddec_charge
 _atom_site_pbe_ddec_spin_density
 _atom_site_pbe_ddec_sum_bond_order
 _atom_site_pbe_magmom
Mn  Mn0  1  0.76375263  0.01412064  0.80257325  1  1.595753  4.523519  0.617586  1.12761  4.63781  2.323649  4.468
Mn  Mn1  1  0.23625240  0.98588341  0.19742914  1  1.595635  4.523551  0.617559  1.127549  4.637814  2.323768  4.468
Mn  Mn2  1  0.00000700  0.50000940  0.49999669  1  1.586746  4.56201  0.609309  1.120444  4.679101  2.293708  4.503
Zn  Zn3  1  0.59004461  0.01687926  0.26156019  1  1.284729  0.001287  0.704195  0.847467  0.001685  2.414896  0.001
Zn  Zn4  1  0.40995532  0.98312193  0.73844217  1  1.284792  0.001286  0.704259  0.84754  0.001685  2.414834  0.001
Zn  Zn5  1  0.82775740  0.67873947  0.49884277  1  1.290184  0.000642  0.697427  0.843417  0.00018  2.395916  0.001
Zn  Zn6  1  0.17223966  0.32125958  0.50115734  1  1.290204  0.000641  0.697414  0.843436  0.00018  2.395888  0.001
Zn  Zn7  1  0.01748488  0.05483740  0.94050700  1  1.350064  0.000432  0.69159  0.977647  0.000205  2.157306  0.001
Zn  Zn8  1  0.98251474  0.94516308  0.05949194  1  1.350074  0.000432  0.691648  0.977747  0.000205  2.15718  0.001
H  H9  1  0.10054474  0.22124639  0.02434720  1  0.627098  4e-06  0.269535  0.318888  6e-06  1.055908  0.0
H  H10  1  0.89945553  0.77875337  0.97565309  1  0.627084  4e-06  0.269518  0.318867  6e-06  1.055944  0.0
H  H11  1  0.98527236  0.14431639  0.05062286  1  0.626209  4.9e-05  0.289844  0.380369  6.2e-05  0.951596  0.0
H  H12  1  0.01472888  0.85568338  0.94937699  1  0.626184  4.9e-05  0.289833  0.380339  6.2e-05  0.951638  0.0
H  H13  1  0.13015559  0.84517692  0.37671371  1  0.092138  0.000217  0.105141  0.104228  6e-06  1.038842  0.0
H  H14  1  0.86984341  0.15482212  0.62328694  1  0.092034  0.000217  0.105119  0.104175  6e-06  1.038821  0.0
H  H15  1  0.90340487  0.80609570  0.69468631  1  0.126608  0.000156  0.107425  0.111678  -0.000172  1.023903  0.0
H  H16  1  0.09659540  0.19390406  0.30531304  1  0.126624  0.000155  0.107431  0.111693  -0.000172  1.023923  0.0
H  H17  1  0.70052206  0.96554073  0.07635240  1  0.145566  0.000159  0.108988  0.118977  0.000101  1.01986  0.0
H  H18  1  0.29947439  0.03445689  0.92364610  1  0.14546  0.000159  0.108963  0.118969  0.000101  1.01985  0.0
H  H19  1  0.51201694  0.84644659  0.87997230  1  0.094201  0.000104  0.108002  0.11533  -0.000364  1.006906  0.0
H  H20  1  0.48798040  0.15355532  0.12002912  1  0.094121  0.000104  0.108004  0.115319  -0.000364  1.006843  0.0
H  H21  1  0.66410140  0.35624529  0.85177985  1  0.604976  1e-06  0.285148  0.292017  -5e-06  1.05595  0.0
H  H22  1  0.33589663  0.64375376  0.14821934  1  0.605116  1e-06  0.285157  0.292011  -5e-06  1.056023  0.0
H  H23  1  0.12383415  0.60273387  0.69607333  1  0.099507  0.000135  0.107672  0.110547  -0.000181  0.999488  0.0
H  H24  1  0.87616485  0.39726517  0.30392636  1  0.099527  0.000135  0.107681  0.11058  -0.000181  0.999471  0.0
H  H25  1  0.29012464  0.78053046  0.92208148  1  0.05027  -2e-06  0.097481  0.092234  -2.6e-05  1.032638  0.0
H  H26  1  0.70987370  0.21946930  0.07792066  1  0.050271  -2e-06  0.097514  0.092242  -2.6e-05  1.032562  0.0
H  H27  1  0.32753127  0.23536101  0.85173574  1  0.122704  6e-05  0.110803  0.121539  6e-06  1.019159  0.0
H  H28  1  0.67246548  0.76463731  0.14826475  1  0.123247  6e-05  0.110758  0.121467  7e-06  1.019115  0.0
H  H29  1  0.71701387  0.78592871  0.60312244  1  0.125468  3.7e-05  0.12055  0.094371  2.8e-05  1.009239  0.0
H  H30  1  0.28298706  0.21407033  0.39687778  1  0.125493  3.7e-05  0.120562  0.094373  2.8e-05  1.009277  0.0
H  H31  1  0.27235023  0.81919358  0.04035027  1  0.085793  3.3e-05  0.106075  0.107653  -0.000226  1.018692  0.0
H  H32  1  0.72764946  0.18080260  0.95965242  1  0.085642  3.3e-05  0.106082  0.107707  -0.000226  1.018621  0.0
H  H33  1  0.15877879  0.82112422  0.86645045  1  0.117379  7.5e-05  0.101945  0.098637  3.6e-05  1.03992  0.0
H  H34  1  0.84122435  0.17887769  0.13354877  1  0.117319  7.5e-05  0.101923  0.09863  3.6e-05  1.039962  0.0
H  H35  1  0.95982132  0.25607170  0.75860870  1  0.106595  9.3e-05  0.107697  0.111369  -0.000264  1.019742  0.0
H  H36  1  0.04017575  0.74392734  0.24139046  1  0.10666  9.3e-05  0.107707  0.111382  -0.000264  1.019736  0.0
H  H37  1  0.77038902  0.15378102  0.37016086  1  0.123869  6.9e-05  0.122869  0.100165  4e-05  0.995106  0.0
H  H38  1  0.22961029  0.84621874  0.62983941  1  0.123862  6.9e-05  0.122876  0.100165  4e-05  0.995152  0.0
H  H39  1  0.17486483  0.57164363  0.39451734  1  0.150223  4.7e-05  0.110132  0.118748  -0.000277  1.035424  0.0
H  H40  1  0.82513416  0.42835542  0.60548188  1  0.15023  4.6e-05  0.110135  0.118789  -0.000278  1.035399  0.0
H  H41  1  0.09606263  0.37748756  0.70069477  1  0.053104  1e-06  0.10169  0.103908  -3.6e-05  1.006095  0.0
H  H42  1  0.90393509  0.62251077  0.29930432  1  0.053126  1e-06  0.101699  0.103906  -3.6e-05  1.006086  0.0
H  H43  1  0.43475435  0.74917118  0.28262822  1  0.104207  2.2e-05  0.103997  0.103002  -2.4e-05  1.021578  0.0
H  H44  1  0.56524689  0.25082858  0.71737210  1  0.104433  2.2e-05  0.103971  0.102962  -2.4e-05  1.021607  0.0
H  H45  1  0.05075979  0.92624113  0.45667519  1  0.037498  6.1e-05  0.094717  0.097477  5.1e-05  1.028793  0.0
H  H46  1  0.94924083  0.07375721  0.54332399  1  0.037488  6e-05  0.094683  0.097425  5.1e-05  1.028833  0.0
H  H47  1  0.13145814  0.05163828  0.47490719  1  0.064946  1.3e-05  0.094762  0.097653  4e-06  1.021103  0.0
H  H48  1  0.86854279  0.94836077  0.52509257  1  0.064939  1.3e-05  0.09476  0.09768  4e-06  1.021066  0.0
H  H49  1  0.36730684  0.91854217  0.47564315  1  0.044289  2.1e-05  0.097438  0.10457  1.2e-05  0.984348  0.0
H  H50  1  0.63269440  0.08145760  0.52435718  1  0.044269  2.1e-05  0.097453  0.104575  1.2e-05  0.984365  0.0
H  H51  1  0.43104396  0.96766220  0.55841762  1  0.062689  5e-05  0.097276  0.098531  4.1e-05  1.00482  0.0
H  H52  1  0.56895728  0.03233756  0.44158271  1  0.062743  5e-05  0.097257  0.09848  4.1e-05  1.004848  0.0
H  H53  1  0.93358954  0.14555087  0.45984055  1  0.114067  5.7e-05  0.107367  0.119987  2.3e-05  1.030686  0.0
H  H54  1  0.06641170  0.85444889  0.54015930  1  0.114059  5.7e-05  0.10737  0.119972  2.3e-05  1.03071  0.0
H  H55  1  0.57106280  0.89459124  0.61140493  1  0.11586  8.6e-05  0.110133  0.12644  -0.000108  1.016613  0.0
H  H56  1  0.42893875  0.10540923  0.38859597  1  0.1159  8.6e-05  0.110138  0.126425  -0.000108  1.016618  0.0
H  H57  1  0.22731119  0.68297431  0.80991704  1  0.05207  7.5e-05  0.096904  0.090649  2.1e-05  1.017317  0.0
H  H58  1  0.77268940  0.31702617  0.19008193  1  0.052035  7.5e-05  0.096905  0.090661  2.1e-05  1.01732  0.0
H  H59  1  0.54774391  0.86381790  0.40272376  1  0.129407  3e-05  0.107179  0.122764  8e-06  1.032405  0.0
H  H60  1  0.45225636  0.13618186  0.59727654  1  0.129402  3e-05  0.107206  0.122849  8e-06  1.032254  0.0
H  H61  1  0.76910059  0.89191457  0.26478776  1  0.111736  0.000105  0.116842  0.085307  7.3e-05  1.016669  0.0
H  H62  1  0.23089969  0.10808520  0.73521206  1  0.11174  0.000105  0.116833  0.085266  7.3e-05  1.01673  0.0
H  H63  1  0.92973439  0.87141682  0.35028584  1  0.083641  7e-05  0.109289  0.119159  3.3e-05  1.022704  0.0
H  H64  1  0.07026685  0.12858294  0.64971353  1  0.083667  7e-05  0.109296  0.119149  3.3e-05  1.022697  0.0
H  H65  1  0.35817245  0.59555818  0.32086534  1  0.096754  8.7e-05  0.102241  0.106794  3.4e-05  1.033689  0.0
H  H66  1  0.64182720  0.40444015  0.67913428  1  0.096774  8.7e-05  0.102221  0.106757  3.4e-05  1.033742  0.0
H  H67  1  0.69263158  0.75602110  0.40314311  1  0.118472  5.7e-05  0.12116  0.092496  4.8e-05  0.984767  0.0
H  H68  1  0.30736711  0.24397723  0.59685696  1  0.118448  5.7e-05  0.121181  0.092499  4.8e-05  0.984753  0.0
H  H69  1  0.34992679  0.43188930  0.72229347  1  0.1053  6e-05  0.10488  0.106974  3.8e-05  1.01343  0.0
H  H70  1  0.65007031  0.56810760  0.27770496  1  0.105276  6e-05  0.104867  0.106952  3.8e-05  1.013473  0.0
H  H71  1  0.66900959  0.29928871  0.36914995  1  0.113746  0.000209  0.107916  0.114945  -0.000108  1.017477  0.0
H  H72  1  0.33098844  0.70071034  0.63085066  1  0.113748  0.000209  0.107928  0.11495  -0.000108  1.017477  0.0
H  H73  1  0.47528540  0.51905015  0.38881533  1  0.090507  7.8e-05  0.106589  0.10954  1.6e-05  1.006123  0.0
H  H74  1  0.52471998  0.48095248  0.61118405  1  0.090527  7.8e-05  0.106636  0.109554  1.6e-05  1.006139  0.0
H  H75  1  0.29153267  0.41833561  0.30079461  1  0.063964  9.2e-05  0.10376  0.106828  2.1e-05  0.992231  0.0
H  H76  1  0.70846978  0.58166916  0.69920542  1  0.063969  9.2e-05  0.103777  0.10685  2.1e-05  0.992302  0.0
H  H77  1  0.29968314  0.25636978  0.24719298  1  0.096599  8.1e-05  0.104576  0.102845  -0.000303  1.029268  0.0
H  H78  1  0.70031741  0.74363284  0.75280862  1  0.096552  8.1e-05  0.104564  0.10288  -0.000303  1.029191  0.0
H  H79  1  0.16052467  0.72679529  0.10644089  1  0.153836  5.2e-05  0.122098  0.101882  -0.000444  1.00686  0.0
H  H80  1  0.83947561  0.27320448  0.89355940  1  0.153819  5.2e-05  0.122092  0.101861  -0.000444  1.006878  0.0
H  H81  1  0.92228972  0.64688801  0.05338135  1  0.07055  4.4e-05  0.108246  0.121664  1.9e-05  1.002961  0.0
H  H82  1  0.07770990  0.35311247  0.94661759  1  0.070566  4.4e-05  0.108261  0.121692  1.9e-05  1.002957  0.0
H  H83  1  0.19613159  0.47422445  0.14979083  1  0.109107  2e-06  0.113351  0.082547  2e-06  1.02413  0.0
H  H84  1  0.80386775  0.52577317  0.85020823  1  0.109271  2e-06  0.113372  0.082598  2e-06  1.024116  0.0
H  H85  1  0.48625226  0.39782772  0.17657944  1  0.093878  2.4e-05  0.107486  0.120804  2.3e-05  1.010251  0.0
H  H86  1  0.51374863  0.60217347  0.82342152  1  0.093918  2.4e-05  0.1075  0.120822  2.3e-05  1.010227  0.0
H  H87  1  0.53485918  0.38078012  0.97244824  1  0.093434  4e-06  0.105914  0.11726  2e-06  1.020388  0.0
H  H88  1  0.46513847  0.61922250  0.02755280  1  0.093388  4e-06  0.105925  0.11727  2e-06  1.020413  0.0
H  H89  1  0.95701110  0.38281303  0.10002620  1  0.095943  1.2e-05  0.105635  0.115563  8e-06  1.007501  0.0
H  H90  1  0.04298755  0.61718745  0.89997271  1  0.095934  1.2e-05  0.105642  0.115549  8e-06  1.007509  0.0
H  H91  1  0.74477837  0.49207251  0.00639417  1  0.046795  2e-06  0.0955  0.097462  -1e-06  0.993149  0.0
H  H92  1  0.25521998  0.50792726  0.99360512  1  0.046818  2e-06  0.095503  0.097467  -1e-06  0.993174  0.0
H  H93  1  0.76367680  0.38261325  0.02080517  1  0.055134  1.1e-05  0.096684  0.098408  1.6e-05  0.998615  0.0
H  H94  1  0.23632089  0.61738723  0.97919418  1  0.055117  1.1e-05  0.096694  0.098414  1.6e-05  0.9986  0.0
H  H95  1  0.29125971  0.28661981  0.94844067  1  0.088215  4.9e-05  0.109235  0.077258  3.2e-05  1.04669  0.0
H  H96  1  0.70874022  0.71338138  0.05156121  1  0.088201  4.9e-05  0.109263  0.07723  3.2e-05  1.046632  0.0
H  H97  1  0.24406083  0.30313975  0.14323684  1  0.085095  1.2e-05  0.116125  0.084617  -5e-06  0.981395  0.0
H  H98  1  0.75594103  0.69686144  0.85676415  1  0.08511  1.2e-05  0.116092  0.084627  -5e-06  0.981341  0.0
H  H99  1  0.68541812  0.53070649  0.11818685  1  0.08795  2.1e-05  0.097575  0.10548  1.2e-05  1.00008  0.0
H  H100  1  0.31458536  0.46929398  0.88181411  1  0.087974  2.1e-05  0.097587  0.105513  1.2e-05  1.000028  0.0
H  H101  1  0.71869009  0.43017416  0.13821025  1  0.051076  1.1e-05  0.095841  0.094409  6e-06  0.9927  0.0
H  H102  1  0.28131019  0.56982560  0.86178863  1  0.051052  1.1e-05  0.095842  0.094434  6e-06  0.992646  0.0
C  C103  1  0.61984723  0.90849277  0.97553835  1  -0.037223  0.000479  -0.018311  -0.049788  -2.9e-05  3.994489  0.0
C  C104  1  0.38015208  0.09150699  0.02446240  1  -0.037249  0.000479  -0.018275  -0.04963  -3e-05  3.994313  0.0
C  C105  1  0.98124340  0.90271213  0.81938920  1  1.571998  0.009526  0.224745  0.603898  0.008639  4.153837  0.008
C  C106  1  0.01875684  0.09728978  0.18061136  1  1.571818  0.009527  0.224738  0.603875  0.008638  4.153774  0.008
C  C107  1  0.18147534  0.79123963  0.36560125  1  -0.073969  0.003284  -0.07801  -0.118191  0.002468  3.963538  0.002
C  C108  1  0.81852397  0.20876013  0.63439902  1  -0.073861  0.003281  -0.077969  -0.118107  0.002466  3.963416  0.002
C  C109  1  0.97127797  0.77741148  0.72050686  1  -0.021555  0.004149  -0.074542  -0.100782  0.003044  3.939118  0.002
C  C110  1  0.02872231  0.22258829  0.27949344  1  -0.020972  0.004149  -0.074561  -0.100815  0.003044  3.939164  0.002
C  C111  1  0.74867993  0.95370754  0.95043016  1  1.564018  0.008714  0.230205  0.613366  0.008257  4.135551  0.009
C  C112  1  0.25131842  0.04629222  0.04956913  1  1.564081  0.008713  0.230065  0.613102  0.008255  4.135766  0.009
C  C113  1  0.61135469  0.92464566  0.04219041  1  -0.080162  0.005299  -0.070772  -0.090606  0.004161  3.905728  0.003
C  C114  1  0.38864017  0.07535053  0.95780976  1  -0.080096  0.0053  -0.070751  -0.09067  0.004162  3.905507  0.003
C  C115  1  0.47700441  0.92086894  0.13631938  1  1.545172  0.016948  0.221511  0.597147  0.015958  4.17011  0.015
C  C116  1  0.52299556  0.07913010  0.86368177  1  1.545242  0.016949  0.221499  0.597155  0.015959  4.170104  0.015
C  C117  1  0.95076811  0.65430012  0.61935626  1  1.581243  0.009312  0.222509  0.593892  0.008341  4.181484  0.008
C  C118  1  0.04923217  0.34569964  0.38064261  1  1.581209  0.009311  0.222521  0.593993  0.00834  4.181343  0.008
C  C119  1  0.00625244  0.69858951  0.68883486  1  -0.043957  0.001012  -0.018  -0.046576  0.00036  3.975576  0.0
C  C120  1  0.99374687  0.30141025  0.31116398  1  -0.044027  0.001013  -0.017986  -0.046573  0.00036  3.975657  0.0
C  C121  1  0.28837984  0.80665457  0.32780755  1  -0.027661  0.001112  -0.017154  -0.041411  0.000483  3.98438  0.0
C  C122  1  0.71161916  0.19334448  0.67219214  1  -0.027652  0.001113  -0.017178  -0.041528  0.000484  3.984493  0.0
C  C123  1  0.50370897  0.85673910  0.93190289  1  -0.070501  0.004015  -0.074829  -0.074618  0.002986  3.937706  0.002
C  C124  1  0.49628872  0.14326138  0.06809836  1  -0.070493  0.004017  -0.074875  -0.074683  0.002987  3.937546  0.002
C  C125  1  0.48610750  0.89295868  0.06558722  1  0.067213  -0.000187  -0.015442  -0.037624  -0.000814  3.966618  -0.001
C  C126  1  0.51389060  0.10703607  0.93441335  1  0.067335  -0.000187  -0.015423  -0.037559  -0.000815  3.966436  -0.001
C  C127  1  0.02285962  0.81993920  0.78506977  1  -0.044555  0.001018  -0.022023  -0.048808  0.00036  3.972601  0.0
C  C128  1  0.97714158  0.18006271  0.21492940  1  -0.04508  0.001018  -0.022052  -0.048862  0.000361  3.972603  0.0
C  C129  1  0.13503570  0.23932421  0.80936120  1  0.044231  0.000395  -0.019611  -0.051613  -0.0003  3.993296  0.0
C  C130  1  0.86496395  0.76067412  0.19063653  1  0.044195  0.000395  -0.019591  -0.051699  -0.0003  3.99341  0.0
C  C131  1  0.34172394  0.89912622  0.30553660  1  1.582727  0.016748  0.22404  0.605255  0.015709  4.175406  0.014
C  C132  1  0.65827313  0.10087283  0.69446303  1  1.582834  0.016747  0.224001  0.605233  0.015707  4.175447  0.014
C  C133  1  0.48674466  0.17159950  0.27367953  1  1.557264  0.01372  0.21822  0.587641  0.012596  4.198036  0.012
C  C134  1  0.51325334  0.82840169  0.72632135  1  1.55745  0.013716  0.218129  0.587532  0.012593  4.198326  0.012
C  C135  1  0.69706273  0.47867257  0.43449286  1  1.581843  0.007555  0.222824  0.606782  0.006718  4.17437  0.007
C  C136  1  0.30293917  0.52132647  0.56550835  1  1.581855  0.007555  0.222766  0.606784  0.006718  4.174194  0.007
C  C137  1  0.05355894  0.16911662  0.84587518  1  1.523211  0.018713  0.221572  0.587113  0.016969  4.183459  0.015
C  C138  1  0.94644002  0.83088457  0.15412477  1  1.523211  0.01871  0.221575  0.587145  0.016967  4.183398  0.015
C  C139  1  0.09668811  0.66343631  0.72166262  1  -0.006987  0.00376  -0.076055  -0.074652  0.002782  3.949942  0.002
C  C140  1  0.90331185  0.33656274  0.27833663  1  -0.007014  0.003759  -0.076074  -0.074698  0.002781  3.949968  0.002
C  C141  1  0.38036238  0.82151318  0.95563407  1  0.025988  -0.001097  -0.092704  -0.091603  -0.00124  4.015641  -0.001
C  C142  1  0.61963662  0.17848586  0.04436610  1  0.025998  -0.001097  -0.09273  -0.091612  -0.00124  4.015595  -0.001
C  C143  1  0.27694657  0.26782744  0.81958472  1  -0.124593  0.004422  -0.079801  -0.123023  0.003379  3.954956  0.003
C  C144  1  0.72305343  0.73216946  0.18041284  1  -0.12514  0.004421  -0.079736  -0.122904  0.003379  3.954847  0.003
C  C145  1  0.67609153  0.80500344  0.56024004  1  0.47813  8.2e-05  0.0539  0.104335  4.5e-05  3.936027  0.0
C  C146  1  0.32391099  0.19499704  0.43976041  1  0.47798  8.2e-05  0.05378  0.104182  4.5e-05  3.9362  0.0
C  C147  1  0.37029777  0.84115410  0.02203534  1  -0.071602  0.003638  -0.075874  -0.0779  0.002623  3.943059  0.002
C  C148  1  0.62969964  0.15884351  0.97796555  1  -0.071449  0.003638  -0.07589  -0.077965  0.002624  3.943104  0.002
C  C149  1  0.11541464  0.78523206  0.81697192  1  -0.092619  0.004468  -0.083388  -0.088653  0.003489  3.965288  0.003
C  C150  1  0.88458722  0.21476914  0.18302717  1  -0.092632  0.004467  -0.083357  -0.088583  0.003488  3.965263  0.003
C  C151  1  0.94404554  0.00674723  0.41289690  1  -0.004158  5.2e-05  0.019196  0.179581  2.3e-05  3.922636  0.0
C  C152  1  0.05595667  0.99325253  0.58710298  1  -0.003991  5.2e-05  0.019134  0.179513  2.3e-05  3.922606  0.0
C  C153  1  0.07028405  0.27919966  0.76635523  1  -0.058758  0.003148  -0.073002  -0.073708  0.002249  3.933611  0.002
C  C154  1  0.92971301  0.72079939  0.23364440  1  -0.058693  0.003148  -0.073043  -0.073683  0.002248  3.933724  0.002
C  C155  1  0.50511538  0.37501075  0.80468272  1  1.541907  4.7e-05  0.21668  0.558967  1.8e-05  4.174184  0.0
C  C156  1  0.49488234  0.62498759  0.19531637  1  1.54195  4.7e-05  0.216693  0.558936  1.8e-05  4.174208  0.0
C  C157  1  0.14314360  0.70745534  0.39068430  1  0.005665  6.6e-05  -0.021756  -0.051064  -0.000465  4.016207  0.0
C  C158  1  0.85685764  0.29254442  0.60931555  1  0.005693  6.7e-05  -0.02175  -0.050995  -0.000464  4.016102  0.0
C  C159  1  0.80981254  0.09319493  0.36798159  1  0.484965  7.9e-05  0.048338  0.096541  6.5e-05  3.946032  0.0
C  C160  1  0.19018645  0.90680412  0.63201811  1  0.48511  8e-05  0.048312  0.096495  6.5e-05  3.946078  0.0
C  C161  1  0.58366481  0.41555991  0.38395525  1  -0.028994  0.001207  -0.019862  -0.04501  0.000609  3.97604  0.001
C  C162  1  0.41633740  0.58443985  0.61604511  1  -0.028982  0.001207  -0.019859  -0.045047  0.00061  3.97606  0.001
C  C163  1  0.20748886  0.63699288  0.37538813  1  -0.103249  0.002714  -0.073957  -0.073609  0.001899  3.918121  0.002
C  C164  1  0.79251238  0.36300688  0.62461220  1  -0.103205  0.002711  -0.073942  -0.073684  0.001897  3.917963  0.002
C  C165  1  0.35406187  0.33795157  0.78901043  1  -0.049538  -0.000713  -0.024494  -0.059808  -0.000891  4.015371  -0.001
C  C166  1  0.64593681  0.66204677  0.21098869  1  -0.04963  -0.000713  -0.024497  -0.059804  -0.000891  4.015373  -0.001
C  C167  1  0.14712560  0.34724221  0.73433477  1  0.011681  -0.000754  -0.08854  -0.08332  -0.000895  3.994382  -0.001
C  C168  1  0.85287243  0.65275684  0.26566489  1  0.011532  -0.000754  -0.088518  -0.08331  -0.000895  3.994351  -0.001
C  C169  1  0.35202856  0.73582921  0.31252823  1  -0.044157  0.003276  -0.073225  -0.071111  0.002579  3.944395  0.002
C  C170  1  0.64797268  0.26417055  0.68747304  1  -0.044466  0.003273  -0.073225  -0.071057  0.002577  3.944433  0.002
C  C171  1  0.03263517  0.99582997  0.46814314  1  0.007079  8.2e-05  -0.156804  -0.196064  6.8e-05  3.91676  0.0
C  C172  1  0.96736576  0.00416907  0.53185614  1  -0.017862  8.2e-05  -0.156731  -0.195971  6.8e-05  3.916639  0.0
C  C173  1  0.54568961  0.88666079  0.50745739  1  -0.078753  0.000101  0.017848  0.175253  8.1e-05  3.936312  0.0
C  C174  1  0.45431163  0.11333897  0.49254341  1  -0.078709  0.000101  0.017852  0.175238  8e-05  3.936364  0.0
C  C175  1  0.46084481  0.95272370  0.50953359  1  -0.015278  3.4e-05  -0.15395  -0.192325  2.6e-05  3.927651  0.0
C  C176  1  0.53915612  0.04727534  0.49046711  1  -0.035392  3.4e-05  -0.153969  -0.19228  2.6e-05  3.927638  0.0
C  C177  1  0.89980649  0.08766778  0.41740798  1  -0.060668  0.000142  -0.081764  -0.173715  0.000106  3.923662  0.0
C  C178  1  0.10019378  0.91233199  0.58259184  1  -0.060832  0.000141  -0.081752  -0.173665  0.000106  3.92364  0.0
C  C179  1  0.59509588  0.86490527  0.56427963  1  -0.009804  5.6e-05  -0.079775  -0.176  -2.7e-05  3.914686  0.0
C  C180  1  0.40490632  0.13509449  0.43572120  1  -0.009685  5.7e-05  -0.079677  -0.175822  -2.7e-05  3.914695  0.0
C  C181  1  0.15284144  0.70807519  0.78525717  1  -0.080325  -0.000728  -0.094327  -0.090631  -0.000883  4.027991  -0.001
C  C182  1  0.84715628  0.29192314  0.21474240  1  -0.080285  -0.000728  -0.09433  -0.090676  -0.000883  4.027948  -0.001
C  C183  1  0.58189604  0.84776451  0.44828961  1  0.005976  3.5e-05  -0.082443  -0.185534  2.3e-05  3.933106  0.0
C  C184  1  0.41810262  0.15223597  0.55171072  1  0.005612  3.5e-05  -0.082495  -0.185692  2.3e-05  3.933049  0.0
C  C185  1  0.80868880  0.94646832  0.30877950  1  0.471368  9.5e-05  0.053349  0.113098  -3.8e-05  3.930183  0.0
C  C186  1  0.19131213  0.05353073  0.69122025  1  0.471851  9.5e-05  0.053372  0.11314  -3.8e-05  3.930201  0.0
C  C187  1  0.89849667  0.93584806  0.35650691  1  -0.022225  9.8e-05  -0.078593  -0.177056  -2.2e-05  3.915869  0.0
C  C188  1  0.10150299  0.06415027  0.64349319  1  -0.022754  9.8e-05  -0.078573  -0.177016  -2.3e-05  3.915857  0.0
C  C189  1  0.30998072  0.65062449  0.33505496  1  -0.020299  -0.000513  -0.089931  -0.085568  -0.000601  3.993641  0.0
C  C190  1  0.69001956  0.34937527  0.66494628  1  -0.020269  -0.000511  -0.089943  -0.085547  -0.0006  3.993652  0.0
C  C191  1  0.66260607  0.78824094  0.44806761  1  0.426049  0.00011  0.049999  0.098692  8.1e-05  3.948956  0.0
C  C192  1  0.33739135  0.21175667  0.55193139  1  0.426449  0.00011  0.050013  0.098777  8.1e-05  3.948947  0.0
C  C193  1  0.28851095  0.37734555  0.74586358  1  -0.072177  0.003709  -0.076251  -0.082991  0.002922  3.953466  0.002
C  C194  1  0.71148580  0.62265278  0.25413548  1  -0.072036  0.003708  -0.07628  -0.08302  0.002922  3.95349  0.002
C  C195  1  0.58660439  0.32527688  0.35403755  1  -0.075212  0.004193  -0.078171  -0.107205  0.003099  3.950016  0.003
C  C196  1  0.41339619  0.67472359  0.64596190  1  -0.075207  0.004192  -0.078134  -0.107119  0.003098  3.949956  0.003
C  C197  1  0.47633226  0.44853680  0.36473569  1  -0.042412  0.004391  -0.075668  -0.075449  0.003452  3.936801  0.003
C  C198  1  0.52367185  0.55146511  0.63526498  1  -0.042521  0.00439  -0.07576  -0.075518  0.003451  3.936926  0.003
C  C199  1  0.37404154  0.39208363  0.31575774  1  0.050893  -0.000884  -0.088061  -0.078961  -0.001021  4.001951  -0.001
C  C200  1  0.62596157  0.60792043  0.68424317  1  0.051006  -0.000884  -0.088033  -0.078913  -0.00102  4.002008  -0.001
C  C201  1  0.48439338  0.26865838  0.30462346  1  0.003352  0.000266  -0.024668  -0.055818  -0.000309  4.005858  0.0
C  C202  1  0.51560527  0.73134210  0.69537687  1  0.002954  0.000267  -0.024681  -0.055833  -0.000308  4.005938  0.0
C  C203  1  0.37825366  0.30231801  0.28544664  1  -0.13391  0.003791  -0.078643  -0.08901  0.00275  3.963301  0.002
C  C204  1  0.62174624  0.69768533  0.71455456  1  -0.133753  0.003789  -0.078675  -0.089132  0.002749  3.963213  0.002
C  C205  1  0.03425691  0.69287027  0.43351551  1  1.537719  0.010461  0.214572  0.585179  0.009713  4.176513  0.011
C  C206  1  0.96574529  0.30712949  0.56648342  1  1.537662  0.010451  0.214535  0.585157  0.009704  4.176433  0.011
C  C207  1  0.11179694  0.65031288  0.10296194  1  0.469298  0.000121  0.053246  0.097863  1.4e-05  3.928561  0.0
C  C208  1  0.88820496  0.34968617  0.89703642  1  0.469316  0.000121  0.05324  0.097864  1.4e-05  3.928565  0.0
C  C209  1  0.97854761  0.60547749  0.07441009  1  -0.052812  7.5e-05  -0.083782  -0.184359  6.4e-05  3.929683  0.0
C  C210  1  0.02145364  0.39452227  0.92558881  1  -0.052903  7.5e-05  -0.083798  -0.184416  6.4e-05  3.929614  0.0
C  C211  1  0.91900579  0.50764551  0.07237049  1  -0.001875  4.3e-05  0.01226  0.164497  2.9e-05  3.952482  0.0
C  C212  1  0.08099545  0.49235425  0.92762793  1  -0.001881  4.3e-05  0.012182  0.164438  2.9e-05  3.952454  0.0
C  C213  1  0.13029797  0.50866071  0.12770687  1  0.502477  2e-05  0.049277  0.091491  1.7e-05  3.963801  0.0
C  C214  1  0.86970265  0.49133762  0.87229231  1  0.502274  2e-05  0.049192  0.091355  1.7e-05  3.963679  0.0
C  C215  1  0.53296373  0.39887096  0.07740194  1  -0.041785  1e-05  0.01058  0.159976  5e-06  3.938159  0.0
C  C216  1  0.46703679  0.60113381  0.92259897  1  -0.041736  1e-05  0.01059  0.159964  5e-06  3.938143  0.0
C  C217  1  0.44781883  0.37505379  0.12517632  1  0.0241  5.3e-05  -0.083132  -0.180191  5.1e-05  3.946275  0.0
C  C218  1  0.55218206  0.62494741  0.87482464  1  0.024101  5.3e-05  -0.083211  -0.18025  5.1e-05  3.946423  0.0
C  C219  1  0.47527306  0.36713464  0.01253984  1  0.001865  2.6e-05  -0.088671  -0.186394  2.1e-05  3.93782  0.0
C  C220  1  0.52472556  0.63286798  0.98746171  1  0.001818  2.6e-05  -0.088626  -0.186384  2.1e-05  3.937742  0.0
C  C221  1  0.99783573  0.45912077  0.10026785  1  -0.084599  4.1e-05  -0.0876  -0.191964  3e-05  3.954115  0.0
C  C222  1  0.00216454  0.54087899  0.89973102  1  -0.084586  4.1e-05  -0.087561  -0.191885  3e-05  3.954126  0.0
C  C223  1  0.77406919  0.45670483  0.04411660  1  -0.018207  8e-06  -0.158749  -0.204706  3e-06  3.954504  0.0
C  C224  1  0.22593012  0.54329493  0.95588272  1  -0.018177  8e-06  -0.158717  -0.204638  3e-06  3.954464  0.0
C  C225  1  0.33832116  0.31452330  0.99848171  1  0.480537  9.4e-05  0.042962  0.090768  7.8e-05  3.974611  0.0
C  C226  1  0.66167842  0.68547932  0.00151986  1  0.480506  9.3e-05  0.042918  0.090878  7.7e-05  3.974546  0.0
C  C227  1  0.31207658  0.32278401  0.10683327  1  0.446109  4e-05  0.044484  0.09197  1.3e-05  3.981226  0.0
C  C228  1  0.68792400  0.67721647  0.89316807  1  0.446008  4e-05  0.044544  0.091962  1.3e-05  3.98119  0.0
C  C229  1  0.67972626  0.45633005  0.09751358  1  -0.076141  6e-06  -0.151177  -0.186636  4e-06  3.928591  0.0
C  C230  1  0.32027561  0.54367114  0.90248599  1  -0.076114  6e-06  -0.151242  -0.186785  4e-06  3.928566  0.0
N  N231  1  0.70913650  0.76731724  0.50313800  1  -1.260557  4.5e-05  -0.336098  -0.242123  7.3e-05  3.577098  0.0
N  N232  1  0.29086408  0.23268324  0.49686097  1  -1.260662  4.5e-05  -0.336096  -0.242136  7.3e-05  3.577055  0.0
N  N233  1  0.76325956  0.02301770  0.31477987  1  -1.267119  0.000136  -0.340561  -0.24763  7.7e-05  3.582221  0.0
N  N234  1  0.23674040  0.97698135  0.68522033  1  -1.26713  0.000136  -0.340566  -0.247633  7.7e-05  3.58219  0.0
N  N235  1  0.18652915  0.60236876  0.12857968  1  -1.248134  4.3e-05  -0.309837  -0.219298  3.4e-05  3.459081  0.0
N  N236  1  0.81347116  0.39762886  0.87141845  1  -1.248023  4.3e-05  -0.309776  -0.219209  3.4e-05  3.458874  0.0
N  N237  1  0.25704533  0.29294398  0.04445377  1  -1.258505  2e-05  -0.316328  -0.254569  -2e-06  3.442895  0.0
N  N238  1  0.74295526  0.70705649  0.95554757  1  -1.25839  2.1e-05  -0.316298  -0.254577  -2e-06  3.442892  0.0
O  O239  1  0.86195831  0.98018348  0.98844197  1  -1.191375  0.00517  -0.318752  -0.583302  0.003545  2.476756  0.004
O  O240  1  0.13803906  0.01981628  0.01155681  1  -1.191523  0.005169  -0.318654  -0.583178  0.003544  2.4769  0.004
O  O241  1  0.91511814  0.94107057  0.78585055  1  -1.186424  0.052805  -0.303201  -0.560473  0.039175  2.288897  0.023
O  O242  1  0.08487986  0.05893062  0.21415033  1  -1.1862  0.05279  -0.303181  -0.560427  0.039172  2.288867  0.023
O  O243  1  0.01697891  0.92792530  0.88107595  1  -1.193505  0.005816  -0.314998  -0.582596  0.003881  2.351929  0.005
O  O244  1  0.98301813  0.07207589  0.11892442  1  -1.193514  0.005816  -0.314989  -0.582601  0.003881  2.351854  0.005
O  O245  1  0.74576975  0.96954089  0.89394379  1  -1.206123  0.050089  -0.288058  -0.556928  0.038182  2.416233  0.022
O  O246  1  0.25422894  0.03045745  0.10605486  1  -1.206078  0.05007  -0.288051  -0.556836  0.038179  2.416219  0.022
O  O247  1  0.89323334  0.70443390  0.59036099  1  -1.172474  0.00614  -0.322094  -0.563  0.00422  2.428184  0.005
O  O248  1  0.10677076  0.29556801  0.40963778  1  -1.172394  0.00614  -0.322102  -0.563072  0.00422  2.428121  0.005
O  O249  1  0.58665155  0.14617943  0.29550520  1  -1.175023  0.008542  -0.321908  -0.558423  0.005966  2.401032  0.007
O  O250  1  0.41334645  0.85382176  0.70449473  1  -1.175062  0.00854  -0.321873  -0.558353  0.005964  2.401086  0.007
O  O251  1  0.47137238  0.92621448  0.30685794  1  -1.190419  0.009616  -0.325158  -0.574297  0.0066  2.397594  0.007
O  O252  1  0.52862503  0.07378314  0.69314059  1  -1.19048  0.009615  -0.325178  -0.574267  0.0066  2.397557  0.007
O  O253  1  0.96353722  0.57453525  0.59444697  1  -1.200583  0.047242  -0.29739  -0.567836  0.035471  2.329549  0.02
O  O254  1  0.03646178  0.42546380  0.40555320  1  -1.200565  0.047246  -0.297384  -0.567853  0.035474  2.3295  0.02
O  O255  1  0.26193255  0.94331881  0.28896693  1  -1.202871  0.050642  -0.308544  -0.568884  0.036125  2.272116  0.017
O  O256  1  0.73806769  0.05668310  0.71103410  1  -1.202945  0.050639  -0.308495  -0.56885  0.036123  2.272037  0.017
O  O257  1  0.00513736  0.17281787  0.01195305  1  -1.254167  0.000352  -0.582863  -0.746667  0.000199  2.127588  0.0
O  O258  1  0.99486357  0.82718117  0.98804670  1  -1.25416  0.000352  -0.582848  -0.746641  0.000199  2.12761  0.0
O  O259  1  0.59140522  0.96877726  0.17099410  1  -1.162096  0.009725  -0.323914  -0.540983  0.006769  2.337693  0.007
O  O260  1  0.40859505  0.03122250  0.82900714  1  -1.162197  0.009725  -0.323916  -0.541026  0.00677  2.337811  0.007
O  O261  1  0.39432132  0.12025884  0.22928291  1  -1.211988  0.049196  -0.304374  -0.579797  0.036644  2.37414  0.019
O  O262  1  0.60567474  0.87974235  0.77071743  1  -1.211966  0.049184  -0.304319  -0.579734  0.036638  2.374105  0.019
O  O263  1  0.01345006  0.62459296  0.46431205  1  -1.22332  0.056643  -0.306792  -0.578264  0.042854  2.440463  0.022
O  O264  1  0.98655404  0.37540895  0.53568768  1  -1.223265  0.056605  -0.306757  -0.578218  0.042824  2.440196  0.022
O  O265  1  0.78397153  0.44503718  0.45746328  1  -1.191064  0.048303  -0.301352  -0.563261  0.035982  2.27942  0.022
O  O266  1  0.21603133  0.55496187  0.54253653  1  -1.190986  0.048302  -0.301352  -0.563288  0.035985  2.279257  0.022
O  O267  1  0.69413624  0.56548034  0.44908461  1  -1.177569  0.005034  -0.330922  -0.56717  0.003406  2.396315  0.004
O  O268  1  0.30586597  0.43451942  0.55091527  1  -1.17759  0.005035  -0.330846  -0.56712  0.003406  2.396229  0.004
O  O269  1  0.12176963  0.14094993  0.88715955  1  -1.157702  0.01194  -0.312937  -0.545322  0.008498  2.325488  0.009
O  O270  1  0.87822999  0.85905055  0.11283939  1  -1.157727  0.011938  -0.312945  -0.545344  0.008496  2.325456  0.009
O  O271  1  0.92544586  0.14419646  0.83625541  1  -1.168771  0.048293  -0.303034  -0.577535  0.035058  2.375847  0.017
O  O272  1  0.07455472  0.85580402  0.16374545  1  -1.168724  0.048279  -0.303026  -0.577507  0.035051  2.375761  0.017
O  O273  1  0.55470225  0.32792857  0.84299691  1  -1.166694  4.4e-05  -0.335931  -0.4826  -5.1e-05  2.332837  0.0
O  O274  1  0.44529609  0.67207119  0.15700332  1  -1.166799  4.4e-05  -0.335926  -0.482568  -5.1e-05  2.332872  0.0
O  O275  1  0.57443247  0.44421183  0.78405031  1  -1.164545  -1.6e-05  -0.29995  -0.522884  -4.3e-05  2.165533  0.0
O  O276  1  0.42556559  0.55578508  0.21594766  1  -1.164577  -1.6e-05  -0.299993  -0.522892  -4.3e-05  2.165553  0.0
O  O277  1  0.36379540  0.89933494  0.15815844  1  -1.201757  0.04322  -0.304096  -0.571808  0.031079  2.316968  0.016
O  O278  1  0.63620453  0.10066625  0.84184297  1  -1.201718  0.04322  -0.304099  -0.571819  0.031078  2.31693  0.016
O  O279  1  0.96051731  0.74901951  0.43961831  1  -1.170712  0.009211  -0.316864  -0.553963  0.006654  2.255006  0.007
O  O280  1  0.03948555  0.25097954  0.56038197  1  -1.170692  0.0092  -0.316843  -0.553972  0.006646  2.255008  0.007
