# generated using pymatgen
data_CdAg2H16(C3N)8
_symmetry_space_group_name_H-M   'P 1'
_cell_length_a   8.89047638
_cell_length_b   11.15522699
_cell_length_c   13.28145101
_cell_angle_alpha   89.99998861
_cell_angle_beta   104.74114667
_cell_angle_gamma   89.99999503
_symmetry_Int_Tables_number   1
_chemical_formula_structural   CdAg2H16(C3N)8
_chemical_formula_sum   'Cd2 Ag4 H32 C48 N16'
_cell_volume   1273.83664051
_cell_formula_units_Z   2
loop_
 _symmetry_equiv_pos_site_id
 _symmetry_equiv_pos_as_xyz
  1  'x, y, z'
loop_
 _atom_site_type_symbol
 _atom_site_label
 _atom_site_symmetry_multiplicity
 _atom_site_fract_x
 _atom_site_fract_y
 _atom_site_fract_z
 _atom_site_occupancy
 _atom_site_hle17_bader_spin_density
 _atom_site_hle17_ddec_charge
 _atom_site_hle17_ddec_spin_density
 _atom_site_hle17_ddec_sum_bond_order
 _atom_site_hle17_magmom
 _atom_site_hse06_10hf_bader_spin_density
 _atom_site_hse06_10hf_ddec_charge
 _atom_site_hse06_10hf_ddec_spin_density
 _atom_site_hse06_10hf_ddec_sum_bond_order
 _atom_site_hse06_10hf_magmom
 _atom_site_hse06_bader_spin_density
 _atom_site_hse06_ddec_charge
 _atom_site_hse06_ddec_spin_density
 _atom_site_hse06_ddec_sum_bond_order
 _atom_site_hse06_magmom
 _atom_site_pbe_bader_spin_density
 _atom_site_pbe_cm5_charge
 _atom_site_pbe_ddec_charge
 _atom_site_pbe_ddec_spin_density
 _atom_site_pbe_ddec_sum_bond_order
 _atom_site_pbe_magmom
Cd  Cd0  1  0.00000116  1.00000000  0.00000020  1  0  1.076611  0  1.947155  0  0  0.874443  0  2.425744  0  0  0.925307  0  2.381236  0  0  0.816913  0.838823  0  2.455936  0
Cd  Cd1  1  0.50000087  0.49999871  0.49999822  1  0  1.076634  0  1.947179  0  0  0.874473  0  2.425765  0  0  0.925335  0  2.381259  0  0  0.816919  0.838855  0  2.455958  0
Ag  Ag2  1  0.67323446  0.32100822  0.15870906  1  0  0.28144  0  2.086948  0  0  0.174075  0  2.573466  0  0  0.182712  0  2.539333  0  0  0.356464  0.16924  0  2.595895  0
Ag  Ag3  1  0.82676629  0.82100967  0.34128973  1  0  0.281518  0  2.086904  0  0  0.174172  0  2.573431  0  0  0.182817  0  2.539292  0  0  0.356457  0.169333  0  2.59587  0
Ag  Ag4  1  0.32676611  0.67898831  0.84128718  1  0  0.281477  0  2.086813  0  0  0.174115  0  2.573325  0  0  0.182769  0  2.539185  0  0  0.356436  0.169276  0  2.59576  0
Ag  Ag5  1  0.17323544  0.17899045  0.65870971  1  0  0.281511  0  2.08688  0  0  0.174161  0  2.573403  0  0  0.182808  0  2.539269  0  0  0.356453  0.169312  0  2.595853  0
H  H6  1  0.61687935  0.99153603  0.18308292  1  0  0.104394  0  0.987142  0  0  0.111799  0  1.054132  0  0  0.115065  0  1.052769  0  0  0.101133  0.109486  0  1.055215  0
H  H7  1  0.88312254  0.49153722  0.31691980  1  0  0.104391  0  0.987161  0  0  0.111794  0  1.054156  0  0  0.11506  0  1.05279  0  0  0.101139  0.109479  0  1.05524  0
H  H8  1  0.38312238  0.00846319  0.81691879  1  0  0.104407  0  0.987133  0  0  0.11181  0  1.054124  0  0  0.115077  0  1.052759  0  0  0.101135  0.109495  0  1.055207  0
H  H9  1  0.11687687  0.50846380  0.68308151  1  0  0.104411  0  0.98717  0  0  0.111802  0  1.05417  0  0  0.115067  0  1.05281  0  0  0.101126  0.109487  0  1.055253  0
H  H10  1  0.37024873  0.96561816  0.04565893  1  0  0.081515  0  0.932582  0  0  0.092262  0  0.990183  0  0  0.09411  0  0.98938  0  0  0.11607  0.090917  0  0.990759  0
H  H11  1  0.12975322  0.46561844  0.45434315  1  0  0.081485  0  0.932533  0  0  0.092238  0  0.990133  0  0  0.094085  0  0.98933  0  0  0.116068  0.090894  0  0.990709  0
H  H12  1  0.62975184  0.03438106  0.95434182  1  0  0.081481  0  0.93258  0  0  0.092239  0  0.990173  0  0  0.094086  0  0.989371  0  0  0.116072  0.090894  0  0.99075  0
H  H13  1  0.87024735  0.53438078  0.54565836  1  0  0.081498  0  0.932566  0  0  0.09225  0  0.990155  0  0  0.094097  0  0.989352  0  0  0.11607  0.090906  0  0.990732  0
H  H14  1  0.11340984  0.13453959  0.22354316  1  0  0.079249  0  0.934366  0  0  0.088685  0  0.995426  0  0  0.090612  0  0.994295  0  0  0.115546  0.087268  0  0.996286  0
H  H15  1  0.38658985  0.63454016  0.27645935  1  0  0.079239  0  0.934379  0  0  0.088675  0  0.995436  0  0  0.090602  0  0.994305  0  0  0.115533  0.087257  0  0.996296  0
H  H16  1  0.88659074  0.86545963  0.77645835  1  0  0.079246  0  0.934328  0  0  0.088682  0  0.995389  0  0  0.09061  0  0.994258  0  0  0.115532  0.087264  0  0.996249  0
H  H17  1  0.61340956  0.36545906  0.72354196  1  0  0.079259  0  0.934315  0  0  0.088693  0  0.995379  0  0  0.09062  0  0.994249  0  0  0.115531  0.087273  0  0.99624  0
H  H18  1  0.34988608  0.17228689  0.36864331  1  0  0.117354  0  0.961354  0  0  0.125312  0  1.023463  0  0  0.128403  0  1.023193  0  0  0.107574  0.123081  0  1.023842  0
H  H19  1  0.15011592  0.67228661  0.13135809  1  0  0.117361  0  0.9613  0  0  0.125314  0  1.023423  0  0  0.128406  0  1.023152  0  0  0.107548  0.123083  0  1.0238  0
H  H20  1  0.65011565  0.82771323  0.63135689  1  0  0.117363  0  0.961336  0  0  0.125323  0  1.023449  0  0  0.128414  0  1.023178  0  0  0.107568  0.123092  0  1.023827  0
H  H21  1  0.84988465  0.32771350  0.86864342  1  0  0.117363  0  0.961346  0  0  0.125325  0  1.023457  0  0  0.128416  0  1.023186  0  0  0.107572  0.123093  0  1.023834  0
H  H22  1  0.80202019  0.10469884  0.26812275  1  0  0.099546  0  0.986335  0  0  0.108074  0  1.052546  0  0  0.11098  0  1.050989  0  0  0.098051  0.106016  0  1.053776  0
H  H23  1  0.69797828  0.60469943  0.23187644  1  0  0.099535  0  0.98633  0  0  0.108085  0  1.05252  0  0  0.110992  0  1.050959  0  0  0.098051  0.106027  0  1.05375  0
H  H24  1  0.19797922  0.89529859  0.73187781  1  0  0.099566  0  0.986291  0  0  0.108113  0  1.052477  0  0  0.11102  0  1.050917  0  0  0.098075  0.106056  0  1.053704  0
H  H25  1  0.30201880  0.39529979  0.76812146  1  0  0.099537  0  0.986316  0  0  0.10808  0  1.05251  0  0  0.110986  0  1.050952  0  0  0.098068  0.106021  0  1.053739  0
H  H26  1  0.03885749  0.14390827  0.40997448  1  0  0.070568  0  0.932075  0  0  0.081182  0  0.992312  0  0  0.083239  0  0.99125  0  0  0.110246  0.079734  0  0.993016  0
H  H27  1  0.46114218  0.64390798  0.09002502  1  0  0.070581  0  0.932081  0  0  0.081193  0  0.992315  0  0  0.08325  0  0.991254  0  0  0.110249  0.079744  0  0.993019  0
H  H28  1  0.96114192  0.85608736  0.59002834  1  0  0.070543  0  0.932085  0  0  0.08118  0  0.992303  0  0  0.083241  0  0.991243  0  0  0.110247  0.079732  0  0.993004  0
H  H29  1  0.53885722  0.35608765  0.90997103  1  0  0.070554  0  0.932119  0  0  0.081181  0  0.992343  0  0  0.083242  0  0.991283  0  0  0.110241  0.079731  0  0.993047  0
H  H30  1  0.78899703  0.14531025  0.63349670  1  0  0.072937  0  0.933873  0  0  0.080351  0  0.997847  0  0  0.082627  0  0.996863  0  0  0.110083  0.078742  0  0.998493  0
H  H31  1  0.71100447  0.64530812  0.86650385  1  0  0.072906  0  0.933892  0  0  0.080315  0  0.997876  0  0  0.082587  0  0.996903  0  0  0.110056  0.078705  0  0.998527  0
H  H32  1  0.21100005  0.85469076  0.36650497  1  0  0.07295  0  0.933888  0  0  0.08036  0  0.997864  0  0  0.082633  0  0.99689  0  0  0.110079  0.078751  0  0.998519  0
H  H33  1  0.28900075  0.35469020  0.13349544  1  0  0.072929  0  0.933868  0  0  0.080338  0  0.99785  0  0  0.082612  0  0.996872  0  0  0.110065  0.078727  0  0.998509  0
H  H34  1  0.53940481  0.10947864  0.50147991  1  0  0.107649  0  0.96158  0  0  0.117585  0  1.02327  0  0  0.120017  0  1.023628  0  0  0.105867  0.115858  0  1.023126  0
H  H35  1  0.96059670  0.60947736  0.99852216  1  0  0.107651  0  0.961601  0  0  0.117599  0  1.023271  0  0  0.12003  0  1.02363  0  0  0.105896  0.115864  0  1.023144  0
H  H36  1  0.46059111  0.89052506  0.49852081  1  0  0.107627  0  0.961632  0  0  0.117584  0  1.023303  0  0  0.120016  0  1.023661  0  0  0.105884  0.115862  0  1.023154  0
H  H37  1  0.03940968  0.39052544  0.00148034  1  0  0.107603  0  0.961632  0  0  0.117556  0  1.02331  0  0  0.119987  0  1.023669  0  0  0.105857  0.115835  0  1.02316  0
C  C38  1  0.80831463  0.23921966  0.07502235  1  0  -0.06645  0  3.458219  0  0  -0.057504  0  3.816885  0  0  -0.048182  0  3.819547  0  0  -0.042266  -0.064075  0  3.814751  0
C  C39  1  0.69168847  0.73921841  0.42497836  1  0  -0.06651  0  3.458235  0  0  -0.057569  0  3.816909  0  0  -0.048253  0  3.819572  0  0  -0.042268  -0.06414  0  3.814773  0
C  C40  1  0.19168943  0.76078136  0.92497825  1  0  -0.066555  0  3.458311  0  0  -0.057614  0  3.816982  0  0  -0.048301  0  3.819648  0  0  -0.042277  -0.064182  0  3.814843  0
C  C41  1  0.30831676  0.26077991  0.57502244  1  0  -0.066615  0  3.458287  0  0  -0.057681  0  3.816962  0  0  -0.048366  0  3.819624  0  0  -0.042345  -0.064248  0  3.814827  0
C  C42  1  0.88181889  0.88256916  0.20912938  1  0  -0.045275  0  3.455451  0  0  -0.031514  0  3.800269  0  0  -0.0237  0  3.807906  0  0  -0.031762  -0.036995  0  3.794862  0
C  C43  1  0.61817488  0.38256679  0.29086821  1  0  -0.045049  0  3.455405  0  0  -0.031259  0  3.800177  0  0  -0.023445  0  3.807813  0  0  -0.031707  -0.036739  0  3.794775  0
C  C44  1  0.11817471  0.11743364  0.79086944  1  0  -0.045279  0  3.455457  0  0  -0.031519  0  3.800284  0  0  -0.023711  0  3.807926  0  0  -0.031822  -0.037003  0  3.794877  0
C  C45  1  0.38181406  0.61742795  0.70912530  1  0  -0.045243  0  3.455656  0  0  -0.03146  0  3.800443  0  0  -0.023649  0  3.808077  0  0  -0.03176  -0.036942  0  3.795032  0
C  C46  1  0.50477902  0.08325150  0.28924374  1  0  0.098788  0  3.753944  0  0  0.109972  0  3.982159  0  0  0.113945  0  4.00379  0  0  0.012885  0.107435  0  3.967465  0
C  C47  1  0.99522178  0.58325118  0.21075811  1  0  0.098843  0  3.753843  0  0  0.110011  0  3.982095  0  0  0.113986  0  4.003726  0  0  0.012929  0.107475  0  3.967399  0
C  C48  1  0.49522271  0.91674861  0.71075646  1  0  0.098799  0  3.753941  0  0  0.109976  0  3.982175  0  0  0.113951  0  4.003807  0  0  0.012925  0.107437  0  3.967478  0
C  C49  1  0.00477647  0.41674894  0.78924376  1  0  0.098795  0  3.753907  0  0  0.109989  0  3.982117  0  0  0.113964  0  4.003748  0  0  0.012917  0.107451  0  3.967418  0
C  C50  1  0.50861320  0.02647365  0.19550503  1  0  -0.167704  0  3.715835  0  0  -0.184134  0  3.964049  0  0  -0.191039  0  3.98291  0  0  -0.084282  -0.179745  0  3.951381  0
C  C51  1  0.99138878  0.52647330  0.30449702  1  0  -0.16773  0  3.71591  0  0  -0.184153  0  3.964127  0  0  -0.191059  0  3.982988  0  0  -0.084265  -0.179766  0  3.951466  0
C  C52  1  0.49138854  0.97352737  0.80449592  1  0  -0.167724  0  3.715855  0  0  -0.184146  0  3.964077  0  0  -0.191049  0  3.982932  0  0  -0.084267  -0.179757  0  3.951406  0
C  C53  1  0.00861180  0.47352681  0.69550449  1  0  -0.167716  0  3.715903  0  0  -0.184146  0  3.964112  0  0  -0.191048  0  3.982966  0  0  -0.084261  -0.17976  0  3.951448  0
C  C54  1  0.37119251  0.01104412  0.11857577  1  0  0.135283  0  3.712435  0  0  0.107865  0  3.957163  0  0  0.114589  0  3.975815  0  0  0.047346  0.103556  0  3.944348  0
C  C55  1  0.12880952  0.51104468  0.38142640  1  0  0.13533  0  3.712418  0  0  0.107909  0  3.957143  0  0  0.114631  0  3.975795  0  0  0.047331  0.103599  0  3.944329  0
C  C56  1  0.62880922  0.98895599  0.88142593  1  0  0.135355  0  3.712444  0  0  0.107918  0  3.957182  0  0  0.11464  0  3.975834  0  0  0.047324  0.103606  0  3.944367  0
C  C57  1  0.87118989  0.48895543  0.61857416  1  0  0.135303  0  3.712487  0  0  0.107901  0  3.957183  0  0  0.114624  0  3.975836  0  0  0.047336  0.103588  0  3.944371  0
C  C58  1  0.22794728  0.10432595  0.21838050  1  0  0.126216  0  3.725676  0  0  0.097297  0  3.978376  0  0  0.104062  0  3.996736  0  0  0.045934  0.092897  0  3.965833  0
C  C59  1  0.27205473  0.60432652  0.28162091  1  0  0.126227  0  3.725647  0  0  0.097312  0  3.978342  0  0  0.104075  0  3.996701  0  0  0.045957  0.092912  0  3.965799  0
C  C60  1  0.77205213  0.89567417  0.78162006  1  0  0.126235  0  3.725662  0  0  0.097319  0  3.978362  0  0  0.104081  0  3.996723  0  0  0.045948  0.092917  0  3.965817  0
C  C61  1  0.72794817  0.39567359  0.71838100  1  0  0.126247  0  3.725606  0  0  0.097333  0  3.978309  0  0  0.104097  0  3.99667  0  0  0.045958  0.092932  0  3.965764  0
C  C62  1  0.35966193  0.12361017  0.29944943  1  0  -0.157147  0  3.6863  0  0  -0.173116  0  3.929901  0  0  -0.180731  0  3.95097  0  0  -0.079461  -0.168173  0  3.915773  0
C  C63  1  0.14034008  0.62360987  0.20055197  1  0  -0.15714  0  3.686196  0  0  -0.173099  0  3.929805  0  0  -0.180714  0  3.950872  0  0  -0.07943  -0.168153  0  3.915673  0
C  C64  1  0.64033981  0.87638995  0.70055077  1  0  -0.157137  0  3.686371  0  0  -0.173112  0  3.929979  0  0  -0.180726  0  3.951047  0  0  -0.079453  -0.168168  0  3.915847  0
C  C65  1  0.85966049  0.37639024  0.79944954  1  0  -0.157143  0  3.686354  0  0  -0.173128  0  3.929958  0  0  -0.180743  0  3.951025  0  0  -0.079452  -0.168183  0  3.915823  0
C  C66  1  0.64848962  0.10208929  0.37228054  1  0  0.086071  0  3.765722  0  0  0.099591  0  3.991576  0  0  0.102278  0  4.013346  0  0  0.007768  0.097928  0  3.976792  0
C  C67  1  0.85150885  0.60208811  0.12772091  1  0  0.08597  0  3.765701  0  0  0.099478  0  3.991604  0  0  0.102165  0  4.013373  0  0  0.007693  0.097816  0  3.976817  0
C  C68  1  0.35150862  0.89791262  0.62771907  1  0  0.085958  0  3.765665  0  0  0.099481  0  3.99154  0  0  0.102168  0  4.013309  0  0  0.007735  0.097821  0  3.976755  0
C  C69  1  0.14849056  0.39791380  0.87228040  1  0  0.085953  0  3.765625  0  0  0.099475  0  3.991499  0  0  0.10216  0  4.013269  0  0  0.007698  0.097813  0  3.97671  0
C  C70  1  0.79291822  0.11135221  0.34806101  1  0  -0.174043  0  3.759755  0  0  -0.190003  0  4.009073  0  0  -0.195688  0  4.027539  0  0  -0.090208  -0.186486  0  3.996848  0
C  C71  1  0.70708142  0.61135282  0.15194139  1  0  -0.174043  0  3.759709  0  0  -0.190031  0  4.009029  0  0  -0.195717  0  4.027495  0  0  -0.090242  -0.186514  0  3.996802  0
C  C72  1  0.20708003  0.88864790  0.65194086  1  0  -0.174061  0  3.759722  0  0  -0.190031  0  4.009031  0  0  -0.19572  0  4.027506  0  0  -0.090235  -0.186513  0  3.996798  0
C  C73  1  0.29292032  0.38864819  0.84805881  1  0  -0.173996  0  3.759686  0  0  -0.189965  0  4.008985  0  0  -0.195655  0  4.027464  0  0  -0.090199  -0.186447  0  3.996751  0
C  C74  1  0.92568345  0.13445886  0.42713026  1  0  0.127251  0  3.732145  0  0  0.100854  0  3.982835  0  0  0.106011  0  4.001258  0  0  0.041269  0.09757  0  3.970259  0
C  C75  1  0.57431618  0.63445770  0.07286912  1  0  0.127274  0  3.732093  0  0  0.100883  0  3.982768  0  0  0.10604  0  4.001191  0  0  0.041305  0.097599  0  3.97019  0
C  C76  1  0.07431480  0.86553857  0.57287236  1  0  0.127324  0  3.732073  0  0  0.100909  0  3.982768  0  0  0.106058  0  4.001197  0  0  0.041258  0.097625  0  3.97019  0
C  C77  1  0.42568556  0.36553793  0.92712732  1  0  0.127331  0  3.73218  0  0  0.100921  0  3.982851  0  0  0.10607  0  4.001282  0  0  0.041298  0.097637  0  3.970271  0
C  C78  1  0.78636202  0.13594963  0.55121069  1  0  0.12402  0  3.718142  0  0  0.096802  0  3.974212  0  0  0.102233  0  3.992636  0  0  0.042197  0.093318  0  3.961587  0
C  C79  1  0.71363832  0.63594837  0.94878967  1  0  0.124025  0  3.718257  0  0  0.096805  0  3.974331  0  0  0.102234  0  3.992754  0  0  0.042222  0.093319  0  3.961705  0
C  C80  1  0.21363389  0.86405228  0.44878928  1  0  0.123983  0  3.718163  0  0  0.096772  0  3.974241  0  0  0.102203  0  3.992661  0  0  0.042214  0.093284  0  3.961625  0
C  C81  1  0.28636691  0.36405174  0.05121037  1  0  0.123951  0  3.71819  0  0  0.096728  0  3.974262  0  0  0.102159  0  3.992682  0  0  0.042166  0.093239  0  3.961644  0
C  C82  1  0.64716354  0.11466007  0.47712203  1  0  -0.141751  0  3.684672  0  0  -0.161821  0  3.930476  0  0  -0.168434  0  3.952287  0  0  -0.080184  -0.15749  0  3.915797  0
C  C83  1  0.85283609  0.61465980  0.02287886  1  0  -0.1417  0  3.684772  0  0  -0.161768  0  3.930553  0  0  -0.168381  0  3.952366  0  0  -0.08017  -0.157436  0  3.915875  0
C  C84  1  0.35283354  0.88534453  0.52287738  1  0  -0.141599  0  3.684698  0  0  -0.161696  0  3.930514  0  0  -0.168308  0  3.952325  0  0  -0.080157  -0.157372  0  3.91582  0
C  C85  1  0.14716681  0.38534480  0.97712304  1  0  -0.141556  0  3.684682  0  0  -0.161656  0  3.930501  0  0  -0.168269  0  3.952315  0  0  -0.080104  -0.157332  0  3.915806  0
N  N86  1  0.88240318  0.18232884  0.03082651  1  0  -0.447683  0  3.05528  0  0  -0.3814  0  3.332092  0  0  -0.402014  0  3.346079  0  0  -0.380392  -0.36716  0  3.322238  0
N  N87  1  0.61759993  0.68232849  0.46917345  1  0  -0.447651  0  3.055278  0  0  -0.381364  0  3.332085  0  0  -0.401978  0  3.346073  0  0  -0.380408  -0.367126  0  3.322232  0
N  N88  1  0.11760205  0.81767038  0.96917278  1  0  -0.44762  0  3.055357  0  0  -0.381334  0  3.332164  0  0  -0.40195  0  3.346156  0  0  -0.380404  -0.3671  0  3.322311  0
N  N89  1  0.38240180  0.31766984  0.53082675  1  0  -0.447547  0  3.055367  0  0  -0.381256  0  3.33217  0  0  -0.401869  0  3.346158  0  0  -0.380319  -0.367022  0  3.322318  0
N  N90  1  0.90965503  0.91801085  0.13282888  1  0  -0.442647  0  3.059255  0  0  -0.372872  0  3.333802  0  0  -0.395871  0  3.35075  0  0  -0.382878  -0.357169  0  3.32208  0
N  N91  1  0.59034455  0.41800936  0.36716668  1  0  -0.442825  0  3.059315  0  0  -0.373072  0  3.333877  0  0  -0.396067  0  3.35082  0  0  -0.382948  -0.357367  0  3.32216  0
N  N92  1  0.09034438  0.08199106  0.86716866  1  0  -0.442646  0  3.059195  0  0  -0.372871  0  3.333732  0  0  -0.395867  0  3.350683  0  0  -0.382846  -0.357169  0  3.322008  0
N  N93  1  0.40965369  0.58198807  0.63282616  1  0  -0.442658  0  3.059577  0  0  -0.3729  0  3.334113  0  0  -0.395897  0  3.351065  0  0  -0.382874  -0.357196  0  3.322393  0
N  N94  1  0.23262897  0.04860499  0.12944796  1  0  -0.318588  0  3.243682  0  0  -0.248378  0  3.51041  0  0  -0.266237  0  3.528122  0  0  -0.324072  -0.236125  0  3.498017  0
N  N95  1  0.26737189  0.54860465  0.37055401  1  0  -0.318617  0  3.243671  0  0  -0.248405  0  3.510395  0  0  -0.26626  0  3.528105  0  0  -0.324096  -0.236152  0  3.498004  0
N  N96  1  0.76737160  0.95139512  0.87055355  1  0  -0.318635  0  3.243672  0  0  -0.248421  0  3.510405  0  0  -0.266276  0  3.528112  0  0  -0.324086  -0.236168  0  3.498012  0
N  N97  1  0.73262752  0.45139457  0.62944655  1  0  -0.318623  0  3.243657  0  0  -0.24842  0  3.510373  0  0  -0.266278  0  3.528085  0  0  -0.324092  -0.236168  0  3.497982  0
N  N98  1  0.92376927  0.14665402  0.52725032  1  0  -0.289346  0  3.227065  0  0  -0.228248  0  3.50522  0  0  -0.2417  0  3.520439  0  0  -0.331353  -0.219085  0  3.494627  0
N  N99  1  0.57623223  0.64665367  0.97274948  1  0  -0.289317  0  3.227067  0  0  -0.228209  0  3.505208  0  0  -0.24166  0  3.520425  0  0  -0.331353  -0.219046  0  3.494615  0
N  N100  1  0.07622898  0.85334520  0.47275004  1  0  -0.289413  0  3.227053  0  0  -0.228325  0  3.505238  0  0  -0.241776  0  3.520456  0  0  -0.331387  -0.219164  0  3.494652  0
N  N101  1  0.42377182  0.35334465  0.02724886  1  0  -0.289439  0  3.227167  0  0  -0.228317  0  3.505305  0  0  -0.241767  0  3.520524  0  0  -0.331402  -0.219156  0  3.494715  0
