# generated using pymatgen
data_ErH15C11O6
_symmetry_space_group_name_H-M   'P 1'
_cell_length_a   8.12062500
_cell_length_b   10.71410026
_cell_length_c   14.75185272
_cell_angle_alpha   90.00033010
_cell_angle_beta   90.00008683
_cell_angle_gamma   90.00029479
_symmetry_Int_Tables_number   1
_chemical_formula_structural   ErH15C11O6
_chemical_formula_sum   'Er4 H60 C44 O24'
_cell_volume   1283.48775487
_cell_formula_units_Z   4
loop_
 _symmetry_equiv_pos_site_id
 _symmetry_equiv_pos_as_xyz
  1  'x, y, z'
loop_
 _atom_site_type_symbol
 _atom_site_label
 _atom_site_symmetry_multiplicity
 _atom_site_fract_x
 _atom_site_fract_y
 _atom_site_fract_z
 _atom_site_occupancy
 _atom_site_hle17_bader_spin_density
 _atom_site_hle17_ddec_charge
 _atom_site_hle17_ddec_spin_density
 _atom_site_hle17_ddec_sum_bond_order
 _atom_site_hle17_magmom
 _atom_site_hse06_10hf_bader_spin_density
 _atom_site_hse06_10hf_ddec_charge
 _atom_site_hse06_10hf_ddec_spin_density
 _atom_site_hse06_10hf_ddec_sum_bond_order
 _atom_site_hse06_10hf_magmom
 _atom_site_hse06_bader_spin_density
 _atom_site_hse06_ddec_charge
 _atom_site_hse06_ddec_spin_density
 _atom_site_hse06_ddec_sum_bond_order
 _atom_site_hse06_magmom
 _atom_site_pbe_bader_spin_density
 _atom_site_pbe_cm5_charge
 _atom_site_pbe_ddec_charge
 _atom_site_pbe_ddec_spin_density
 _atom_site_pbe_ddec_sum_bond_order
 _atom_site_pbe_magmom
Er  Er0  1  0.57722419  0.20060138  0.50162782  1  0  2.26381  0  1.711543  0  0  2.127512  0  2.190336  0  0  2.254084  0  2.005992  0  0  1.551486  2.089354  0  2.225054  0
Er  Er1  1  0.92275930  0.79939976  0.00162219  1  0  2.263903  0  1.71169  0  0  2.127713  0  2.190302  0  0  2.254167  0  2.006144  0  0  1.551446  2.089577  0  2.224941  0
Er  Er2  1  0.07722852  0.29940198  0.49837941  1  0  2.263924  0  1.711747  0  0  2.127654  0  2.190514  0  0  2.25422  0  2.006189  0  0  1.551534  2.089536  0  2.225135  0
Er  Er3  1  0.42275941  0.70059371  0.99837861  1  0  2.263881  0  1.71157  0  0  2.12763  0  2.19026  0  0  2.254143  0  2.006012  0  0  1.551507  2.089527  0  2.224932  0
H  H4  1  0.73168830  0.82456649  0.30309006  1  0  0.089283  0  0.922349  0  0  0.101157  0  0.977676  0  0  0.103321  0  0.976687  0  0  0.104378  0.099815  0  0.978025  0
H  H5  1  0.76832064  0.17543144  0.80309914  1  0  0.089321  0  0.922381  0  0  0.10117  0  0.977743  0  0  0.10333  0  0.976758  0  0  0.104381  0.099827  0  0.978088  0
H  H6  1  0.23168617  0.67543184  0.69690516  1  0  0.089295  0  0.922424  0  0  0.101155  0  0.977768  0  0  0.103314  0  0.976783  0  0  0.104372  0.099811  0  0.978118  0
H  H7  1  0.26832186  0.32457358  0.19690623  1  0  0.089297  0  0.922409  0  0  0.101136  0  0.977776  0  0  0.1033  0  0.976786  0  0  0.104377  0.099793  0  0.97813  0
H  H8  1  0.40869669  0.70387524  0.26900785  1  0  0.082641  0  0.938596  0  0  0.100199  0  0.995686  0  0  0.102361  0  0.994525  0  0  0.093403  0.098773  0  0.996306  0
H  H9  1  0.09130539  0.29613542  0.76901254  1  0  0.082553  0  0.938509  0  0  0.100132  0  0.995612  0  0  0.10229  0  0.994447  0  0  0.093374  0.098697  0  0.996236  0
H  H10  1  0.90869733  0.79611724  0.73098413  1  0  0.082566  0  0.938571  0  0  0.100205  0  0.995574  0  0  0.102359  0  0.994413  0  0  0.093386  0.098759  0  0.996218  0
H  H11  1  0.59130772  0.20387546  0.23099132  1  0  0.082628  0  0.938568  0  0  0.100202  0  0.995659  0  0  0.102362  0  0.9945  0  0  0.093398  0.098769  0  0.996284  0
H  H12  1  0.46867530  0.80433772  0.35797793  1  0  0.06984  0  0.946579  0  0  0.087318  0  1.009339  0  0  0.088269  0  1.009469  0  0  0.090347  0.086617  0  1.009275  0
H  H13  1  0.03133318  0.19567085  0.85798079  1  0  0.069849  0  0.946532  0  0  0.087337  0  1.009325  0  0  0.088286  0  1.009448  0  0  0.090363  0.086636  0  1.009243  0
H  H14  1  0.96868609  0.69565966  0.64201478  1  0  0.06988  0  0.946513  0  0  0.087359  0  1.009319  0  0  0.08831  0  1.009441  0  0  0.090343  0.086652  0  1.009257  0
H  H15  1  0.53133472  0.30433886  0.14202234  1  0  0.069798  0  0.946537  0  0  0.08728  0  1.009328  0  0  0.08823  0  1.009461  0  0  0.090333  0.086584  0  1.009246  0
H  H16  1  0.44852609  0.61829814  0.44717514  1  0  0.071641  0  0.957915  0  0  0.089243  0  1.022373  0  0  0.089666  0  1.023059  0  0  0.09044  0.089005  0  1.021661  0
H  H17  1  0.05146170  0.38170553  0.94718286  1  0  0.071574  0  0.957978  0  0  0.089265  0  1.022349  0  0  0.08969  0  1.023038  0  0  0.090441  0.089028  0  1.021626  0
H  H18  1  0.94853914  0.88169636  0.55281687  1  0  0.071553  0  0.957831  0  0  0.089231  0  1.022247  0  0  0.089655  0  1.022934  0  0  0.090423  0.08899  0  1.021529  0
H  H19  1  0.55147404  0.11830612  0.05282164  1  0  0.071681  0  0.957879  0  0  0.089293  0  1.022352  0  0  0.089717  0  1.023033  0  0  0.090456  0.089052  0  1.021629  0
H  H20  1  0.47572427  0.52136761  0.35235974  1  0  0.074671  0  0.938224  0  0  0.091721  0  0.997051  0  0  0.093126  0  0.996352  0  0  0.091903  0.090765  0  0.997363  0
H  H21  1  0.02426449  0.47863625  0.85236920  1  0  0.074723  0  0.938024  0  0  0.091703  0  0.996938  0  0  0.093111  0  0.996242  0  0  0.091866  0.090747  0  0.997247  0
H  H22  1  0.97572963  0.97862606  0.64763433  1  0  0.074691  0  0.937951  0  0  0.091779  0  0.996789  0  0  0.093185  0  0.996089  0  0  0.091886  0.090811  0  0.997107  0
H  H23  1  0.52427889  0.02137250  0.14763325  1  0  0.074637  0  0.93805  0  0  0.091725  0  0.99687  0  0  0.093126  0  0.996178  0  0  0.091888  0.090763  0  0.997183  0
H  H24  1  0.69141042  0.67281966  0.54079140  1  0  0.097734  0  0.950527  0  0  0.121158  0  1.010788  0  0  0.122276  0  1.010998  0  0  0.088316  0.120375  0  1.010555  0
H  H25  1  0.80858180  0.32717992  0.04079386  1  0  0.09778  0  0.950585  0  0  0.12123  0  1.010788  0  0  0.12235  0  1.010998  0  0  0.088355  0.120446  0  1.010547  0
H  H26  1  0.19142223  0.82719158  0.45920176  1  0  0.097742  0  0.950498  0  0  0.121194  0  1.010725  0  0  0.122313  0  1.010935  0  0  0.088364  0.120411  0  1.010489  0
H  H27  1  0.30859638  0.17281966  0.95920407  1  0  0.097831  0  0.950392  0  0  0.121305  0  1.010582  0  0  0.122427  0  1.010787  0  0  0.088393  0.120514  0  1.010342  0
H  H28  1  0.72440077  0.78852766  0.45688626  1  0  0.117784  0  0.966524  0  0  0.137561  0  1.030481  0  0  0.139781  0  1.029688  0  0  0.092576  0.136019  0  1.03101  0
H  H29  1  0.77559874  0.21146589  0.95689074  1  0  0.117854  0  0.966465  0  0  0.137607  0  1.03043  0  0  0.139838  0  1.029625  0  0  0.092585  0.136045  0  1.030965  0
H  H30  1  0.22441448  0.71147344  0.54310150  1  0  0.11784  0  0.966464  0  0  0.137606  0  1.030437  0  0  0.139825  0  1.029647  0  0  0.092593  0.136046  0  1.030979  0
H  H31  1  0.27560299  0.28853076  0.04310920  1  0  0.117943  0  0.966512  0  0  0.137666  0  1.030518  0  0  0.139887  0  1.029727  0  0  0.092612  0.136102  0  1.031055  0
H  H32  1  0.88877083  0.68768530  0.49055917  1  0  0.11023  0  0.960594  0  0  0.130961  0  1.022122  0  0  0.132307  0  1.022513  0  0  0.093933  0.130052  0  1.021674  0
H  H33  1  0.61122262  0.31230852  0.99056259  1  0  0.11022  0  0.960556  0  0  0.130939  0  1.022101  0  0  0.132283  0  1.022496  0  0  0.093911  0.130028  0  1.021649  0
H  H34  1  0.38878390  0.81232483  0.50943482  1  0  0.110133  0  0.960664  0  0  0.130863  0  1.022209  0  0  0.132208  0  1.022599  0  0  0.0939  0.129951  0  1.021771  0
H  H35  1  0.11123224  0.18768563  0.00943586  1  0  0.110282  0  0.960548  0  0  0.130981  0  1.022126  0  0  0.132327  0  1.022517  0  0  0.093933  0.130065  0  1.021667  0
H  H36  1  0.81179920  0.53504113  0.17731071  1  0  0.095618  0  0.966394  0  0  0.116076  0  1.032971  0  0  0.117572  0  1.032805  0  0  0.087439  0.115038  0  1.032993  0
H  H37  1  0.68821310  0.46495300  0.67731551  1  0  0.095577  0  0.966219  0  0  0.115984  0  1.032891  0  0  0.117484  0  1.032725  0  0  0.087395  0.114968  0  1.03289  0
H  H38  1  0.31180063  0.96495097  0.82268661  1  0  0.095608  0  0.966365  0  0  0.11606  0  1.032972  0  0  0.117554  0  1.032807  0  0  0.08745  0.115005  0  1.033011  0
H  H39  1  0.18821268  0.03504892  0.32268369  1  0  0.095545  0  0.966213  0  0  0.115942  0  1.032908  0  0  0.11744  0  1.032743  0  0  0.08739  0.114919  0  1.032914  0
H  H40  1  0.63903161  0.48216400  0.23900041  1  0  0.110978  0  0.94933  0  0  0.13434  0  1.005692  0  0  0.135957  0  1.005701  0  0  0.092554  0.133218  0  1.005532  0
H  H41  1  0.86098085  0.51782409  0.73900963  1  0  0.110949  0  0.949329  0  0  0.134321  0  1.005662  0  0  0.135938  0  1.005672  0  0  0.09255  0.1332  0  1.005503  0
H  H42  1  0.13903474  0.01782747  0.76099332  1  0  0.110934  0  0.949421  0  0  0.134285  0  1.00577  0  0  0.135901  0  1.005778  0  0  0.092535  0.133161  0  1.005605  0
H  H43  1  0.36098086  0.98217847  0.26099112  1  0  0.110947  0  0.949345  0  0  0.134314  0  1.005684  0  0  0.135929  0  1.005695  0  0  0.092552  0.133196  0  1.005521  0
H  H44  1  0.84091127  0.43421088  0.27121058  1  0  0.111725  0  0.948169  0  0  0.13373  0  1.007761  0  0  0.135638  0  1.007381  0  0  0.093512  0.132458  0  1.007839  0
H  H45  1  0.65910005  0.56578586  0.77121577  1  0  0.111642  0  0.948135  0  0  0.133648  0  1.007736  0  0  0.13556  0  1.007351  0  0  0.093481  0.132354  0  1.007848  0
H  H46  1  0.34091710  0.06578229  0.72878738  1  0  0.111713  0  0.948259  0  0  0.133731  0  1.007823  0  0  0.135635  0  1.007447  0  0  0.093523  0.132455  0  1.007899  0
H  H47  1  0.15910087  0.93421685  0.22878210  1  0  0.11163  0  0.94816  0  0  0.133629  0  1.007761  0  0  0.13554  0  1.007375  0  0  0.093448  0.132327  0  1.007868  0
H  H48  1  0.01047602  0.68859451  0.24351526  1  0  0.102747  0  0.967677  0  0  0.121685  0  1.0343  0  0  0.123455  0  1.033981  0  0  0.086312  0.120518  0  1.034391  0
H  H49  1  0.48953337  0.31139822  0.74351357  1  0  0.102746  0  0.967661  0  0  0.121666  0  1.034303  0  0  0.123436  0  1.033982  0  0  0.08629  0.120505  0  1.034379  0
H  H50  1  0.51047561  0.81139643  0.75648316  1  0  0.10277  0  0.967641  0  0  0.121671  0  1.03431  0  0  0.123441  0  1.033988  0  0  0.086298  0.120511  0  1.034397  0
H  H51  1  0.98953321  0.18859833  0.25648114  1  0  0.102796  0  0.967681  0  0  0.121717  0  1.034305  0  0  0.123488  0  1.033984  0  0  0.086323  0.120551  0  1.03439  0
H  H52  1  0.04379960  0.58735266  0.33795676  1  0  0.117884  0  0.947579  0  0  0.138125  0  1.006662  0  0  0.14056  0  1.005605  0  0  0.092599  0.136431  0  1.007404  0
H  H53  1  0.45619774  0.41263802  0.83795207  1  0  0.11784  0  0.947704  0  0  0.138085  0  1.00678  0  0  0.140519  0  1.005723  0  0  0.09257  0.136387  0  1.007532  0
H  H54  1  0.54380700  0.91263561  0.66204372  1  0  0.117797  0  0.947806  0  0  0.138091  0  1.006826  0  0  0.140524  0  1.005772  0  0  0.092582  0.1364  0  1.007569  0
H  H55  1  0.95620894  0.08736120  0.16204125  1  0  0.117848  0  0.947718  0  0  0.138065  0  1.006836  0  0  0.1405  0  1.005778  0  0  0.092562  0.136371  0  1.007563  0
H  H56  1  0.98816467  0.74616023  0.35509025  1  0  0.091091  0  0.969792  0  0  0.112376  0  1.035738  0  0  0.113363  0  1.036051  0  0  0.083129  0.111637  0  1.03554  0
H  H57  1  0.51183334  0.25383251  0.85508656  1  0  0.091162  0  0.969872  0  0  0.112448  0  1.035798  0  0  0.113435  0  1.03611  0  0  0.083178  0.11171  0  1.035595  0
H  H58  1  0.48816786  0.75383255  0.64490993  1  0  0.091186  0  0.969988  0  0  0.112473  0  1.035903  0  0  0.113462  0  1.036213  0  0  0.083185  0.111736  0  1.035708  0
H  H59  1  0.01184126  0.24616406  0.14491045  1  0  0.091198  0  0.969881  0  0  0.112491  0  1.035777  0  0  0.113479  0  1.036089  0  0  0.083163  0.111753  0  1.035578  0
H  H60  1  0.93868942  0.01350241  0.39366216  1  0  0.034481  0  0.899742  0  0  0.04562  0  0.962215  0  0  0.046671  0  0.957152  0  0  0.129077  0.044982  0  0.965371  0
H  H61  1  0.56130500  0.98650277  0.89365683  1  0  0.034436  0  0.899856  0  0  0.045524  0  0.962389  0  0  0.04657  0  0.957329  0  0  0.129068  0.044903  0  0.965538  0
H  H62  1  0.43868055  0.48651541  0.60633385  1  0  0.034429  0  0.899782  0  0  0.045574  0  0.962252  0  0  0.046629  0  0.957187  0  0  0.1291  0.044945  0  0.965414  0
H  H63  1  0.06128290  0.51351263  0.10635384  1  0  0.034503  0  0.899733  0  0  0.045571  0  0.962288  0  0  0.046621  0  0.957224  0  0  0.129103  0.044938  0  0.96546  0
C  C64  1  0.70582266  0.59724397  0.40400165  1  0  -0.026484  0  3.526982  0  0  0.000553  0  3.749755  0  0  -0.005066  0  3.765998  0  0  -0.010852  0.004646  0  3.737575  0
C  C65  1  0.79417056  0.40275476  0.90400762  1  0  -0.026758  0  3.52729  0  0  0.000312  0  3.75003  0  0  -0.005311  0  3.766278  0  0  -0.010851  0.004412  0  3.73786  0
C  C66  1  0.20583043  0.90275706  0.59599762  1  0  -0.026887  0  3.527639  0  0  0.000197  0  3.750439  0  0  -0.005428  0  3.766694  0  0  -0.010853  0.00429  0  3.738234  0
C  C67  1  0.29418102  0.09725130  0.09599437  1  0  -0.026515  0  3.526887  0  0  0.000601  0  3.749665  0  0  -0.00502  0  3.765913  0  0  -0.010877  0.004685  0  3.737453  0
C  C68  1  0.78620560  0.62651359  0.30899266  1  0  0.18402  0  3.454369  0  0  0.211051  0  3.683463  0  0  0.21215  0  3.703343  0  0  0.001415  0.210493  0  3.669283  0
C  C69  1  0.71379597  0.37348159  0.80899506  1  0  0.184161  0  3.454235  0  0  0.211199  0  3.68329  0  0  0.212305  0  3.703166  0  0  0.001442  0.210633  0  3.66913  0
C  C70  1  0.28620728  0.87347935  0.69100668  1  0  0.184361  0  3.453958  0  0  0.21131  0  3.683142  0  0  0.21242  0  3.703012  0  0  0.001472  0.210744  0  3.668962  0
C  C71  1  0.21379705  0.12651856  0.19100823  1  0  0.184139  0  3.454119  0  0  0.211083  0  3.683329  0  0  0.212194  0  3.703204  0  0  0.001487  0.210532  0  3.669135  0
C  C72  1  0.67433032  0.73880359  0.27702872  1  0  -0.187995  0  3.548612  0  0  -0.188679  0  3.772271  0  0  -0.195719  0  3.784182  0  0  -0.083089  -0.183559  0  3.762769  0
C  C73  1  0.82567855  0.26119227  0.77703346  1  0  -0.188007  0  3.548945  0  0  -0.18873  0  3.772466  0  0  -0.195776  0  3.784373  0  0  -0.083116  -0.183603  0  3.762959  0
C  C74  1  0.17433008  0.76119172  0.72296712  1  0  -0.187988  0  3.548808  0  0  -0.188705  0  3.772397  0  0  -0.195747  0  3.784304  0  0  -0.083091  -0.183564  0  3.762879  0
C  C75  1  0.32568049  0.23880925  0.22296653  1  0  -0.187939  0  3.548633  0  0  -0.188581  0  3.7722  0  0  -0.195623  0  3.784113  0  0  -0.083119  -0.183472  0  3.762716  0
C  C76  1  0.50339027  0.71967350  0.32070109  1  0  -0.111391  0  3.633746  0  0  -0.158346  0  3.892752  0  0  -0.158192  0  3.904053  0  0  -0.167774  -0.158116  0  3.884322  0
C  C77  1  0.99660764  0.28032924  0.82070673  1  0  -0.111197  0  3.633742  0  0  -0.15824  0  3.892861  0  0  -0.15806  0  3.904144  0  0  -0.167742  -0.158  0  3.884382  0
C  C78  1  0.00339004  0.78031834  0.67929055  1  0  -0.111262  0  3.633623  0  0  -0.158311  0  3.892731  0  0  -0.158135  0  3.904008  0  0  -0.167708  -0.158069  0  3.884281  0
C  C79  1  0.49661179  0.21967481  0.17929882  1  0  -0.11128  0  3.633727  0  0  -0.158279  0  3.892844  0  0  -0.158123  0  3.904148  0  0  -0.167711  -0.158046  0  3.884385  0
C  C80  1  0.52014853  0.60728824  0.38473486  1  0  -0.139936  0  3.646286  0  0  -0.187009  0  3.902952  0  0  -0.186858  0  3.915049  0  0  -0.166872  -0.18674  0  3.893873  0
C  C81  1  0.97984586  0.39271314  0.88474163  1  0  -0.139979  0  3.646302  0  0  -0.187053  0  3.902973  0  0  -0.186929  0  3.915094  0  0  -0.166907  -0.186781  0  3.893878  0
C  C82  1  0.02016122  0.89270460  0.61526019  1  0  -0.139862  0  3.646169  0  0  -0.187075  0  3.90299  0  0  -0.186934  0  3.915089  0  0  -0.166887  -0.186789  0  3.893883  0
C  C83  1  0.47985645  0.10729364  0.11526188  1  0  -0.140028  0  3.646138  0  0  -0.187173  0  3.902919  0  0  -0.187022  0  3.915018  0  0  -0.166941  -0.18689  0  3.893809  0
C  C84  1  0.75592680  0.47127284  0.44280738  1  0  0.740357  0  3.762987  0  0  0.699885  0  4.046376  0  0  0.735297  0  4.040191  0  0  0.249022  0.676034  0  4.053295  0
C  C85  1  0.74404436  0.52871780  0.94281113  1  0  0.740888  0  3.763051  0  0  0.700385  0  4.046463  0  0  0.735812  0  4.040241  0  0  0.249311  0.676498  0  4.053452  0
C  C86  1  0.25594175  0.02871907  0.55719323  1  0  0.740601  0  3.763173  0  0  0.700162  0  4.046468  0  0  0.735551  0  4.040318  0  0  0.249082  0.676326  0  4.053363  0
C  C87  1  0.24407329  0.97127591  0.05718885  1  0  0.74057  0  3.762722  0  0  0.699964  0  4.046343  0  0  0.735367  0  4.040161  0  0  0.248967  0.676113  0  4.053257  0
C  C88  1  0.75632659  0.69291455  0.47701439  1  0  -0.320408  0  3.64717  0  0  -0.403328  0  3.884929  0  0  -0.405766  0  3.894948  0  0  -0.239061  -0.401177  0  3.877415  0
C  C89  1  0.74366806  0.30708196  0.97701857  1  0  -0.320507  0  3.647298  0  0  -0.40341  0  3.88503  0  0  -0.405855  0  3.895043  0  0  -0.2391  -0.401236  0  3.877501  0
C  C90  1  0.25633597  0.80708948  0.52298221  1  0  -0.32031  0  3.647299  0  0  -0.403228  0  3.885016  0  0  -0.40566  0  3.895033  0  0  -0.239063  -0.401059  0  3.87751  0
C  C91  1  0.24367898  0.19291457  0.02298338  1  0  -0.320807  0  3.647307  0  0  -0.403708  0  3.885072  0  0  -0.406147  0  3.895085  0  0  -0.239212  -0.401531  0  3.877536  0
C  C92  1  0.76735436  0.51289107  0.24588576  1  0  -0.347376  0  3.649294  0  0  -0.429782  0  3.887976  0  0  -0.433089  0  3.89763  0  0  -0.244262  -0.427029  0  3.880464  0
C  C93  1  0.73265689  0.48710081  0.74589069  1  0  -0.347186  0  3.649153  0  0  -0.429563  0  3.88789  0  0  -0.432883  0  3.897546  0  0  -0.244165  -0.426811  0  3.880396  0
C  C94  1  0.26735945  0.98710366  0.75411084  1  0  -0.347286  0  3.64939  0  0  -0.429677  0  3.888096  0  0  -0.432982  0  3.897749  0  0  -0.244255  -0.426916  0  3.880592  0
C  C95  1  0.23265859  0.01290035  0.25410719  1  0  -0.347134  0  3.649188  0  0  -0.429487  0  3.887966  0  0  -0.432801  0  3.897622  0  0  -0.244152  -0.426731  0  3.880455  0
C  C96  1  0.96792697  0.66412420  0.31191109  1  0  -0.342684  0  3.672868  0  0  -0.425677  0  3.911786  0  0  -0.428586  0  3.921282  0  0  -0.247847  -0.423266  0  3.904454  0
C  C97  1  0.53206722  0.33586727  0.81190776  1  0  -0.342736  0  3.672862  0  0  -0.425717  0  3.911762  0  0  -0.428625  0  3.921252  0  0  -0.247842  -0.423304  0  3.904433  0
C  C98  1  0.46793577  0.83586664  0.68808772  1  0  -0.342815  0  3.673081  0  0  -0.425783  0  3.911977  0  0  -0.428691  0  3.921466  0  0  -0.247878  -0.423376  0  3.904656  0
C  C99  1  0.03206855  0.16413218  0.18808656  1  0  -0.342816  0  3.672888  0  0  -0.425752  0  3.911796  0  0  -0.428665  0  3.921285  0  0  -0.247868  -0.423349  0  3.904452  0
C  C100  1  0.67428465  0.75061379  0.17508088  1  0  0.772396  0  3.776518  0  0  0.729306  0  4.068934  0  0  0.765393  0  4.061577  0  0  0.246632  0.705084  0  4.076593  0
C  C101  1  0.82571532  0.24937939  0.67509302  1  0  0.772108  0  3.777516  0  0  0.729406  0  4.069327  0  0  0.765493  0  4.061969  0  0  0.246733  0.705148  0  4.077036  0
C  C102  1  0.17428708  0.74937592  0.82490752  1  0  0.772024  0  3.777332  0  0  0.729251  0  4.069256  0  0  0.765335  0  4.061899  0  0  0.2467  0.705007  0  4.076949  0
C  C103  1  0.32571022  0.25061652  0.32491578  1  0  0.772228  0  3.776758  0  0  0.729304  0  4.068925  0  0  0.76539  0  4.061574  0  0  0.246632  0.705062  0  4.07662  0
C  C104  1  0.83485650  0.06654084  0.42293177  1  0  0.612038  0  3.875184  0  0  0.544683  0  4.181193  0  0  0.577727  0  4.180851  0  0  0.157771  0.521754  0  4.188479  0
C  C105  1  0.66512814  0.93345804  0.92291952  1  0  0.612117  0  3.875082  0  0  0.544795  0  4.181068  0  0  0.577847  0  4.180703  0  0  0.157693  0.521842  0  4.188393  0
C  C106  1  0.33484473  0.43346257  0.57708381  1  0  0.612227  0  3.874858  0  0  0.544875  0  4.180841  0  0  0.577918  0  4.180498  0  0  0.15773  0.521929  0  4.188168  0
C  C107  1  0.16510756  0.56654936  0.07709123  1  0  0.612264  0  3.874382  0  0  0.544955  0  4.180345  0  0  0.578008  0  4.179986  0  0  0.157825  0.522008  0  4.187655  0
O  O108  1  0.64395122  0.40022526  0.47446287  1  0  -0.769375  0  2.074973  0  0  -0.72362  0  2.34546  0  0  -0.76241  0  2.331662  0  0  -0.413279  -0.704872  0  2.352582  0
O  O109  1  0.85602371  0.59976937  0.97447582  1  0  -0.769873  0  2.074937  0  0  -0.724119  0  2.345422  0  0  -0.762899  0  2.331619  0  0  -0.413522  -0.705385  0  2.352636  0
O  O110  1  0.14396904  0.09977183  0.52552748  1  0  -0.769558  0  2.074788  0  0  -0.723818  0  2.345263  0  0  -0.762604  0  2.331483  0  0  -0.413323  -0.705094  0  2.352396  0
O  O111  1  0.35603483  0.90022384  0.02553645  1  0  -0.769421  0  2.075039  0  0  -0.723628  0  2.345582  0  0  -0.762402  0  2.33179  0  0  -0.41326  -0.704911  0  2.35275  0
O  O112  1  0.90869574  0.44570591  0.44659539  1  0  -0.741098  0  2.057043  0  0  -0.691972  0  2.316228  0  0  -0.73037  0  2.300767  0  0  -0.413385  -0.673842  0  2.324402  0
O  O113  1  0.59129020  0.55428383  0.94658488  1  0  -0.741073  0  2.057241  0  0  -0.691928  0  2.316396  0  0  -0.730321  0  2.30094  0  0  -0.413318  -0.673783  0  2.324606  0
O  O114  1  0.40869239  0.05429966  0.55342840  1  0  -0.741093  0  2.057228  0  0  -0.692004  0  2.316438  0  0  -0.730393  0  2.300998  0  0  -0.413378  -0.673876  0  2.324617  0
O  O115  1  0.09129432  0.94571302  0.05340548  1  0  -0.741256  0  2.056889  0  0  -0.69205  0  2.316073  0  0  -0.730431  0  2.300621  0  0  -0.413305  -0.673892  0  2.324205  0
O  O116  1  0.80164688  0.79768363  0.13720579  1  0  -0.773825  0  2.000465  0  0  -0.728537  0  2.264199  0  0  -0.767329  0  2.246077  0  0  -0.423077  -0.710582  0  2.273104  0
O  O117  1  0.69836284  0.20233725  0.63721220  1  0  -0.773672  0  2.001152  0  0  -0.728503  0  2.264701  0  0  -0.767304  0  2.246561  0  0  -0.42306  -0.710539  0  2.273639  0
O  O118  1  0.30163431  0.70233923  0.86279153  1  0  -0.773677  0  2.001283  0  0  -0.728499  0  2.264876  0  0  -0.767291  0  2.246736  0  0  -0.423065  -0.710551  0  2.273816  0
O  O119  1  0.19834832  0.29768338  0.36279039  1  0  -0.773838  0  2.000609  0  0  -0.728568  0  2.264207  0  0  -0.767376  0  2.24607  0  0  -0.423084  -0.710614  0  2.27313  0
O  O120  1  0.55138505  0.71083962  0.13014673  1  0  -0.769948  0  2.060409  0  0  -0.721941  0  2.326584  0  0  -0.761883  0  2.310013  0  0  -0.418613  -0.703348  0  2.334626  0
O  O121  1  0.94864066  0.28913827  0.63015643  1  0  -0.769939  0  2.06045  0  0  -0.722068  0  2.32645  0  0  -0.76202  0  2.309868  0  0  -0.418777  -0.703452  0  2.334496  0
O  O122  1  0.05135462  0.78913561  0.86984767  1  0  -0.769869  0  2.060064  0  0  -0.721996  0  2.326108  0  0  -0.761933  0  2.309545  0  0  -0.418778  -0.703378  0  2.334145  0
O  O123  1  0.44860956  0.21084318  0.36985383  1  0  -0.769943  0  2.060487  0  0  -0.721955  0  2.326533  0  0  -0.761905  0  2.30996  0  0  -0.418608  -0.703338  0  2.334585  0
O  O124  1  0.69909093  0.01450454  0.43827748  1  0  -0.607638  0  1.967828  0  0  -0.560915  0  2.20518  0  0  -0.592574  0  2.19496  0  0  -0.345893  -0.544841  0  2.211144  0
O  O125  1  0.80091223  0.98550286  0.93826827  1  0  -0.6079  0  1.967483  0  0  -0.561172  0  2.204793  0  0  -0.592829  0  2.19457  0  0  -0.345946  -0.545086  0  2.210754  0
O  O126  1  0.19906839  0.48550115  0.56174003  1  0  -0.607906  0  1.967585  0  0  -0.561186  0  2.204928  0  0  -0.59285  0  2.194709  0  0  -0.345988  -0.545109  0  2.210903  0
O  O127  1  0.30089617  0.51449667  0.06173379  1  0  -0.607903  0  1.967067  0  0  -0.56116  0  2.204359  0  0  -0.592826  0  2.194137  0  0  -0.345962  -0.54508  0  2.210328  0
O  O128  1  0.85591565  0.18363805  0.44037119  1  0  -0.812823  0  2.170182  0  0  -0.754528  0  2.444109  0  0  -0.801178  0  2.431195  0  0  -0.442261  -0.735771  0  2.452097  0
O  O129  1  0.64407520  0.81636658  0.94035979  1  0  -0.81261  0  2.170209  0  0  -0.75433  0  2.444099  0  0  -0.800949  0  2.431177  0  0  -0.442099  -0.735585  0  2.452124  0
O  O130  1  0.35589318  0.31636919  0.55964035  1  0  -0.812669  0  2.169941  0  0  -0.754377  0  2.443863  0  0  -0.801021  0  2.43094  0  0  -0.442157  -0.735625  0  2.451872  0
O  O131  1  0.14408123  0.68364448  0.05963874  1  0  -0.81281  0  2.170098  0  0  -0.754546  0  2.444012  0  0  -0.801167  0  2.431087  0  0  -0.44225  -0.735797  0  2.452015  0
