# generated using pymatgen
data_H8PbC12N4(O4F)2
_symmetry_space_group_name_H-M   'P 1'
_cell_length_a   4.92864023
_cell_length_b   10.96739778
_cell_length_c   14.79226226
_cell_angle_alpha   99.29356859
_cell_angle_beta   95.34047971
_cell_angle_gamma   101.25799817
_symmetry_Int_Tables_number   1
_chemical_formula_structural   H8PbC12N4(O4F)2
_chemical_formula_sum   'H16 Pb2 C24 N8 O16 F4'
_cell_volume   767.46730500
_cell_formula_units_Z   2
loop_
 _symmetry_equiv_pos_site_id
 _symmetry_equiv_pos_as_xyz
  1  'x, y, z'
loop_
 _atom_site_type_symbol
 _atom_site_label
 _atom_site_symmetry_multiplicity
 _atom_site_fract_x
 _atom_site_fract_y
 _atom_site_fract_z
 _atom_site_occupancy
 _atom_site_hle17_bader_spin_density
 _atom_site_hle17_ddec_charge
 _atom_site_hle17_ddec_spin_density
 _atom_site_hle17_ddec_sum_bond_order
 _atom_site_hle17_magmom
 _atom_site_hse06_10hf_bader_spin_density
 _atom_site_hse06_10hf_ddec_charge
 _atom_site_hse06_10hf_ddec_spin_density
 _atom_site_hse06_10hf_ddec_sum_bond_order
 _atom_site_hse06_10hf_magmom
 _atom_site_hse06_bader_spin_density
 _atom_site_hse06_ddec_charge
 _atom_site_hse06_ddec_spin_density
 _atom_site_hse06_ddec_sum_bond_order
 _atom_site_hse06_magmom
 _atom_site_pbe_bader_spin_density
 _atom_site_pbe_cm5_charge
 _atom_site_pbe_ddec_charge
 _atom_site_pbe_ddec_spin_density
 _atom_site_pbe_ddec_sum_bond_order
 _atom_site_pbe_magmom
H  H0  1  0.27723843  0.49408794  0.95722488  1  0  0.329823  0  0.915922  0  0  0.305396  0  0.983603  0  0  0.315499  0  0.975521  0  0  0.310407  0.298242  0  0.989387  0
H  H1  1  0.72275100  0.50589962  0.04278005  1  0  0.330053  0  0.915803  0  0  0.305584  0  0.983565  0  0  0.315698  0  0.97547  0  0  0.310501  0.298426  0  0.98936  0
H  H2  1  0.16874900  0.03859867  0.44756083  1  0  0.336785  0  0.900858  0  0  0.314282  0  0.965634  0  0  0.324649  0  0.956582  0  0  0.315491  0.307036  0  0.97197  0
H  H3  1  0.83130657  0.96141343  0.55240373  1  0  0.336746  0  0.90086  0  0  0.31422  0  0.96566  0  0  0.324588  0  0.956623  0  0  0.315422  0.306983  0  0.971985  0
H  H4  1  0.84225887  0.82622282  0.79534601  1  0  0.11621  0  0.906671  0  0  0.130255  0  0.964263  0  0  0.131453  0  0.964133  0  0  0.120768  0.129359  0  0.964467  0
H  H5  1  0.15763636  0.17377226  0.20466713  1  0  0.116348  0  0.906586  0  0  0.130492  0  0.96415  0  0  0.131689  0  0.964024  0  0  0.120841  0.129606  0  0.964341  0
H  H6  1  0.67930950  0.66437949  0.78143569  1  0  0.138296  0  0.931053  0  0  0.144801  0  0.998547  0  0  0.148407  0  0.995624  0  0  0.125512  0.142179  0  1.000746  0
H  H7  1  0.32064220  0.33560996  0.21857915  1  0  0.137997  0  0.931153  0  0  0.144658  0  0.998581  0  0  0.148266  0  0.995669  0  0  0.125416  0.142036  0  1.000788  0
H  H8  1  0.28101415  0.90727450  0.88345160  1  0  0.13494  0  0.915452  0  0  0.139471  0  0.983283  0  0  0.143905  0  0.977445  0  0  0.132926  0.136252  0  0.98751  0
H  H9  1  0.71895686  0.09271304  0.11654467  1  0  0.134873  0  0.915571  0  0  0.139407  0  0.983353  0  0  0.143839  0  0.977524  0  0  0.132898  0.13619  0  0.98758  0
H  H10  1  0.63548365  0.60167364  0.23590037  1  0  0.138013  0  0.896122  0  0  0.152436  0  0.949345  0  0  0.154432  0  0.948227  0  0  0.128965  0.150945  0  0.950311  0
H  H11  1  0.36451903  0.39832054  0.76410102  1  0  0.138073  0  0.896085  0  0  0.152458  0  0.949304  0  0  0.154459  0  0.948174  0  0  0.128992  0.150964  0  0.950275  0
H  H12  1  0.46509974  0.68155441  0.31979279  1  0  0.121037  0  0.944473  0  0  0.123849  0  1.02084  0  0  0.126443  0  1.018913  0  0  0.116052  0.121939  0  1.022348  0
H  H13  1  0.53494239  0.31848514  0.68019559  1  0  0.121057  0  0.94455  0  0  0.123773  0  1.021022  0  0  0.126369  0  1.019107  0  0  0.115981  0.121865  0  1.022516  0
H  H14  1  0.99063203  0.71163944  0.17462915  1  0  0.149678  0  0.930375  0  0  0.153628  0  0.998056  0  0  0.157836  0  0.992646  0  0  0.137652  0.150424  0  1.002118  0
H  H15  1  0.00935197  0.28838493  0.82534824  1  0  0.149654  0  0.93047  0  0  0.153631  0  0.998105  0  0  0.157849  0  0.992675  0  0  0.137627  0.150402  0  1.002215  0
Pb  Pb16  1  0.38666290  0.67654836  0.54807108  1  0  1.412321  0  1.377183  0  0  1.235167  0  1.781334  0  0  1.294302  0  1.734048  0  0  0.665087  1.192083  0  1.814583  0
Pb  Pb17  1  0.61293586  0.32348257  0.45199894  1  0  1.412413  0  1.377406  0  0  1.23528  0  1.781574  0  0  1.29443  0  1.734257  0  0  0.665237  1.192213  0  1.814826  0
C  C18  1  0.01645564  0.70162323  0.69933254  1  0  0.701023  0  3.842793  0  0  0.651578  0  4.138042  0  0  0.686188  0  4.131326  0  0  0.219622  0.628015  0  4.141688  0
C  C19  1  0.98352499  0.29839275  0.30070797  1  0  0.700693  0  3.843578  0  0  0.651687  0  4.138265  0  0  0.686301  0  4.131566  0  0  0.219794  0.628128  0  4.141912  0
C  C20  1  0.88079760  0.73010101  0.78716164  1  0  -0.15971  0  3.61458  0  0  -0.224015  0  3.873502  0  0  -0.224021  0  3.879335  0  0  -0.055704  -0.223985  0  3.8697  0
C  C21  1  0.11913909  0.26989979  0.21286087  1  0  -0.159644  0  3.614703  0  0  -0.224502  0  3.873903  0  0  -0.224531  0  3.879785  0  0  -0.055865  -0.224482  0  3.870125  0
C  C22  1  0.05304822  0.59701818  0.88617754  1  0  0.679175  0  3.82511  0  0  0.607813  0  4.133926  0  0  0.642785  0  4.130407  0  0  0.337619  0.584326  0  4.135723  0
C  C23  1  0.94696603  0.40297032  0.11381879  1  0  0.679334  0  3.82509  0  0  0.607943  0  4.133889  0  0  0.642928  0  4.130359  0  0  0.337588  0.584473  0  4.135661  0
C  C24  1  0.50000137  0.68013232  0.98910185  1  0  0.520789  0  3.88981  0  0  0.463867  0  4.190045  0  0  0.495201  0  4.188019  0  0  0.230316  0.442877  0  4.190936  0
C  C25  1  0.50005708  0.31984671  0.01086560  1  0  0.521181  0  3.89012  0  0  0.464114  0  4.19047  0  0  0.495498  0  4.188376  0  0  0.23029  0.443119  0  4.191357  0
C  C26  1  0.49119910  0.80165042  0.96543329  1  0  0.073397  0  3.778223  0  0  0.0551  0  4.092658  0  0  0.051121  0  4.101931  0  0  0.073768  0.057053  0  4.086703  0
C  C27  1  0.50888374  0.19832008  0.03451765  1  0  0.07299  0  3.779007  0  0  0.054875  0  4.093202  0  0  0.050895  0  4.102469  0  0  0.073721  0.056837  0  4.087241  0
C  C28  1  0.28129014  0.81702403  0.90517892  1  0  0.039844  0  3.666793  0  0  -0.033198  0  3.959568  0  0  -0.016391  0  3.965938  0  0  0.045715  -0.044085  0  3.955172  0
C  C29  1  0.71873151  0.18295878  0.09480343  1  0  0.040042  0  3.667098  0  0  -0.032977  0  3.959619  0  0  -0.016169  0  3.965977  0  0  0.045816  -0.043864  0  3.955219  0
C  C30  1  0.78923022  0.59736528  0.37737363  1  0  0.699571  0  3.879661  0  0  0.643833  0  4.187639  0  0  0.67819  0  4.180483  0  0  0.220896  0.62043  0  4.191564  0
C  C31  1  0.21068762  0.40265160  0.62266037  1  0  0.699655  0  3.880486  0  0  0.643673  0  4.188723  0  0  0.678058  0  4.181508  0  0  0.220765  0.620265  0  4.19265  0
C  C32  1  0.66764660  0.66325468  0.30392766  1  0  -0.151672  0  3.573571  0  0  -0.211465  0  3.82512  0  0  -0.211038  0  3.83028  0  0  -0.054624  -0.211669  0  3.821664  0
C  C33  1  0.33237707  0.33674519  0.69607301  1  0  -0.151998  0  3.573799  0  0  -0.21141  0  3.825211  0  0  -0.210991  0  3.83035  0  0  -0.054625  -0.211615  0  3.82176  0
C  C34  1  0.91169133  0.87230733  0.38086255  1  0  0.683082  0  3.814251  0  0  0.60969  0  4.1188  0  0  0.644746  0  4.115643  0  0  0.347417  0.58622  0  4.120302  0
C  C35  1  0.08846691  0.12765766  0.61915153  1  0  0.683067  0  3.813806  0  0  0.61009  0  4.118065  0  0  0.645143  0  4.114897  0  0  0.347807  0.586635  0  4.119546  0
C  C36  1  0.31946634  0.98864321  0.32221090  1  0  0.512063  0  3.915546  0  0  0.458761  0  4.214926  0  0  0.489346  0  4.214249  0  0  0.225291  0.43825  0  4.215017  0
C  C37  1  0.68053808  0.01138588  0.67775211  1  0  0.511702  0  3.916275  0  0  0.458472  0  4.215506  0  0  0.489065  0  4.214821  0  0  0.225096  0.437974  0  4.215572  0
C  C38  1  0.25190946  0.88942046  0.24169792  1  0  0.069998  0  3.765904  0  0  0.053947  0  4.073442  0  0  0.049184  0  4.083637  0  0  0.072919  0.056204  0  4.067058  0
C  C39  1  0.74802885  0.11061992  0.75825566  1  0  0.06984  0  3.766336  0  0  0.053849  0  4.073733  0  0  0.049082  0  4.083927  0  0  0.072767  0.056095  0  4.067346  0
C  C40  1  0.03580577  0.78896141  0.23381327  1  0  0.045238  0  3.640728  0  0  -0.024464  0  3.925809  0  0  -0.008155  0  3.932769  0  0  0.051146  -0.035071  0  3.921352  0
C  C41  1  0.96416891  0.21106485  0.76616203  1  0  0.045153  0  3.640781  0  0  -0.024475  0  3.925977  0  0  -0.008176  0  3.93296  0  0  0.0511  -0.035067  0  3.921486  0
N  N42  1  0.06182033  0.71887418  0.86784137  1  0  -0.171111  0  3.48903  0  0  -0.088229  0  3.727307  0  0  -0.111334  0  3.750437  0  0  -0.247409  -0.072801  0  3.711235  0
N  N43  1  0.93814058  0.28112190  0.13217454  1  0  -0.171283  0  3.489197  0  0  -0.088194  0  3.727378  0  0  -0.111294  0  3.750508  0  0  -0.247477  -0.072767  0  3.711296  0
N  N44  1  0.27233750  0.58653342  0.94780109  1  0  -0.50122  0  3.266243  0  0  -0.438206  0  3.509039  0  0  -0.463887  0  3.511498  0  0  -0.378139  -0.421023  0  3.507206  0
N  N45  1  0.72765848  0.41345509  0.05220213  1  0  -0.501543  0  3.266401  0  0  -0.438513  0  3.509307  0  0  -0.464196  0  3.511672  0  0  -0.378193  -0.421355  0  3.507542  0
N  N46  1  0.86332778  0.78114720  0.30126717  1  0  -0.16024  0  3.489251  0  0  -0.077445  0  3.726613  0  0  -0.100235  0  3.749243  0  0  -0.239392  -0.062392  0  3.711102  0
N  N47  1  0.13675653  0.21883853  0.69873633  1  0  -0.160065  0  3.488919  0  0  -0.077754  0  3.72667  0  0  -0.100544  0  3.749299  0  0  -0.239417  -0.062692  0  3.711137  0
N  N48  1  0.13152379  0.97224500  0.38613625  1  0  -0.495105  0  3.262663  0  0  -0.430481  0  3.500679  0  0  -0.455258  0  3.501798  0  0  -0.373166  -0.413899  0  3.499538  0
N  N49  1  0.86852702  0.02775672  0.61383976  1  0  -0.494579  0  3.262709  0  0  -0.430046  0  3.500567  0  0  -0.4548  0  3.50164  0  0  -0.373016  -0.413513  0  3.499463  0
O  O50  1  0.24721540  0.66803862  0.70789777  1  0  -0.628643  0  1.990253  0  0  -0.558924  0  2.217409  0  0  -0.589578  0  2.212717  0  0  -0.29074  -0.537467  0  2.219874  0
O  O51  1  0.75284657  0.33204175  0.29217652  1  0  -0.628407  0  1.990315  0  0  -0.55893  0  2.217379  0  0  -0.589582  0  2.212686  0  0  -0.290981  -0.537478  0  2.219853  0
O  O52  1  0.89549933  0.71595670  0.62298813  1  0  -0.693605  0  1.97961  0  0  -0.620201  0  2.223213  0  0  -0.653033  0  2.215466  0  0  -0.299498  -0.59696  0  2.227731  0
O  O53  1  0.10449294  0.28399307  0.37703266  1  0  -0.69344  0  1.980078  0  0  -0.620116  0  2.223441  0  0  -0.652948  0  2.215693  0  0  -0.299388  -0.596874  0  2.227963  0
O  O54  1  0.86547665  0.50545439  0.84987535  1  0  -0.556774  0  1.868982  0  0  -0.520747  0  2.089649  0  0  -0.54071  0  2.082556  0  0  -0.301275  -0.506901  0  2.094083  0
O  O55  1  0.13458233  0.49452559  0.15010103  1  0  -0.556766  0  1.868875  0  0  -0.520808  0  2.089634  0  0  -0.540775  0  2.082537  0  0  -0.301191  -0.50697  0  2.094071  0
O  O56  1  0.69496478  0.65771498  0.03989983  1  0  -0.53866  0  1.977158  0  0  -0.498885  0  2.208038  0  0  -0.519005  0  2.19885  0  0  -0.292875  -0.484805  0  2.21382  0
O  O57  1  0.30511373  0.34226783  0.96006260  1  0  -0.53888  0  1.977391  0  0  -0.499113  0  2.208334  0  0  -0.519257  0  2.199128  0  0  -0.293009  -0.48502  0  2.214113  0
O  O58  1  0.04884874  0.61190939  0.39193088  1  0  -0.6489  0  2.013064  0  0  -0.591755  0  2.263635  0  0  -0.61996  0  2.256131  0  0  -0.294594  -0.571973  0  2.268261  0
O  O59  1  0.95108882  0.38820499  0.60817145  1  0  -0.648865  0  2.013154  0  0  -0.591657  0  2.263756  0  0  -0.619849  0  2.256236  0  0  -0.294492  -0.571881  0  2.268368  0
O  O60  1  0.60952487  0.53347775  0.41870883  1  0  -0.689865  0  2.061902  0  0  -0.607915  0  2.315464  0  0  -0.639981  0  2.305505  0  0  -0.289954  -0.58517  0  2.321429  0
O  O61  1  0.39034970  0.46650404  0.58128318  1  0  -0.690071  0  2.062602  0  0  -0.608024  0  2.316222  0  0  -0.640157  0  2.306354  0  0  -0.290003  -0.585256  0  2.322151  0
O  O62  1  0.76384169  0.86180801  0.44465041  1  0  -0.6095  0  1.966987  0  0  -0.563033  0  2.202021  0  0  -0.585915  0  2.194154  0  0  -0.286299  -0.547058  0  2.206838  0
O  O63  1  0.23646495  0.13811648  0.55539777  1  0  -0.609551  0  1.967032  0  0  -0.563244  0  2.201848  0  0  -0.586186  0  2.194117  0  0  -0.286646  -0.547278  0  2.206652  0
O  O64  1  0.52297403  0.07939507  0.33582971  1  0  -0.550479  0  1.964967  0  0  -0.513917  0  2.201825  0  0  -0.535308  0  2.195246  0  0  -0.287098  -0.499018  0  2.20593  0
O  O65  1  0.47703855  0.92062933  0.66415192  1  0  -0.550365  0  1.965343  0  0  -0.513804  0  2.202125  0  0  -0.535203  0  2.195544  0  0  -0.286885  -0.498895  0  2.206216  0
F  F66  1  0.70829429  0.89969990  0.00153335  1  0  -0.175463  0  1.245961  0  0  -0.123142  0  1.408284  0  0  -0.132694  0  1.401519  0  0  -0.093699  -0.116521  0  1.413268  0
F  F67  1  0.29177612  0.10027439  0.99842376  1  0  -0.175339  0  1.246475  0  0  -0.123057  0  1.408721  0  0  -0.132622  0  1.401954  0  0  -0.093608  -0.116436  0  1.41371  0
F  F68  1  0.42041483  0.89756207  0.17425829  1  0  -0.17028  0  1.243377  0  0  -0.117766  0  1.402381  0  0  -0.127081  0  1.395976  0  0  -0.093054  -0.110954  0  1.406826  0
F  F69  1  0.57953537  0.10244712  0.82569531  1  0  -0.170128  0  1.243603  0  0  -0.117662  0  1.402619  0  0  -0.126976  0  1.396216  0  0  -0.092913  -0.110849  0  1.407061  0
