# generated using pymatgen
data_Cu3H37C30N3O14
_symmetry_space_group_name_H-M   'P 1'
_cell_length_a   7.87197980
_cell_length_b   13.39023898
_cell_length_c   16.57693189
_cell_angle_alpha   100.11823791
_cell_angle_beta   90.00009484
_cell_angle_gamma   90.00078681
_symmetry_Int_Tables_number   1
_chemical_formula_structural   Cu3H37C30N3O14
_chemical_formula_sum   'Cu6 H74 C60 N6 O28'
_cell_volume   1720.16033045
_cell_formula_units_Z   2
loop_
 _symmetry_equiv_pos_site_id
 _symmetry_equiv_pos_as_xyz
  1  'x, y, z'
loop_
 _atom_site_type_symbol
 _atom_site_label
 _atom_site_symmetry_multiplicity
 _atom_site_fract_x
 _atom_site_fract_y
 _atom_site_fract_z
 _atom_site_occupancy
 _atom_site_pbe_bader_charge
 _atom_site_pbe_bader_spin_density
 _atom_site_pbe_cm5_charge
 _atom_site_pbe_ddec_charge
 _atom_site_pbe_ddec_spin_density
 _atom_site_pbe_ddec_sum_bond_order
 _atom_site_pbe_magmom
Cu  Cu0  1  0.69914943  0.53196966  0.80674209  1  1.06795  0.480713  0.708409  0.839143  0.616691  2.201671  0.48
Cu  Cu1  1  0.19915521  0.46802833  0.19325879  1  1.067906  -0.480711  0.708413  0.839168  -0.61669  2.201539  -0.48
Cu  Cu2  1  0.54425990  0.47917451  0.63402779  1  1.056597  -0.468829  0.718272  0.817995  -0.605443  2.200729  -0.469
Cu  Cu3  1  0.04426372  0.52082293  0.36597470  1  1.056201  0.468837  0.71827  0.817979  0.605447  2.200756  0.469
Cu  Cu4  1  0.09665105  0.35443453  0.89932046  1  1.073685  0.573357  0.716343  0.812593  0.736536  2.209135  0.572
Cu  Cu5  1  0.59666069  0.64556866  0.10068047  1  1.07385  -0.57335  0.716326  0.812461  -0.73653  2.209248  -0.572
H  H6  1  0.28678159  0.64677377  0.67199263  1  0.087487  -7.2e-05  0.096616  0.109377  2.5e-05  1.047338  0.0
H  H7  1  0.78677757  0.35321510  0.32800464  1  0.087821  7.2e-05  0.096639  0.109339  -2.5e-05  1.047407  0.0
H  H8  1  0.17794704  0.82423925  0.68960953  1  0.039554  0.00031  0.092665  0.085992  0.000142  1.011632  0.0
H  H9  1  0.67795150  0.17575779  0.31039000  1  0.039668  -0.00031  0.092658  0.085974  -0.000141  1.011601  0.0
H  H10  1  0.34695587  0.96545662  0.76918911  1  0.069406  0.000175  0.093531  0.09327  0.000113  1.038664  0.0
H  H11  1  0.84695166  0.03453581  0.23081473  1  0.069407  -0.000175  0.093562  0.093323  -0.000113  1.038607  0.0
H  H12  1  0.61459596  0.92661219  0.83695855  1  0.028373  -0.000205  0.094882  0.093077  -0.000105  1.040845  0.0
H  H13  1  0.11458858  0.07337825  0.16304181  1  0.028362  0.000205  0.094859  0.09303  0.000105  1.040846  0.0
H  H14  1  0.82071950  0.81728934  0.86606039  1  0.027699  0.007013  0.100394  0.078088  0.00355  0.998982  0.004
H  H15  1  0.32071712  0.18271348  0.13394308  1  0.027725  -0.007011  0.10041  0.078096  -0.003549  0.999138  -0.004
H  H16  1  0.87431974  0.72193887  0.78051136  1  0.112029  0.000316  0.110025  0.1034  7.1e-05  0.999701  0.0
H  H17  1  0.37431228  0.27806592  0.21949061  1  0.111889  -0.000316  0.110022  0.103422  -7.1e-05  0.999706  0.0
H  H18  1  0.67396203  0.68016822  0.92218131  1  0.489232  -0.000441  0.291683  0.258008  1.9e-05  0.996127  0.0
H  H19  1  0.17396393  0.31983108  0.07781974  1  0.489235  0.000441  0.291694  0.25797  -1.9e-05  0.996196  0.0
H  H20  1  0.03166974  0.66629158  0.87476890  1  0.0981  -0.000262  0.129768  0.114855  -0.00023  0.955528  0.0
H  H21  1  0.53167597  0.33371181  0.12523140  1  0.098013  0.000261  0.129767  0.114867  0.00023  0.955611  0.0
H  H22  1  0.09897197  0.70654008  0.01386462  1  0.095442  0.001565  0.101449  0.072652  0.000879  1.014425  0.001
H  H23  1  0.59897901  0.29346236  0.98613259  1  0.095384  -0.001565  0.101494  0.072685  -0.000879  1.014463  -0.001
H  H24  1  0.91943356  0.78429366  0.00603488  1  0.062008  0.000147  0.103532  0.075459  8.6e-05  0.980092  0.0
H  H25  1  0.41944132  0.21570541  0.99395849  1  0.062037  -0.000147  0.103556  0.075503  -8.6e-05  0.980076  0.0
H  H26  1  0.92717416  0.59906152  0.07279666  1  0.640739  5.7e-05  0.29609  0.35311  4.7e-05  0.969604  0.0
H  H27  1  0.42717459  0.40094143  0.92720269  1  0.640678  -5.7e-05  0.29609  0.353183  -4.7e-05  0.969477  0.0
H  H28  1  0.66085944  0.33012797  0.84912386  1  0.121952  0.000126  0.105632  0.130301  2.4e-05  1.028612  0.0
H  H29  1  0.16085329  0.66986743  0.15087965  1  0.121939  -0.000126  0.105639  0.130261  -2.4e-05  1.02871  0.0
H  H30  1  0.64710979  0.14542947  0.85221730  1  0.064386  -0.000222  0.096746  0.098686  -9.7e-05  1.026254  0.0
H  H31  1  0.14712447  0.85456958  0.14777766  1  0.064348  0.000222  0.096754  0.098653  9.7e-05  1.026181  0.0
H  H32  1  0.62423329  0.02090139  0.72074437  1  0.03549  -2.8e-05  0.093042  0.097299  -1.8e-05  1.046527  0.0
H  H33  1  0.12426151  0.97909445  0.27925435  1  0.035593  2.7e-05  0.093058  0.097318  1.8e-05  1.046544  0.0
H  H34  1  0.61424522  0.08466262  0.58895527  1  0.044951  0.000213  0.094934  0.091206  0.000103  1.006164  0.0
H  H35  1  0.11425843  0.91533919  0.41104246  1  0.04501  -0.000213  0.094968  0.091235  -0.000103  1.006191  0.0
H  H36  1  0.75857109  0.31159323  0.55048872  1  0.129944  -0.000993  0.111832  0.107725  -0.000399  0.985746  -0.001
H  H37  1  0.25857405  0.68840830  0.44951150  1  0.129941  0.000993  0.111833  0.107712  0.000399  0.985766  0.001
H  H38  1  0.61847674  0.20914693  0.51272557  1  0.022657  -0.008247  0.100598  0.074339  -0.004248  0.981057  -0.005
H  H39  1  0.11848603  0.79085116  0.48728251  1  0.022607  0.008246  0.100582  0.074365  0.004247  0.981019  0.005
H  H40  1  0.38796572  0.32933872  0.57737233  1  0.498992  0.000244  0.297376  0.266409  -0.000288  0.983698  0.0
H  H41  1  0.88796565  0.67066389  0.42262452  1  0.498861  -0.000242  0.297342  0.266374  0.000289  0.983745  0.0
H  H42  1  0.59816339  0.36942408  0.44062498  1  0.086043  5.9e-05  0.128173  0.113455  0.000156  0.949141  0.0
H  H43  1  0.09816030  0.63057227  0.55937017  1  0.086143  -5.9e-05  0.128212  0.113469  -0.000156  0.949219  0.0
H  H44  1  0.31955054  0.32935434  0.36595895  1  0.078076  -0.001656  0.105031  0.078549  -0.000888  1.021561  -0.001
H  H45  1  0.81955629  0.67064847  0.63404511  1  0.078189  0.001656  0.105057  0.07857  0.000888  1.021601  0.001
H  H46  1  0.40570818  0.22734040  0.40868950  1  0.037957  -0.00014  0.096054  0.061469  -6e-05  0.977125  0.0
H  H47  1  0.90572379  0.77265780  0.59130374  1  0.037926  0.00014  0.096038  0.061514  6e-05  0.977108  0.0
H  H48  1  0.11385803  0.34389973  0.46174569  1  0.635398  9e-06  0.294862  0.343423  8.4e-05  0.973408  0.0
H  H49  1  0.61385675  0.65610057  0.53825424  1  0.635412  -9e-06  0.294882  0.343452  -8.4e-05  0.973448  0.0
H  H50  1  0.80334243  0.25940218  0.10334415  1  0.04987  -0.000121  0.099039  0.109468  -2.8e-05  1.017889  0.0
H  H51  1  0.30333928  0.74060124  0.89665637  1  0.0499  0.00012  0.099084  0.109536  2.8e-05  1.017894  0.0
H  H52  1  0.64993183  0.09679036  0.09566578  1  0.067273  0.000352  0.093327  0.085939  0.000136  1.034  0.0
H  H53  1  0.14994141  0.90321404  0.90433777  1  0.067373  -0.000352  0.093286  0.085845  -0.000136  1.03402  0.0
H  H54  1  0.69543264  0.95641277  0.97726602  1  0.05554  4.4e-05  0.090058  0.090168  2.9e-05  1.052305  0.0
H  H55  1  0.19544058  0.04358823  0.02273829  1  0.055622  -4.4e-05  0.090071  0.090221  -2.9e-05  1.052337  0.0
H  H56  1  0.90889364  0.98037525  0.87002088  1  0.029921  0.000485  0.094166  0.085666  0.000291  1.030823  0.0
H  H57  1  0.40889632  0.01962302  0.12998323  1  0.029849  -0.000484  0.094196  0.085719  -0.000291  1.030789  0.0
H  H58  1  0.23521608  0.15170719  0.88819438  1  0.062489  0.001179  0.108182  0.092989  0.000484  0.985601  0.001
H  H59  1  0.73521908  0.84829870  0.11180763  1  0.062254  -0.001179  0.108135  0.092976  -0.000484  0.985562  -0.001
H  H60  1  0.11020322  0.06758721  0.81701097  1  0.078422  0.007553  0.105317  0.09383  0.003892  1.003528  0.005
H  H61  1  0.61020082  0.93241306  0.18299017  1  0.078408  -0.007552  0.10531  0.093797  -0.003892  1.003599  -0.005
H  H62  1  0.94599856  0.22216217  0.80138180  1  0.424473  0.000114  0.292952  0.23799  0.000647  0.985199  0.0
H  H63  1  0.44600146  0.77783791  0.19862018  1  0.424473  -0.000115  0.292977  0.238024  -0.000647  0.985123  0.0
H  H64  1  0.30679819  0.20245847  0.75839150  1  0.11088  -0.000119  0.124937  0.110208  -0.000193  0.96795  0.0
H  H65  1  0.80680172  0.79754575  0.24161155  1  0.110812  0.000119  0.124961  0.110227  0.000193  0.967971  0.0
H  H66  1  0.97672080  0.18775578  0.65897731  1  0.064564  4.2e-05  0.095071  0.059086  1.5e-05  1.011787  0.0
H  H67  1  0.47672119  0.81224608  0.34102252  1  0.064629  -4.2e-05  0.095089  0.059107  -1.5e-05  1.01173  0.0
H  H68  1  0.18432285  0.18685122  0.61546893  1  0.087783  0.002577  0.100642  0.074713  0.001368  0.994659  0.002
H  H69  1  0.68432217  0.81315802  0.38453110  1  0.087802  -0.002576  0.100655  0.074735  -0.001368  0.99468  -0.002
H  H70  1  0.06654753  0.02320798  0.62601039  1  0.58322  5e-05  0.320666  0.341188  3.1e-05  0.911802  0.0
H  H71  1  0.56653286  0.97679494  0.37398625  1  0.583399  -4.9e-05  0.320703  0.341261  -3.1e-05  0.911626  0.0
H  H72  1  0.34361093  0.50435062  0.85530780  1  0.614512  -0.000111  0.302373  0.3938  -2.1e-05  0.928553  0.0
H  H73  1  0.84361468  0.49565162  0.14469259  1  0.614555  0.000112  0.302383  0.393827  2.1e-05  0.928485  0.0
H  H74  1  0.43908088  0.57494089  0.92996708  1  0.637609  -0.000177  0.297132  0.387615  -0.000216  0.941599  0.0
H  H75  1  0.93908017  0.42506217  0.07003349  1  0.63763  0.000177  0.297101  0.387569  0.000216  0.941666  0.0
H  H76  1  0.95011782  0.53097270  0.67604436  1  0.633473  0.00013  0.278824  0.370566  9.2e-05  0.979395  0.0
H  H77  1  0.45011646  0.46902817  0.32395412  1  0.63348  -0.00013  0.278832  0.370544  -9.2e-05  0.979423  0.0
H  H78  1  0.07963024  0.51396823  0.74346078  1  0.611206  9.4e-05  0.282304  0.372475  0.00018  0.964448  0.0
H  H79  1  0.57963797  0.48603406  0.25654242  1  0.611173  -9.4e-05  0.282339  0.372516  -0.00018  0.964372  0.0
C  C80  1  0.51765550  0.68822064  0.73880155  1  0.490899  -0.001213  0.069787  0.276511  -0.000832  4.07421  -0.002
C  C81  1  0.01765532  0.31177730  0.26119073  1  0.491031  0.001211  0.069799  0.276556  0.000832  4.074118  0.002
C  C82  1  0.35993933  0.70942993  0.70585699  1  -0.021399  0.005293  -0.111756  -0.20117  0.003735  3.986731  0.004
C  C83  1  0.85995023  0.29056335  0.29414276  1  -0.021328  -0.005292  -0.111795  -0.201184  -0.003735  3.986827  -0.004
C  C84  1  0.29973076  0.80864742  0.71638520  1  -0.019028  -0.000224  -0.099948  -0.067677  -0.000151  4.053802  0.0
C  C85  1  0.79973167  0.19134609  0.28360910  1  -0.019348  0.000224  -0.099985  -0.067707  0.000151  4.053575  0.0
C  C86  1  0.39330162  0.88775845  0.76164589  1  -0.062709  0.003297  -0.11142  -0.117516  0.002127  4.065969  0.002
C  C87  1  0.89331068  0.11223210  0.23835712  1  -0.062792  -0.003295  -0.11146  -0.117597  -0.002126  4.066102  -0.002
C  C88  1  0.54497737  0.86568088  0.79843835  1  -0.071651  -0.001115  -0.098654  -0.124863  -0.00074  4.02886  -0.001
C  C89  1  0.04497028  0.13431275  0.20155577  1  -0.071768  0.001115  -0.09858  -0.12469  0.000739  4.028939  0.001
C  C90  1  0.61006021  0.76713094  0.78822795  1  0.014728  0.002353  -0.032207  -0.031723  0.001145  3.946409  0.001
C  C91  1  0.11006563  0.23286326  0.21176932  1  0.014807  -0.002352  -0.032217  -0.031811  -0.001145  3.94628  -0.001
C  C92  1  0.77639684  0.74664358  0.82720710  1  0.236345  0.000692  -0.068604  -0.064042  0.001274  3.909798  -0.001
C  C93  1  0.27639880  0.25335202  0.17279110  1  0.23637  -0.000693  -0.068674  -0.064149  -0.001274  3.910067  0.001
C  C94  1  0.93122980  0.64603890  0.91528750  1  0.261757  0.004638  -0.003646  -0.054424  0.00394  3.844222  0.002
C  C95  1  0.43123254  0.35396030  0.08471314  1  0.261818  -0.004639  -0.003651  -0.054577  -0.003941  3.844449  -0.002
C  C96  1  0.95360278  0.53321520  0.91574153  1  1.554046  -0.000305  0.20724  0.569562  0.001077  4.125133  -0.002
C  C97  1  0.45360815  0.46678419  0.08425794  1  1.554052  0.000304  0.207156  0.569527  -0.001078  4.125167  0.002
C  C98  1  0.96146779  0.70520785  0.00211305  1  0.424638  0.003013  -0.072885  0.052897  0.002176  3.905847  0.002
C  C99  1  0.46147488  0.29479388  0.99788615  1  0.424635  -0.003013  -0.07297  0.052828  -0.002176  3.906016  -0.002
C  C100  1  0.64659957  0.31252906  0.71797137  1  0.522364  0.001012  0.074557  0.289254  0.000546  4.061333  0.001
C  C101  1  0.14660064  0.68747076  0.28202671  1  0.52236  -0.001012  0.074558  0.289246  -0.000546  4.061411  -0.001
C  C102  1  0.65148241  0.27548354  0.79245321  1  -0.069797  -0.005998  -0.116374  -0.226765  -0.004314  3.981003  -0.004
C  C103  1  0.15148155  0.72451556  0.20754598  1  -0.069839  0.005997  -0.116387  -0.226779  0.004314  3.981201  0.004
C  C104  1  0.64406120  0.17167309  0.79355846  1  -0.063988  0.000207  -0.103251  -0.080522  0.000116  4.06092  0.0
C  C105  1  0.14406912  0.82832517  0.20643759  1  -0.064037  -0.000207  -0.103242  -0.080446  -0.000117  4.060924  0.0
C  C106  1  0.63173553  0.10196223  0.72041335  1  -0.015479  -0.003172  -0.118568  -0.133027  -0.002018  4.073513  -0.002
C  C107  1  0.13174407  0.89803669  0.27958278  1  -0.0156  0.003174  -0.118515  -0.132975  0.002019  4.073525  0.002
C  C108  1  0.62614892  0.13831575  0.64651274  1  -0.051798  0.001538  -0.099215  -0.125755  0.000996  4.055188  0.001
C  C109  1  0.12615941  0.86168540  0.35348370  1  -0.051728  -0.001538  -0.099352  -0.12592  -0.000996  4.055241  -0.001
C  C110  1  0.63554548  0.24188718  0.64318546  1  -0.043147  -0.001789  -0.032284  -0.038911  -0.000792  3.948627  -0.001
C  C111  1  0.13555482  0.75811177  0.35681249  1  -0.043094  0.00179  -0.032226  -0.038766  0.000793  3.948452  0.001
C  C112  1  0.63656835  0.27597888  0.56135476  1  0.21325  -0.000154  -0.067367  -0.057325  -0.000868  3.918306  0.002
C  C113  1  0.13657083  0.72402390  0.43864674  1  0.21335  0.000154  -0.067379  -0.057433  0.000869  3.918281  -0.002
C  C114  1  0.47533674  0.37630001  0.47329924  1  0.257176  1.6e-05  -0.005541  -0.061307  -0.000553  3.846661  0.002
C  C115  1  0.97532831  0.62369501  0.52670085  1  0.257151  -1.6e-05  -0.00548  -0.061161  0.000553  3.846233  -0.002
C  C116  1  0.42515628  0.48864292  0.48009715  1  1.579346  -0.000481  0.217492  0.58153  -0.001146  4.118145  0.0
C  C117  1  0.92514520  0.51135545  0.51989793  1  1.579383  0.00048  0.217329  0.581292  0.001146  4.118278  0.0
C  C118  1  0.34707327  0.30307564  0.42379850  1  0.469403  -0.003629  -0.076381  0.036579  -0.00269  3.941924  -0.003
C  C119  1  0.84707181  0.69692437  0.57620218  1  0.469292  0.003628  -0.076426  0.036416  0.002689  3.94199  0.003
C  C120  1  0.94017688  0.21403353  0.99039966  1  0.579082  0.000165  0.06726  0.267634  0.001199  4.111553  -0.002
C  C121  1  0.44017041  0.78596651  0.00960412  1  0.579268  -0.000166  0.067192  0.267643  -0.001199  4.111634  0.002
C  C122  1  0.82371260  0.19804195  0.05152746  1  -0.111246  0.009657  -0.113395  -0.210997  0.006625  4.012372  0.007
C  C123  1  0.32371489  0.80195710  0.94847427  1  -0.111304  -0.009658  -0.113432  -0.211172  -0.006626  4.012473  -0.007
C  C124  1  0.73882309  0.10629663  0.04726400  1  -0.020276  -0.000361  -0.098679  -0.062915  -0.000273  4.061586  0.0
C  C125  1  0.23882754  0.89370094  0.95273867  1  -0.02035  0.000361  -0.09861  -0.062668  0.000273  4.061484  0.0
C  C126  1  0.76634039  0.02707974  0.98159870  1  -0.028121  0.003464  -0.120381  -0.138933  0.002231  4.073082  0.002
C  C127  1  0.26634595  0.97291882  0.01840231  1  -0.028048  -0.003465  -0.120378  -0.139071  -0.002232  4.073319  -0.002
C  C128  1  0.88476301  0.04105369  0.92204359  1  -0.092976  -0.000933  -0.100228  -0.128239  -0.000574  4.067306  -0.001
C  C129  1  0.38476464  0.95894588  0.07796068  1  -0.09304  0.000933  -0.100262  -0.128229  0.000574  4.067339  0.001
C  C130  1  0.97535247  0.13167290  0.92579539  1  -0.025672  0.006829  -0.038927  -0.050239  0.004204  3.97214  0.005
C  C131  1  0.47535705  0.86833123  0.07420658  1  -0.025713  -0.006829  -0.03895  -0.050306  -0.004204  3.972091  -0.005
C  C132  1  0.10724554  0.13886319  0.86150111  1  0.244766  0.00038  -0.070516  -0.070033  0.000911  3.924056  -0.002
C  C133  1  0.60724766  0.86113934  0.13850154  1  0.244737  -0.000382  -0.070439  -0.069989  -0.000911  3.924035  0.002
C  C134  1  0.17931468  0.23037857  0.74592215  1  0.243984  -0.000255  0.00044  -0.038873  0.000545  3.817086  -0.002
C  C135  1  0.67931888  0.76962836  0.25408117  1  0.244126  0.000253  0.000458  -0.038809  -0.000545  3.817052  0.002
C  C136  1  0.20299108  0.34193716  0.73638595  1  1.6015  8.5e-05  0.218003  0.580111  0.000945  4.128237  0.0
C  C137  1  0.70298635  0.65807222  0.26360989  1  1.601164  -8.4e-05  0.217974  0.580156  -0.000944  4.128342  0.0
C  C138  1  0.11100189  0.16761468  0.66719834  1  0.408068  0.004907  -0.075224  0.04349  0.003571  3.913276  0.003
C  C139  1  0.61100657  0.83239015  0.33280283  1  0.408  -0.004906  -0.075198  0.043491  -0.00357  3.913327  -0.003
N  N140  1  0.76658014  0.66435950  0.87691367  1  -1.040264  0.096267  -0.492714  -0.336297  0.062962  3.49917  0.08
N  N141  1  0.26658258  0.33563678  0.12308461  1  -1.040179  -0.096272  -0.492699  -0.336154  -0.062965  3.499283  -0.08
N  N142  1  0.50263469  0.35214019  0.55581077  1  -1.050756  -0.098188  -0.499518  -0.338783  -0.064127  3.565203  -0.082
N  N143  1  0.00263160  0.64785536  0.44418539  1  -1.05058  0.098186  -0.499555  -0.338765  0.064126  3.564771  0.082
N  N144  1  0.07189704  0.22513375  0.81867676  1  -1.021068  0.113185  -0.491209  -0.327808  0.074115  3.541833  0.095
N  N145  1  0.57190238  0.77486696  0.18132561  1  -1.020825  -0.113175  -0.491295  -0.327803  -0.07411  3.541488  -0.095
O  O146  1  0.58037302  0.59294698  0.72418314  1  -1.097161  0.017384  -0.372266  -0.554341  0.011165  2.643839  0.016
O  O147  1  0.08037766  0.40705076  0.27581520  1  -1.09711  -0.017392  -0.372271  -0.554364  -0.011169  2.643894  -0.016
O  O148  1  0.84543986  0.47031791  0.87831381  1  -1.119102  0.064831  -0.324333  -0.547807  0.041926  2.442402  0.06
O  O149  1  0.34543921  0.52967751  0.12168080  1  -1.118973  -0.064829  -0.324211  -0.547676  -0.041925  2.442245  -0.06
O  O150  1  0.08198061  0.50480304  0.95175584  1  -1.127111  0.072861  -0.311462  -0.489544  0.047417  2.276338  0.065
O  O151  1  0.58198146  0.49520305  0.04824306  1  -1.127307  -0.072866  -0.31155  -0.48962  -0.047418  2.276389  -0.065
O  O152  1  0.87385668  0.66392089  0.06381395  1  -1.163102  0.001778  -0.41859  -0.524017  0.000927  2.449004  0.0
O  O153  1  0.37385435  0.33608237  0.93618782  1  -1.163068  -0.001777  -0.418582  -0.524072  -0.000927  2.448809  0.0
O  O154  1  0.64940309  0.41276961  0.71833865  1  -1.086637  -0.022171  -0.358477  -0.522173  -0.01421  2.563438  -0.02
O  O155  1  0.14940943  0.58723100  0.28166317  1  -1.08667  0.022173  -0.358445  -0.522162  0.014211  2.563349  0.02
O  O156  1  0.45845750  0.54865908  0.54882371  1  -1.130949  -0.072068  -0.327907  -0.55354  -0.04689  2.373468  -0.066
O  O157  1  0.95844350  0.45133958  0.45117265  1  -1.13087  0.072067  -0.327845  -0.553398  0.046891  2.373561  0.066
O  O158  1  0.36130094  0.51942947  0.42010794  1  -1.17786  -0.015492  -0.294388  -0.53192  -0.009932  2.26766  -0.013
O  O159  1  0.86130459  0.48056763  0.57989597  1  -1.177869  0.015489  -0.2943  -0.531857  0.009929  2.267516  0.013
O  O160  1  0.19756191  0.29169563  0.46937730  1  -1.152273  -0.000427  -0.421031  -0.479023  -0.000167  2.222119  0.0
O  O161  1  0.69755421  0.70831070  0.53062777  1  -1.152321  0.000427  -0.421031  -0.478979  0.000166  2.222089  0.0
O  O162  1  0.01486054  0.30517156  0.99629702  1  -1.139827  0.096338  -0.355731  -0.549396  0.062107  2.40503  0.087
O  O163  1  0.51485703  0.69483169  0.00370204  1  -1.139986  -0.096343  -0.355694  -0.549377  -0.062111  2.405143  -0.087
O  O164  1  0.17849243  0.40907315  0.80218152  1  -1.143954  0.090585  -0.324895  -0.55402  0.058788  2.38714  0.083
O  O165  1  0.67849224  0.59093377  0.19782059  1  -1.143926  -0.090575  -0.324953  -0.554058  -0.058784  2.387601  -0.083
O  O166  1  0.24398855  0.36491673  0.66981427  1  -1.168583  0.025609  -0.298479  -0.531634  0.016523  2.227965  0.022
O  O167  1  0.74398477  0.63508848  0.33019189  1  -1.168371  -0.025617  -0.298385  -0.531668  -0.016528  2.22749  -0.022
O  O168  1  0.12656219  0.06189967  0.67244265  1  -1.107979  0.001086  -0.411288  -0.483209  0.000625  2.239931  0.001
O  O169  1  0.62655789  0.93810528  0.32755794  1  -1.108226  -0.001087  -0.411357  -0.483313  -0.000625  2.239796  -0.001
O  O170  1  0.44972164  0.51392161  0.88699891  1  -1.227919  -0.002429  -0.570568  -0.766266  -0.001479  2.152132  -0.001
O  O171  1  0.94972886  0.48607775  0.11300236  1  -1.22803  0.002428  -0.570539  -0.766213  0.001479  2.152056  0.001
O  O172  1  0.00306939  0.56500044  0.72775118  1  -1.264849  -0.000493  -0.609382  -0.798081  -0.000416  1.992635  0.0
O  O173  1  0.50306835  0.43500271  0.27224846  1  -1.2648  0.000493  -0.609415  -0.798095  0.000416  1.992685  0.0
