# generated using pymatgen
data_ZnH9C28N2O6F5
_symmetry_space_group_name_H-M   'P 1'
_cell_length_a   12.64552716
_cell_length_b   13.33954955
_cell_length_c   23.64440421
_cell_angle_alpha   86.81160272
_cell_angle_beta   77.07926309
_cell_angle_gamma   80.74418230
_symmetry_Int_Tables_number   1
_chemical_formula_structural   ZnH9C28N2O6F5
_chemical_formula_sum   'Zn2 H18 C56 N4 O12 F10'
_cell_volume   3836.06880683
_cell_formula_units_Z   2
loop_
 _symmetry_equiv_pos_site_id
 _symmetry_equiv_pos_as_xyz
  1  'x, y, z'
loop_
 _atom_site_type_symbol
 _atom_site_label
 _atom_site_symmetry_multiplicity
 _atom_site_fract_x
 _atom_site_fract_y
 _atom_site_fract_z
 _atom_site_occupancy
 _atom_site_pbe_bader_charge
 _atom_site_pbe_bader_spin_density
 _atom_site_pbe_cm5_charge
 _atom_site_pbe_ddec_charge
 _atom_site_pbe_ddec_spin_density
 _atom_site_pbe_ddec_sum_bond_order
 _atom_site_pbe_magmom
Zn  Zn0  1  0.61322017  0.51892927  0.49267375  1  1.293777  0  0.672883  0.829052  0  2.417396  0
Zn  Zn1  1  0.39253450  0.48742504  0.51021420  1  1.301281  0  0.673183  0.843061  0  2.377087  0
H  H2  1  0.68379717  0.56295323  0.19169413  1  0.082479  0  0.110316  0.118418  0  0.980488  0
H  H3  1  0.39407326  0.43145005  0.34235055  1  0.127512  0  0.104564  0.110401  0  1.002971  0
H  H4  1  0.69122894  0.56187389  0.29687256  1  0.102314  0  0.107739  0.111339  0  0.994443  0
H  H5  1  0.67433638  0.90254750  0.48114357  1  0.057243  0  0.109524  0.130969  0  1.009172  0
H  H6  1  0.71474652  0.68826245  0.43409106  1  0.109816  0  0.129631  0.10768  0  0.979984  0
H  H7  1  0.10578508  0.68161069  0.39618745  1  0.126929  0  0.128824  0.158332  0  0.954073  0
H  H8  1  0.90535464  0.73407437  0.40295976  1  0.096584  0  0.121406  0.131438  0  0.971217  0
H  H9  1  0.29373729  0.32587442  0.57035019  1  0.183598  0  0.142135  0.144219  0  0.962324  0
H  H10  1  0.64493939  0.50724112  0.77013214  1  0.06929  0  0.108846  0.114532  0  0.979594  0
H  H11  1  0.29976204  0.48842427  0.81016770  1  0.074306  0  0.110786  0.117872  0  0.978025  0
H  H12  1  0.55076894  0.82675460  0.49313170  1  0.100705  0  0.107359  0.114499  0  1.030166  0
H  H13  1  0.76731302  0.19425288  0.49385489  1  0.11023  0  0.117606  0.145825  0  0.978384  0
H  H14  1  0.40154981  0.26818947  0.45728942  1  0.096791  0  0.111905  0.145982  0  1.016878  0
H  H15  1  0.81737079  0.44578580  0.53463561  1  0.164338  0  0.12436  0.103145  0  1.014374  0
H  H16  1  0.64643283  0.50756454  0.66377683  1  0.116301  0  0.104877  0.108248  0  1.003489  0
H  H17  1  0.30192353  0.48995086  0.70358456  1  0.075466  0  0.107422  0.110162  0  0.994539  0
H  H18  1  0.38556347  0.43187059  0.23752160  1  0.066196  0  0.109693  0.118756  0  0.980483  0
H  H19  1  0.52288248  0.24623949  0.06282438  1  0.150715  0  0.130648  0.160559  0  0.959968  0
C  C20  1  0.57277354  0.30944524  0.49635522  1  1.58032  0  0.216962  0.602647  0  4.150529  0
C  C21  1  0.47123200  0.59472646  0.87949821  1  1.370369  0  0.242623  0.455566  0  4.099566  0
C  C22  1  0.57029389  0.50309937  0.75513510  1  0.067598  0  -0.082676  -0.151132  0  3.979748  0
C  C23  1  0.47763827  0.50047340  0.61367912  1  1.572099  0  0.217361  0.598835  0  4.15644  0
C  C24  1  0.57113825  0.50338261  0.69626769  1  -0.057247  0  -0.078405  -0.071057  0  3.969242  0
C  C25  1  0.47438846  0.49881575  0.67757386  1  -0.031007  0  -0.013144  -0.030841  0  3.95112  0
C  C26  1  0.37659237  0.49339066  0.71865591  1  -0.02486  0  -0.076287  -0.072254  0  3.960931  0
C  C27  1  0.37527366  0.49287252  0.77778649  1  -0.022025  0  -0.081727  -0.149395  0  3.969947  0
C  C28  1  0.47220305  0.49807770  0.79546542  1  0.296147  0  0.090923  0.200043  0  4.020947  0
C  C29  1  0.45216410  0.46044774  0.25075141  1  -0.074813  0  -0.084493  -0.154001  0  3.986393  0
C  C30  1  0.45699698  0.45985077  0.30890466  1  0.007853  0  -0.080109  -0.073654  0  3.969662  0
C  C31  1  0.51393321  0.31737219  0.03814237  1  -0.003262  0  -0.07133  -0.197283  0  3.930177  0
C  C32  1  0.54288706  0.49669342  0.32563718  1  -0.028803  0  -0.014214  -0.02866  0  3.954395  0
C  C33  1  0.62492202  0.53337238  0.28327960  1  -0.035806  0  -0.079322  -0.077421  0  3.968692  0
C  C34  1  0.62089945  0.53371721  0.22486651  1  0.025557  0  -0.082146  -0.149179  0  3.978  0
C  C35  1  0.42177367  0.69498471  0.49650086  1  1.594768  0  0.219098  0.618375  0  4.157279  0
C  C36  1  0.53417077  0.49759572  0.20906566  1  0.308131  0  0.090353  0.192292  0  4.010582  0
C  C37  1  0.27254292  0.96050966  0.46694464  1  0.568804  0  0.089552  0.138613  0  4.059831  0
C  C38  1  0.39301433  0.80708562  0.48577461  1  0.058017  0  -0.021511  -0.116643  0  3.988814  0
C  C39  1  0.70553832  0.14982978  0.48810687  1  0.075566  0  -0.09017  -0.213861  0  3.972109  0
C  C40  1  0.72889610  0.04418321  0.48498148  1  0.388499  0  0.094313  0.294416  0  4.112901  0
C  C41  1  0.65120821  0.98472863  0.48132041  1  0.034918  0  -0.098819  -0.257294  0  3.981432  0
C  C42  1  0.50106634  0.31768591  0.98090633  1  0.522058  0  0.127864  0.305  0  4.021798  0
C  C43  1  0.54464773  0.03162927  0.47743916  1  -0.021963  0  0.001748  0.056902  0  3.958658  0
C  C44  1  0.52048154  0.13979833  0.47621129  1  0.077691  0  -8.8e-05  0.073665  0  3.963717  0
C  C45  1  0.45854203  0.97237703  0.47564148  1  -0.027596  0  -0.003291  0.054218  0  3.978424  0
C  C46  1  0.35394567  0.02165898  0.46677578  1  0.105971  0  -0.015328  -0.111754  0  4.045528  0
C  C47  1  0.54373879  0.49884261  0.38881204  1  1.574609  0  0.213838  0.593438  0  4.163592  0
C  C48  1  0.34030459  0.12954877  0.45885926  1  0.348832  0  0.092021  0.252499  0  4.071148  0
C  C49  1  0.41767231  0.18641145  0.46392630  1  0.103245  0  -0.101455  -0.253971  0  3.994369  0
C  C50  1  0.47380899  0.86691957  0.48476186  1  0.012766  0  -0.084494  -0.128362  0  3.963394  0
C  C51  1  0.29102282  0.85602834  0.47622124  1  0.454122  0  0.098536  0.165015  0  4.05308  0
C  C52  1  0.60083886  0.19757493  0.48521517  1  -0.014087  0  -0.005995  -0.039044  0  3.907547  0
C  C53  1  0.49076876  0.40672273  0.94722012  1  0.046287  0  -0.013702  -0.17911  0  3.949544  0
C  C54  1  0.88890610  0.66980748  0.43233947  1  -0.004455  0  -0.074288  -0.171341  0  3.946033  0
C  C55  1  0.22256742  0.36393671  0.55444562  1  0.593253  0  0.064281  0.016851  0  3.913947  0
C  C56  1  0.11923267  0.33580183  0.57530397  1  0.637453  0  0.108059  0.142219  0  4.101481  0
C  C57  1  0.02911699  0.38783432  0.55626400  1  0.476078  0  0.124068  0.172642  0  4.030575  0
C  C58  1  0.04119304  0.46685303  0.51419163  1  0.037019  0  0.006514  -0.066143  0  3.973131  0
C  C59  1  0.51406329  0.59453293  0.12047536  1  1.366492  0  0.24523  0.452052  0  4.082021  0
C  C60  1  0.15143946  0.48693020  0.49344761  1  0.523785  0  0.122825  0.11569  0  3.965173  0
C  C61  1  0.95221382  0.52684859  0.49207244  1  0.000782  0  0.002073  -0.004056  0  3.942581  0
C  C62  1  0.97601400  0.60860571  0.45194856  1  -0.013719  0  0.016749  0.134159  0  4.023359  0
C  C63  1  0.08629112  0.62370582  0.42954600  1  0.102372  0  -0.083379  -0.246233  0  3.964538  0
C  C64  1  0.49233436  0.50015459  0.97325555  1  0.040183  0  0.005544  0.060745  0  3.997226  0
C  C65  1  0.16927764  0.56201919  0.44760915  1  0.487726  0  0.125068  0.248693  0  4.043227  0
C  C66  1  0.84241704  0.50848385  0.50619750  1  0.514483  0  0.06616  0.064369  0  3.879678  0
C  C67  1  0.78458435  0.64572703  0.44919316  1  0.502018  0  0.05581  0.098899  0  3.936949  0
C  C68  1  0.53074543  0.40433079  0.12399327  1  1.358575  0  0.246802  0.436333  0  4.092952  0
C  C69  1  0.51564352  0.40804419  0.06340297  1  0.029567  0  -0.001436  -0.029121  0  3.997463  0
C  C70  1  0.50421186  0.50106682  0.03188730  1  -0.018994  0  -0.000986  0.023785  0  4.013802  0
C  C71  1  0.50533044  0.59353184  0.05886956  1  0.015598  0  -0.011372  -0.15538  0  3.99398  0
C  C72  1  0.48248273  0.59317955  0.94075394  1  0.067511  0  -0.010564  -0.155903  0  3.973831  0
C  C73  1  0.48498754  0.68241323  0.96779435  1  0.557017  0  0.12043  0.188468  0  4.031032  0
C  C74  1  0.49604487  0.68285666  0.02610706  1  0.553132  0  0.119949  0.186422  0  4.034425  0
C  C75  1  0.48105545  0.40425578  0.88596301  1  1.358391  0  0.242918  0.45928  0  4.101546  0
N  N76  1  0.52769976  0.49849416  0.14884058  1  -1.170223  0  -0.228113  -0.209033  0  3.560058  0
N  N77  1  0.47314757  0.49919939  0.85649059  1  -1.174521  0  -0.232628  -0.230822  0  3.582915  0
N  N78  1  0.76291367  0.56467645  0.48469614  1  -1.253965  0  -0.322888  -0.197083  0  3.541483  0
N  N79  1  0.23806545  0.43824121  0.51469698  1  -1.204895  0  -0.303453  -0.215895  0  3.471813  0
O  O80  1  0.64971522  0.36300862  0.48246987  1  -1.155564  0  -0.317772  -0.539336  0  2.275643  0
O  O81  1  0.62034091  0.53529019  0.40355575  1  -1.158448  0  -0.317117  -0.543445  0  2.285145  0
O  O82  1  0.46549740  0.46377659  0.42406042  1  -1.17887  0  -0.322859  -0.577269  0  2.407627  0
O  O83  1  0.50913196  0.67268931  0.14644697  1  -1.075283  0  -0.264266  -0.413655  0  2.083562  0
O  O84  1  0.54474290  0.32401288  0.15122075  1  -1.090628  0  -0.269296  -0.423588  0  2.067097  0
O  O85  1  0.48092049  0.32641265  0.86079803  1  -1.067747  0  -0.268925  -0.419932  0  2.074635  0
O  O86  1  0.46164277  0.67246250  0.84970678  1  -1.068901  0  -0.268499  -0.417481  0  2.070847  0
O  O87  1  0.47337096  0.34146267  0.52073943  1  -1.177234  0  -0.316668  -0.559428  0  2.370858  0
O  O88  1  0.57194884  0.50101517  0.58023649  1  -1.1753  0  -0.321556  -0.558223  0  2.352774  0
O  O89  1  0.38775591  0.50162441  0.59753561  1  -1.155871  0  -0.321881  -0.547147  0  2.282809  0
O  O90  1  0.52146731  0.66381769  0.49819500  1  -1.173669  0  -0.31514  -0.555868  0  2.347058  0
O  O91  1  0.34657424  0.63991062  0.50273850  1  -1.144665  0  -0.317809  -0.541192  0  2.350718  0
F  F92  1  0.20748495  0.80456375  0.47553554  1  -0.621352  0  -0.09512  -0.116333  0  1.390798  0
F  F93  1  0.49727108  0.77374027  0.04696635  1  -0.594434  0  -0.067877  -0.083072  0  1.394796  0
F  F94  1  0.24461506  0.17854331  0.44605344  1  -0.629747  0  -0.117183  -0.158058  0  1.329308  0
F  F95  1  0.17220956  0.00259495  0.45850776  1  -0.609658  0  -0.101169  -0.122329  0  1.370979  0
F  F96  1  0.83241186  0.99765511  0.48711656  1  -0.628856  0  -0.118432  -0.165112  0  1.28785  0
F  F97  1  0.49964660  0.22693209  0.95931112  1  -0.605712  0  -0.075783  -0.110079  0  1.355472  0
F  F98  1  0.93048581  0.36060670  0.57979465  1  -0.607493  0  -0.057724  -0.083097  0  1.386371  0
F  F99  1  0.10609063  0.26004687  0.61498798  1  -0.61325  0  -0.077788  -0.096069  0  1.341934  0
F  F100  1  0.27264231  0.56906965  0.42041722  1  -0.610606  0  -0.056804  -0.081433  0  1.489553  0
F  F101  1  0.47740370  0.77306845  0.94068004  1  -0.596005  0  -0.063898  -0.078551  0  1.399591  0
