# generated using pymatgen
data_LiH11C13N4
_symmetry_space_group_name_H-M   'P 1'
_cell_length_a   7.87870104
_cell_length_b   9.07787267
_cell_length_c   9.11741874
_cell_angle_alpha   86.69272158
_cell_angle_beta   64.46091839
_cell_angle_gamma   82.35405193
_symmetry_Int_Tables_number   1
_chemical_formula_structural   LiH11C13N4
_chemical_formula_sum   'Li2 H22 C26 N8'
_cell_volume   583.14814434
_cell_formula_units_Z   2
loop_
 _symmetry_equiv_pos_site_id
 _symmetry_equiv_pos_as_xyz
  1  'x, y, z'
loop_
 _atom_site_type_symbol
 _atom_site_label
 _atom_site_symmetry_multiplicity
 _atom_site_fract_x
 _atom_site_fract_y
 _atom_site_fract_z
 _atom_site_occupancy
 _atom_site_pbe_bader_charge
 _atom_site_pbe_bader_spin_density
 _atom_site_pbe_cm5_charge
 _atom_site_pbe_ddec_charge
 _atom_site_pbe_ddec_spin_density
 _atom_site_pbe_ddec_sum_bond_order
 _atom_site_pbe_magmom
Li  Li0  1  0.94098170  0.69218954  0.35528520  1  0.848503  0  0.527046  0.648225  0  0.751816  0
Li  Li1  1  0.29584681  0.19188160  0.64515158  1  0.849064  0  0.526941  0.648601  0  0.75159  0
H  H2  1  0.74390878  0.03248594  0.44460690  1  0.066367  0  0.112411  0.055257  0  1.024345  0
H  H3  1  0.18804260  0.53194853  0.55631436  1  0.039919  0  0.112446  0.054931  0  1.024227  0
H  H4  1  0.24026352  0.85327345  0.74025758  1  0.028831  0  0.094373  0.068485  0  1.071974  0
H  H5  1  0.98051095  0.35385139  0.25925616  1  0.052655  0  0.094301  0.068892  0  1.073033  0
H  H6  1  0.54081234  0.62920737  0.64707793  1  0.074901  0  0.095806  0.077659  0  1.077239  0
H  H7  1  0.18834383  0.12948136  0.35200018  1  0.071064  0  0.095657  0.077422  0  1.077557  0
H  H8  1  0.65026389  0.53486633  0.38300002  1  0.09921  0  0.122646  0.081269  0  1.008538  0
H  H9  1  0.03237953  0.03478548  0.61680179  1  0.101438  0  0.122546  0.081018  0  1.008595  0
H  H10  1  0.49084981  0.42932154  0.23761489  1  0.129496  0  0.112015  0.126801  0  1.027124  0
H  H11  1  0.72794259  0.92917261  0.76207847  1  0.121054  0  0.111912  0.127537  0  1.026954  0
H  H12  1  0.87952582  0.62536408  0.79640989  1  0.114585  0  0.114773  0.122569  0  1.00305  0
H  H13  1  0.67614408  0.12504140  0.20331351  1  0.063658  0  0.114436  0.121832  0  1.002964  0
H  H14  1  0.02726128  0.71844014  0.96060716  1  0.063942  0  0.112566  0.07149  0  1.016969  0
H  H15  1  0.98753424  0.21830141  0.03921609  1  0.06086  0  0.112496  0.071238  0  1.016642  0
H  H16  1  0.15475002  0.40189972  0.93349476  1  0.089323  0  0.112471  0.066236  0  1.03475  0
H  H17  1  0.08717740  0.90220134  0.06755403  1  0.079606  0  0.11269  0.066398  0  1.0346  0
H  H18  1  0.29391363  0.51451559  0.09240228  1  0.121933  0  0.114226  0.122358  0  1.0284  0
H  H19  1  0.38531768  0.01437116  0.90777550  1  0.121609  0  0.11441  0.122705  0  1.028309  0
H  H20  1  0.84686627  0.38013922  0.70430928  1  0.093377  0  0.112948  0.123023  0  1.033466  0
H  H21  1  0.55217449  0.87947753  0.29515729  1  0.1002  0  0.113001  0.123113  0  1.033454  0
H  H22  1  0.68487117  0.26211389  0.57059152  1  0.090764  0  0.117798  0.072653  0  1.01768  0
H  H23  1  0.25671445  0.76154996  0.42939234  1  0.087671  0  0.117471  0.072414  0  1.018344  0
C  C24  1  0.64576646  0.95299945  0.51286237  1  0.848745  0  0.097103  0.136827  0  4.126968  0
C  C25  1  0.15812840  0.45272176  0.48776525  1  0.929517  0  0.097393  0.13853  0  4.12518  0
C  C26  1  0.38965450  0.85899657  0.66342373  1  0.317952  0  -0.036353  -0.065109  0  4.120371  0
C  C27  1  0.05282895  0.35925782  0.33644640  1  0.338551  0  -0.036402  -0.067  0  4.123092  0
C  C28  1  0.54002533  0.74658754  0.61646853  1  0.33339  0  -0.036567  -0.065423  0  4.097651  0
C  C29  1  0.15638153  0.24669281  0.38323646  1  0.282832  0  -0.03633  -0.063967  0  4.098132  0
C  C30  1  0.69830659  0.55225202  0.25241272  1  0.447568  0  0.051878  0.099161  0  3.979139  0
C  C31  1  0.95020241  0.05193460  0.74740723  1  0.465224  0  0.052684  0.100969  0  3.976528  0
C  C32  1  0.60803162  0.49441843  0.17093217  1  -0.040989  0  -0.07843  -0.175974  0  3.921071  0
C  C33  1  0.77856492  0.99413191  0.82881714  1  -0.037149  0  -0.078736  -0.178081  0  3.921001  0
C  C34  1  0.67272358  0.51869535  0.00309123  1  -0.049822  0  0.014449  0.109856  0  3.975517  0
C  C35  1  0.67562266  0.01830152  0.99663582  1  -0.02719  0  0.014087  0.109991  0  3.975377  0
C  C36  1  0.82566484  0.60169872  0.92616236  1  -0.011953  0  -0.079547  -0.177965  0  3.932793  0
C  C37  1  0.75176829  0.10132716  0.07357710  1  -0.057716  0  -0.079252  -0.177097  0  3.932469  0
C  C38  1  0.90657486  0.65501389  0.01853665  1  0.474515  0  0.047046  0.093089  0  4.010725  0
C  C39  1  0.92487257  0.15467027  0.98128741  1  0.55878  0  0.046962  0.093429  0  4.009368  0
C  C40  1  0.30812614  0.39665963  0.88829128  1  0.470112  0  0.048101  0.099075  0  3.993971  0
C  C41  1  0.19588993  0.89671769  0.11230445  1  0.477965  0  0.047643  0.098757  0  3.994235  0
C  C42  1  0.38598814  0.46144277  0.97593602  1  -0.010367  0  -0.076997  -0.168396  0  3.920151  0
C  C43  1  0.36139903  0.96122856  0.02420530  1  -0.032233  0  -0.077369  -0.168671  0  3.919272  0
C  C44  1  0.58356527  0.45598146  0.91192498  1  -0.129847  0  0.012959  0.102978  0  3.970822  0
C  C45  1  0.49549420  0.95553625  0.08784323  1  -0.067148  0  0.013317  0.102422  0  3.97141  0
C  C46  1  0.69286687  0.38664105  0.76103422  1  0.039057  0  -0.073666  -0.161087  0  3.908202  0
C  C47  1  0.45453082  0.88604141  0.23868657  1  0.002858  0  -0.073941  -0.161279  0  3.907646  0
C  C48  1  0.60172723  0.32113137  0.68518206  1  0.469207  0  0.052345  0.104159  0  3.978944  0
C  C49  1  0.28763855  0.82065239  0.31483870  1  0.475071  0  0.052836  0.104575  0  3.979155  0
N  N50  1  0.70452719  0.80662728  0.51922083  1  -1.263802  0  -0.469664  -0.461932  0  3.461709  0
N  N51  1  0.22344398  0.30635867  0.48096175  1  -1.276344  0  -0.470105  -0.463097  0  3.461576  0
N  N52  1  0.45698626  0.99174779  0.59784175  1  -1.242602  0  -0.463946  -0.459418  0  3.456951  0
N  N53  1  0.05434221  0.49177112  0.40265287  1  -1.273597  0  -0.464272  -0.459774  0  3.45766  0
N  N54  1  0.84621895  0.63141946  0.17914973  1  -1.242707  0  -0.367495  -0.315063  0  3.410579  0
N  N55  1  0.02497709  0.13106098  0.82070668  1  -1.25307  0  -0.367509  -0.315668  0  3.408314  0
N  N56  1  0.41225792  0.32473486  0.74659631  1  -1.230656  0  -0.389651  -0.330422  0  3.435315  0
N  N57  1  0.15900241  0.82460840  0.25388592  1  -1.254181  0  -0.389958  -0.330523  0  3.436397  0
