# generated using pymatgen
data_H12Rh2C8ClO8
_symmetry_space_group_name_H-M   'P 1'
_cell_length_a   7.55422650
_cell_length_b   7.55426192
_cell_length_c   12.50297668
_cell_angle_alpha   93.56522607
_cell_angle_beta   93.56626219
_cell_angle_gamma   107.85821392
_symmetry_Int_Tables_number   1
_chemical_formula_structural   H12Rh2C8ClO8
_chemical_formula_sum   'H24 Rh4 C16 Cl2 O16'
_cell_volume   675.32527663
_cell_formula_units_Z   2
loop_
 _symmetry_equiv_pos_site_id
 _symmetry_equiv_pos_as_xyz
  1  'x, y, z'
loop_
 _atom_site_type_symbol
 _atom_site_label
 _atom_site_symmetry_multiplicity
 _atom_site_fract_x
 _atom_site_fract_y
 _atom_site_fract_z
 _atom_site_occupancy
 _atom_site_hle17_ddec_charge
 _atom_site_hle17_ddec_spin_density
 _atom_site_hle17_ddec_sum_bond_order
 _atom_site_hle17_magmom
 _atom_site_hse06_10hf_ddec_charge
 _atom_site_hse06_10hf_ddec_spin_density
 _atom_site_hse06_10hf_ddec_sum_bond_order
 _atom_site_hse06_10hf_magmom
 _atom_site_hse06_ddec_charge
 _atom_site_hse06_ddec_spin_density
 _atom_site_hse06_ddec_sum_bond_order
 _atom_site_hse06_magmom
 _atom_site_pbe_cm5_charge
 _atom_site_pbe_ddec_charge
 _atom_site_pbe_ddec_spin_density
 _atom_site_pbe_ddec_sum_bond_order
 _atom_site_pbe_magmom
H  H0  1  0.76756620  0.54681695  0.70791655  1  0.15505  -2.9e-05  0.932947  0.0  0.175222  -2.2e-05  0.987059  0.0  0.177801  -1.3e-05  0.986539  0.0  0.107559  0.173323  -2.6e-05  0.987542  0.0
H  H1  1  0.45399276  0.23151368  0.79251439  1  0.154718  3.3e-05  0.934227  0.0  0.174941  2.2e-05  0.988138  0.0  0.177506  1.3e-05  0.987631  0.0  0.107453  0.173044  2.6e-05  0.988621  0.0
H  H2  1  0.23150324  0.45398964  0.29251923  1  0.154697  -2.9e-05  0.934228  0.0  0.174921  -2.2e-05  0.988149  0.0  0.177488  -1.3e-05  0.98764  0.0  0.107431  0.173025  -2.6e-05  0.988633  0.0
H  H3  1  0.54681410  0.76757034  0.20791802  1  0.155019  2.8e-05  0.932957  0.0  0.175195  2.2e-05  0.987073  0.0  0.177773  1.2e-05  0.986554  0.0  0.107553  0.173298  2.6e-05  0.987545  0.0
H  H4  1  0.57770483  0.60017972  0.64056895  1  0.136082  -9.5e-05  0.967888  0.0  0.153323  -6.6e-05  1.028287  0.0  0.155037  -6.3e-05  1.028406  0.0  0.100436  0.152109  -7e-05  1.02825  0.0
H  H5  1  0.40132782  0.42245466  0.85913071  1  0.137247  9.2e-05  0.96657  0.0  0.154333  6.6e-05  1.027052  0.0  0.156056  6.3e-05  1.027144  0.0  0.100648  0.1531  7.1e-05  1.027059  0.0
H  H6  1  0.42246332  0.40133620  0.35912578  1  0.137249  -9.2e-05  0.966514  0.0  0.154358  -6.7e-05  1.026986  0.0  0.15608  -6.3e-05  1.027081  0.0  0.100677  0.153125  -7.1e-05  1.026984  0.0
H  H7  1  0.60018561  0.57771504  0.14057198  1  0.136093  8.9e-05  0.967902  0.0  0.153348  6.6e-05  1.028274  0.0  0.155062  6.3e-05  1.028392  0.0  0.10045  0.152136  7e-05  1.028232  0.0
H  H8  1  0.79332795  0.63857887  0.58107012  1  0.166452  8.2e-05  0.920789  0.0  0.184369  0.000131  0.978093  0.0  0.186613  6.4e-05  0.977081  0.0  0.110621  0.182466  0.000168  0.979074  0.0
H  H9  1  0.36233008  0.20744024  0.91943051  1  0.16674  -8.5e-05  0.921784  0.0  0.184999  -0.000132  0.978606  0.0  0.187253  -6.5e-05  0.977598  0.0  0.110823  0.183091  -0.000169  0.979581  0.0
H  H10  1  0.20745861  0.36232697  0.41943603  1  0.166775  8.5e-05  0.92186  0.0  0.185024  0.000132  0.978692  0.0  0.187278  6.5e-05  0.977684  0.0  0.110877  0.183113  0.000169  0.97967  0.0
H  H11  1  0.63858639  0.79334197  0.08107350  1  0.166448  -8.4e-05  0.92074  0.0  0.184376  -0.000131  0.978052  0.0  0.186623  -6.4e-05  0.977041  0.0  0.110594  0.182469  -0.000169  0.979037  0.0
H  H12  1  0.61338037  0.15306689  0.15267798  1  0.157387  -2.3e-05  0.945724  0.0  0.172756  -9e-06  1.004644  0.0  0.175256  1.4e-05  1.004199  0.0  0.102482  0.170885  -2.2e-05  1.005082  0.0
H  H13  1  0.84570902  0.38619283  0.34714369  1  0.157462  2.1e-05  0.946112  0.0  0.172721  8e-06  1.005203  0.0  0.17523  -1.5e-05  1.004755  0.0  0.102456  0.170862  2.1e-05  1.005633  0.0
H  H14  1  0.38620011  0.84569781  0.84714027  1  0.157369  -2.3e-05  0.946267  0.0  0.172658  -8e-06  1.005305  0.0  0.175163  1.5e-05  1.004854  0.0  0.102398  0.170802  -2.1e-05  1.005735  0.0
H  H15  1  0.15306870  0.61339010  0.65267761  1  0.157407  2.3e-05  0.94559  0.0  0.172788  9e-06  1.004523  0.0  0.175294  -1.4e-05  1.004083  0.0  0.102532  0.170935  2.2e-05  1.00495  0.0
H  H16  1  0.43660550  0.25940817  0.18270952  1  0.149348  -8.8e-05  0.943905  0.0  0.166565  -0.000116  1.005976  0.0  0.168908  -8.7e-05  1.005769  0.0  0.1032  0.164701  -0.000137  1.006319  0.0
H  H17  1  0.73890745  0.56226601  0.31646896  1  0.148643  8.6e-05  0.944267  0.0  0.166055  0.000114  1.006285  0.0  0.168414  8.6e-05  1.006059  0.0  0.103189  0.164195  0.000134  1.006624  0.0
H  H18  1  0.56225972  0.73888262  0.81645910  1  0.148638  -8.7e-05  0.944299  0.0  0.165997  -0.000114  1.006375  0.0  0.168355  -8.6e-05  1.00615  0.0  0.103153  0.16414  -0.000134  1.006722  0.0
H  H19  1  0.25938110  0.43658967  0.68270397  1  0.149422  8.7e-05  0.943877  0.0  0.166654  0.000116  1.005927  0.0  0.168999  8.7e-05  1.005718  0.0  0.103241  0.164784  0.000137  1.006273  0.0
H  H20  1  0.36967651  0.02218830  0.13628271  1  0.169659  -0.000253  0.951507  0.0  0.184763  -0.000321  1.012345  0.0  0.187802  -0.000254  1.011224  0.0  0.106742  0.182301  -0.000363  1.013403  0.0
H  H21  1  0.97586273  0.63019611  0.36357833  1  0.169755  0.000252  0.949121  0.0  0.184727  0.00032  1.01031  0.0  0.187774  0.000253  1.009161  0.0  0.106636  0.182264  0.000363  1.011402  0.0
H  H22  1  0.63020964  0.97583630  0.86357177  1  0.169893  -0.00025  0.94906  0.0  0.184831  -0.00032  1.010266  0.0  0.187878  -0.000253  1.009115  0.0  0.106679  0.182371  -0.000363  1.011354  0.0
H  H23  1  0.02216291  0.36969711  0.63627808  1  0.169721  0.000256  0.951441  0.0  0.184802  0.000321  1.012311  0.0  0.187839  0.000254  1.011195  0.0  0.106727  0.182322  0.000363  1.0134  0.0
Rh  Rh24  1  0.65687152  0.00034525  0.49382555  1  0.794718  0.428614  3.053594  0.377  0.75102  0.435849  3.626457  0.393  0.804914  0.428351  3.563605  0.381  0.678586  0.71557  0.436471  3.665372  0.395
Rh  Rh25  1  0.00059632  0.34293448  0.00629803  1  0.793909  -0.427701  3.054207  -0.376  0.7498  -0.435233  3.627909  -0.392  0.804254  -0.427151  3.564366  -0.38  0.678127  0.714476  -0.436104  3.666645  -0.395
Rh  Rh26  1  0.34293385  0.00059464  0.50629779  1  0.79363  0.42769  3.054394  0.376  0.749806  0.435272  3.627976  0.392  0.804251  0.42721  3.564451  0.38  0.678109  0.714466  0.436122  3.666738  0.395
Rh  Rh27  1  0.00034477  0.65687163  0.99382631  1  0.794377  -0.428603  3.053898  -0.377  0.750918  -0.43589  3.626652  -0.393  0.804821  -0.428416  3.563783  -0.381  0.678543  0.715459  -0.436491  3.665568  -0.395
C  C28  1  0.62273361  0.35236430  0.57613958  1  0.71808  -0.001477  3.747909  -0.001  0.676944  -0.000997  4.050986  0.0  0.716279  -0.000917  4.041395  0.0  0.22468  0.650195  -0.000915  4.056858  0.0
C  C29  1  0.64866952  0.37705673  0.92398269  1  0.720668  0.001473  3.748369  0.001  0.67972  0.000994  4.050829  0.0  0.719101  0.000912  4.041193  0.0  0.22568  0.652932  0.000913  4.056742  0.0
C  C30  1  0.37706543  0.64867087  0.42398193  1  0.720395  -0.001475  3.748481  -0.001  0.679524  -0.000994  4.050886  0.0  0.718877  -0.000912  4.041297  0.0  0.225588  0.652759  -0.000912  4.056762  0.0
C  C31  1  0.35236672  0.62273545  0.07613699  1  0.718112  0.001483  3.747798  0.001  0.677003  0.000997  4.050846  0.0  0.716334  0.000917  4.041255  0.0  0.224636  0.650248  0.000915  4.056735  0.0
C  C32  1  0.48698936  0.08170875  0.29877487  1  0.710476  -0.001392  3.760609  -0.001  0.669159  -0.001001  4.06792  0.0  0.708839  -0.000799  4.058814  0.0  0.221365  0.642296  -0.000938  4.073651  0.0
C  C33  1  0.91824324  0.51262748  0.20117359  1  0.709761  0.001397  3.761051  0.001  0.668689  0.001005  4.068155  0.0  0.708334  0.000804  4.059122  0.0  0.221322  0.64184  0.000941  4.073858  0.0
C  C34  1  0.51263220  0.91823461  0.70116958  1  0.709914  -0.001397  3.760948  -0.001  0.668885  -0.001004  4.067973  0.0  0.708537  -0.000804  4.058924  0.0  0.221413  0.642041  -0.000941  4.073687  0.0
C  C35  1  0.08170142  0.48699273  0.79877326  1  0.71038  0.001391  3.76063  0.001  0.669124  0.001002  4.067831  0.0  0.708805  0.000799  4.058729  0.0  0.221388  0.642277  0.000938  4.073553  0.0
C  C36  1  0.69388081  0.54603800  0.62928675  1  -0.444828  -0.000379  3.623884  0.0  -0.518612  -0.000162  3.853785  0.0  -0.52608  -6.4e-05  3.855854  0.0  -0.239108  -0.513119  -0.000183  3.852337  0.0
C  C37  1  0.45502776  0.30608345  0.87088525  1  -0.446583  0.000384  3.627056  0.0  -0.520398  0.000163  3.85647  0.0  -0.527887  6.6e-05  3.858493  0.0  -0.239595  -0.514901  0.000185  3.855062  0.0
C  C38  1  0.30608690  0.45503039  0.37088560  1  -0.446566  -0.000389  3.627154  0.0  -0.520418  -0.000162  3.856565  0.0  -0.527894  -6.6e-05  3.858592  0.0  -0.239657  -0.514928  -0.000185  3.855148  0.0
C  C39  1  0.54604116  0.69388500  0.12928716  1  -0.4448  0.000391  3.623822  0.0  -0.518629  0.000161  3.85376  0.0  -0.526097  6.5e-05  3.85582  0.0  -0.239095  -0.513144  0.000183  3.852312  0.0
C  C40  1  0.47851151  0.13275315  0.18554926  1  -0.460744  -0.001129  3.610894  -0.001  -0.53208  -0.001149  3.838413  -0.001  -0.541264  -0.000979  3.840829  -0.001  -0.244491  -0.525318  -0.001207  3.836835  -0.001
C  C41  1  0.86595964  0.52094449  0.31415005  1  -0.459671  0.001112  3.609351  0.001  -0.531235  0.00113  3.837415  0.001  -0.540427  0.000961  3.839777  0.001  -0.244034  -0.524515  0.001188  3.835866  0.001
C  C42  1  0.52094874  0.86594254  0.81414590  1  -0.459716  -0.00111  3.609513  -0.001  -0.531252  -0.00113  3.837567  -0.001  -0.540442  -0.00096  3.839927  -0.001  -0.243963  -0.524528  -0.001187  3.836009  -0.001
C  C43  1  0.13273913  0.47851707  0.68554689  1  -0.460805  0.001124  3.610747  0.001  -0.532194  0.001149  3.838309  0.001  -0.541391  0.000978  3.840731  0.001  -0.244542  -0.525428  0.001207  3.836759  0.001
Cl  Cl44  1  0.00009228  0.00070696  0.50013113  1  -0.361239  0.154035  0.887106  0.168  -0.379445  0.114944  1.140714  0.126  -0.367274  0.142777  1.107157  0.16  -0.239981  -0.381183  0.104316  1.16191  0.112
Cl  Cl45  1  0.00070887  0.00009409  0.00013756  1  -0.361212  -0.154033  0.887081  -0.168  -0.379424  -0.11494  1.140699  -0.126  -0.36726  -0.142771  1.107138  -0.16  -0.239986  -0.381166  -0.104314  1.161894  -0.112
O  O46  1  0.74266856  0.27470811  0.54650054  1  -0.518228  0.003675  2.162513  0.004  -0.470946  0.005118  2.425898  0.005  -0.504862  0.005028  2.421068  0.006  -0.286575  -0.448631  0.005348  2.428791  0.005
O  O47  1  0.72643834  0.25703704  0.95330931  1  -0.518854  -0.003599  2.161113  -0.004  -0.471815  -0.005066  2.424615  -0.005  -0.50582  -0.004976  2.419727  -0.006  -0.286879  -0.449511  -0.005292  2.427503  -0.005
O  O48  1  0.25704169  0.72643412  0.45331379  1  -0.518788  0.003599  2.16106  0.004  -0.47176  0.005066  2.424529  0.005  -0.505753  0.004977  2.419658  0.006  -0.2869  -0.449465  0.005292  2.427415  0.005
O  O49  1  0.27470895  0.74267548  0.04649653  1  -0.51831  -0.003678  2.162403  -0.004  -0.471055  -0.00512  2.425794  -0.005  -0.504974  -0.00503  2.420963  -0.006  -0.286599  -0.44874  -0.00535  2.428698  -0.005
O  O50  1  0.64066103  0.06310903  0.33909435  1  -0.514853  0.002081  2.124947  0.001  -0.473453  0.00526  2.391376  0.005  -0.506971  0.002789  2.384044  0.002  -0.289133  -0.451858  0.006061  2.396036  0.005
O  O51  1  0.93678321  0.35890347  0.16088209  1  -0.514181  -0.002101  2.125256  -0.001  -0.472844  -0.005269  2.391496  -0.005  -0.506405  -0.002802  2.384066  -0.002  -0.288868  -0.451283  -0.006068  2.396169  -0.005
O  O52  1  0.35890226  0.93677881  0.66088134  1  -0.514266  0.002101  2.125131  0.001  -0.472966  0.005269  2.391376  0.005  -0.506529  0.002803  2.383946  0.002  -0.288903  -0.451408  0.006068  2.396064  0.005
O  O53  1  0.06309832  0.64066259  0.83909346  1  -0.514701  -0.00208  2.124841  -0.001  -0.473323  -0.005261  2.391227  -0.005  -0.506833  -0.002789  2.383877  -0.002  -0.289081  -0.45174  -0.006061  2.395901  -0.005
O  O54  1  0.44529100  0.27362492  0.56400172  1  -0.524682  0.003176  2.144267  0.003  -0.480213  0.005087  2.414886  0.005  -0.51392  0.00463  2.409557  0.005  -0.287678  -0.457947  0.005445  2.417845  0.005
O  O55  1  0.72730106  0.55455284  0.93641864  1  -0.525912  -0.003182  2.144928  -0.003  -0.481396  -0.0051  2.415226  -0.005  -0.51499  -0.004655  2.409828  -0.005  -0.288491  -0.459143  -0.00545  2.418293  -0.005
O  O56  1  0.55455662  0.72730572  0.43641260  1  -0.525712  0.003184  2.144866  0.003  -0.481306  0.005099  2.41522  0.005  -0.514888  0.004654  2.409834  0.005  -0.288388  -0.459054  0.005449  2.418267  0.005
O  O57  1  0.27363262  0.44530263  0.06400094  1  -0.524625  -0.003183  2.144278  -0.003  -0.480152  -0.005086  2.414887  -0.005  -0.51386  -0.004628  2.409552  -0.005  -0.287643  -0.457887  -0.005444  2.417852  -0.005
O  O58  1  0.34077218  0.06021194  0.34963257  1  -0.513215  0.003663  2.132731  0.004  -0.469007  0.004686  2.394549  0.005  -0.50495  0.00376  2.391095  0.005  -0.288644  -0.446287  0.004973  2.397293  0.005
O  O59  1  0.94091906  0.65919125  0.15048719  1  -0.512895  -0.003683  2.13174  -0.004  -0.468614  -0.004701  2.393083  -0.005  -0.504477  -0.003766  2.389739  -0.005  -0.288487  -0.445884  -0.004993  2.39582  -0.005
O  O60  1  0.65918627  0.94091154  0.65048490  1  -0.512986  0.003687  2.131782  0.004  -0.468692  0.004699  2.393095  0.005  -0.504553  0.003766  2.389748  0.005  -0.288555  -0.445976  0.004991  2.395857  0.005
O  O61  1  0.06021602  0.34077889  0.84963286  1  -0.513321  -0.003664  2.132691  -0.004  -0.469089  -0.004686  2.394462  -0.005  -0.505029  -0.003759  2.390996  -0.005  -0.288716  -0.446376  -0.004971  2.397212  -0.005
