# generated using pymatgen
data_Al6H33C66O34F5
_symmetry_space_group_name_H-M   'P 1'
_cell_length_a   10.40286537
_cell_length_b   12.39988861
_cell_length_c   23.73424019
_cell_angle_alpha   89.33857819
_cell_angle_beta   84.86099127
_cell_angle_gamma   66.62140699
_symmetry_Int_Tables_number   1
_chemical_formula_structural   Al6H33C66O34F5
_chemical_formula_sum   'Al6 H33 C66 O34 F5'
_cell_volume   2797.97558584
_cell_formula_units_Z   1
loop_
 _symmetry_equiv_pos_site_id
 _symmetry_equiv_pos_as_xyz
  1  'x, y, z'
loop_
 _atom_site_type_symbol
 _atom_site_label
 _atom_site_symmetry_multiplicity
 _atom_site_fract_x
 _atom_site_fract_y
 _atom_site_fract_z
 _atom_site_occupancy
 _atom_site_pbe_bader_charge
 _atom_site_pbe_bader_spin_density
 _atom_site_pbe_cm5_charge
 _atom_site_pbe_ddec_charge
 _atom_site_pbe_ddec_spin_density
 _atom_site_pbe_ddec_sum_bond_order
 _atom_site_pbe_magmom
Al  Al0  1  0.78900586  0.59598863  0.50035711  1  2.495744  0  0.400533  1.684979  0  2.547906  0
Al  Al1  1  0.06121710  0.35348368  0.49758500  1  2.48048  0  0.50529  1.663328  0  2.5154  0
Al  Al2  1  0.10412381  0.57894250  0.49152829  1  2.483493  0  0.509779  1.668604  0  2.496258  0
Al  Al3  1  0.87026937  0.02045725  0.98217203  1  2.495686  0  0.399484  1.683255  0  2.557618  0
Al  Al4  1  0.55060184  0.03806491  0.99567011  1  2.481336  0  0.50788  1.660333  0  2.505949  0
Al  Al5  1  0.59601108  0.26100315  0.99608979  1  2.476613  0  0.504779  1.659494  0  2.516208  0
H  H6  1  0.37769614  0.39965461  0.14094548  1  0.122789  0  0.11845  0.12763  0  1.000814  0
H  H7  1  0.59448488  0.53030635  0.76338346  1  0.05816  0  0.105623  0.103882  0  1.005235  0
H  H8  1  0.63929181  0.55303747  0.65910071  1  0.090037  0  0.112177  0.11836  0  0.999621  0
H  H9  1  0.01545706  0.23681955  0.65177157  1  0.136851  0  0.113142  0.122481  0  1.001645  0
H  H10  1  0.22654298  0.11833183  0.25118218  1  0.108594  0  0.110277  0.116035  0  0.990527  0
H  H11  1  0.23314805  0.58701067  0.70386576  1  0.063631  0  0.100097  0.102409  0  1.027416  0
H  H12  1  0.41825777  0.52369512  0.68149458  1  0.074876  0  0.104624  0.109897  0  1.002834  0
H  H13  1  0.35498869  0.61076868  0.74595161  1  0.040092  0  0.112816  0.120765  0  0.971341  0
H  H14  1  0.46154447  0.83386214  0.89105081  1  0.066932  0  0.097848  0.099378  0  0.995904  0
H  H15  1  0.37834037  0.85486096  0.82581565  1  0.053557  0  0.088359  0.08215  0  1.011084  0
H  H16  1  0.30016199  0.95780636  0.88440443  1  0.103446  0  0.115088  0.134586  0  0.969852  0
H  H17  1  0.95788175  0.32029264  0.23417401  1  0.117767  0  0.114527  0.140523  0  0.998576  0
H  H18  1  0.55685426  0.50325486  0.25259754  1  0.043887  0  0.095488  0.090808  0  1.026271  0
H  H19  1  0.53102125  0.55831025  0.18199635  1  0.047736  0  0.107575  0.116061  0  0.979621  0
H  H20  1  0.57195660  0.40589868  0.19453414  1  0.090148  0  0.095046  0.095536  0  1.038509  0
H  H21  1  0.18417864  0.68091408  0.34024059  1  0.083873  0  0.093641  0.094938  0  1.042802  0
H  H22  1  0.32541726  0.67811219  0.29001303  1  0.067718  0  0.095275  0.093935  0  1.019127  0
H  H23  1  0.33683584  0.69097756  0.36491144  1  0.077328  0  0.117921  0.130989  0  0.954773  0
H  H24  1  0.80233799  0.59812393  0.16952802  1  0.095634  0  0.10413  0.10816  0  0.981717  0
H  H25  1  0.63261556  0.68632254  0.20457407  1  0.05879  0  0.103399  0.102782  0  0.988613  0
H  H26  1  0.74183167  0.55042804  0.23453109  1  0.082799  0  0.108244  0.115579  0  1.009639  0
H  H27  1  0.57806751  0.28181405  0.34587878  1  0.057156  0  0.100379  0.106762  0  1.006386  0
H  H28  1  0.30704054  0.19860664  0.74092258  1  0.120174  0  0.118715  0.143798  0  0.993305  0
H  H29  1  0.70608907  0.13241690  0.33938111  1  0.063649  0  0.104923  0.110979  0  0.977297  0
H  H30  1  0.55051457  0.17661191  0.30243186  1  0.103407  0  0.106974  0.117696  0  0.991685  0
H  H31  1  0.94895389  0.85070943  0.82903854  1  0.109731  0  0.119342  0.134163  0  0.982052  0
H  H32  1  0.09101033  0.79258050  0.73729667  1  0.058049  0  0.10856  0.111853  0  0.994458  0
H  H33  1  0.11131124  0.73692052  0.63490290  1  0.125827  0  0.114766  0.124553  0  0.990496  0
H  H34  1  0.65840171  0.41371802  0.84951108  1  0.111869  0  0.114786  0.126335  0  0.989068  0
H  H35  1  0.29288595  0.08682924  0.14738139  1  0.118811  0  0.116811  0.125757  0  0.980278  0
H  H36  1  0.04179520  0.10144350  0.84307086  1  0.1431  0  0.125625  0.15809  0  0.977449  0
H  H37  1  0.56844756  0.73798704  0.53158124  1  0.583128  0  0.292893  0.384515  0  0.923096  0
H  H38  1  0.09317743  0.88913450  0.00319802  1  0.569572  0  0.293612  0.382288  0  0.924218  0
C  C39  1  0.85515215  0.37696641  0.42816129  1  1.702927  0  0.285635  0.696638  0  4.169252  0
C  C40  1  0.82452062  0.77741589  0.22391754  1  0.674232  0  0.094893  0.151406  0  4.152142  0
C  C41  1  0.87268745  0.83766692  0.25918223  1  0.588655  0  0.090776  0.163959  0  4.142281  0
C  C42  1  0.23017840  0.40076740  0.40648210  1  1.567471  0  0.27812  0.683948  0  4.060303  0
C  C43  1  0.89372791  0.80890463  0.31531240  1  -0.18497  0  -0.025863  -0.074439  0  4.146322  0
C  C44  1  0.79734143  0.81123966  0.16811842  1  -0.038398  0  -0.020293  -0.064727  0  4.117918  0
C  C45  1  0.90454991  0.77316503  0.36362008  1  0.005353  0  -0.010773  -0.127204  0  3.895397  0
C  C46  1  0.83740731  0.24615991  0.12369264  1  0.089669  0  -0.040519  -0.223568  0  3.911775  0
C  C47  1  0.87669462  0.28838843  0.22728328  1  0.183679  0  -0.104239  -0.248315  0  4.09375  0
C  C48  1  0.79700999  0.27441801  0.27375015  1  0.577497  0  0.102531  0.264305  0  4.150005  0
C  C49  1  0.81376563  0.30690737  0.32867225  1  0.14009  0  -0.015886  -0.074352  0  4.080783  0
C  C50  1  0.31958158  0.45587198  0.31136924  1  0.607711  0  0.090037  0.155216  0  4.048701  0
C  C51  1  0.85757066  0.26440502  0.17192457  1  -0.39481  0  -0.016404  0.073695  0  4.161001  0
C  C52  1  0.82504185  0.33756632  0.37589525  1  -0.378488  0  -0.010563  -0.129621  0  3.885027  0
C  C53  1  0.35743680  0.25467715  0.86978903  1  0.254391  0  -0.033646  -0.210108  0  3.895668  0
C  C54  1  0.91870161  0.71442984  0.41657273  1  1.678129  0  0.272619  0.684352  0  4.189366  0
C  C55  1  0.32419900  0.26928352  0.76159613  1  0.158205  0  -0.082428  -0.205688  0  4.026139  0
C  C56  1  0.33226964  0.35878553  0.72844865  1  0.650559  0  0.114828  0.278504  0  4.111224  0
C  C57  1  0.31687043  0.36016046  0.66983946  1  0.162814  0  -0.008936  -0.0657  0  4.053495  0
C  C58  1  0.33989506  0.26388178  0.81935375  1  -0.471237  0  -0.008237  0.081193  0  4.123619  0
C  C59  1  0.30117522  0.36851392  0.61935802  1  -0.401924  0  -0.011387  -0.138323  0  3.882778  0
C  C60  1  0.72784366  0.89780879  0.84092169  1  -0.035243  0  -0.012549  -0.111377  0  3.964642  0
C  C61  1  0.24887772  0.29079354  0.31546518  1  0.497113  0  0.115303  0.238503  0  4.012127  0
C  C62  1  0.89233799  0.77078879  0.63362317  1  0.047835  0  -0.023563  -0.162923  0  3.970787  0
C  C63  1  0.99944821  0.79695236  0.71680932  1  0.017984  0  -0.091205  -0.146916  0  4.010781  0
C  C64  1  0.01093675  0.76686108  0.66065270  1  -0.066761  0  -0.084232  -0.082373  0  4.013951  0
C  C65  1  0.76201376  0.81214836  0.66497366  1  0.468354  0  0.123906  0.270238  0  3.974458  0
C  C66  1  0.85404461  0.41131709  0.58849682  1  1.551782  0  0.268361  0.636477  0  4.095412  0
C  C67  1  0.74481144  0.84540738  0.72319975  1  0.013025  0  -0.017663  -0.131896  0  4.031929  0
C  C68  1  0.86808317  0.83398808  0.74996048  1  0.024551  0  -0.002255  0.110526  0  4.032913  0
C  C69  1  0.85584529  0.86008627  0.80831644  1  0.018807  0  -0.07427  -0.133962  0  3.937712  0
C  C70  1  0.60265782  0.91652108  0.81454896  1  0.573904  0  0.083368  0.122752  0  4.067112  0
C  C71  1  0.61483916  0.88920053  0.75713805  1  0.557298  0  0.094518  0.15075  0  4.034784  0
C  C72  1  0.27025123  0.27512339  0.25587310  1  -0.013794  0  -0.018214  -0.046182  0  4.059225  0
C  C73  1  0.84629185  0.25767982  0.85183690  1  0.018751  0  -0.009261  -0.013762  0  4.005955  0
C  C74  1  0.82824424  0.39403871  0.64991946  1  -0.03312  0  -0.013243  -0.039084  0  3.985672  0
C  C75  1  0.68592391  0.46659770  0.73865624  1  -0.070442  0  -0.083521  -0.124764  0  3.987401  0
C  C76  1  0.70952445  0.47891070  0.68149759  1  0.007333  0  -0.083737  -0.100488  0  3.992078  0
C  C77  1  0.92371703  0.30000915  0.67645909  1  -0.004169  0  -0.071591  -0.112699  0  3.925892  0
C  C78  1  0.24925505  0.38955288  0.56450294  1  1.679987  0  0.286127  0.705831  0  4.164884  0
C  C79  1  0.90197196  0.28701000  0.73527005  1  0.004594  0  -0.01063  -0.029948  0  4.012823  0
C  C80  1  0.77962889  0.37032912  0.76726363  1  0.042697  0  0.000823  0.099459  0  4.005183  0
C  C81  1  0.75389534  0.35355061  0.82553163  1  -0.069894  0  -0.073771  -0.14634  0  3.924867  0
C  C82  1  0.97046305  0.17632638  0.82154376  1  0.042205  0  -0.089329  -0.225668  0  3.969555  0
C  C83  1  0.30971189  0.35771067  0.22416021  1  -0.013919  0  -0.004985  0.020604  0  4.025852  0
C  C84  1  0.99506302  0.19294578  0.76521895  1  0.390201  0  0.101911  0.242136  0  4.06278  0
C  C85  1  0.74638069  0.89353623  0.06533239  1  1.673544  0  0.280259  0.705127  0  4.173297  0
C  C86  1  0.40451446  0.21380265  0.07906175  1  1.54679  0  0.280741  0.648592  0  4.073262  0
C  C87  1  0.80257207  0.21754376  0.07015135  1  1.666782  0  0.275754  0.716517  0  4.155673  0
C  C88  1  0.72625019  0.92422879  0.90236086  1  1.576713  0  0.275135  0.652971  0  4.075832  0
C  C89  1  0.41274231  0.22949289  0.92353173  1  1.60069  0  0.280154  0.717202  0  4.150656  0
C  C90  1  0.91606640  0.72008615  0.57518505  1  1.567135  0  0.27004  0.656306  0  4.087899  0
C  C91  1  0.81014236  0.22962553  0.91062532  1  1.579115  0  0.276409  0.638559  0  4.091634  0
C  C92  1  0.34049008  0.24187198  0.13840994  1  0.001221  0  -0.010295  -0.041266  0  3.978988  0
C  C93  1  0.27079484  0.37867208  0.34451591  1  0.033032  0  -0.026024  -0.257288  0  3.949976  0
C  C94  1  0.34282248  0.33958409  0.16509202  1  -0.000693  0  -0.066229  -0.103658  0  3.896291  0
C  C95  1  0.33007739  0.44895812  0.25261963  1  0.510322  0  0.070735  0.080334  0  4.052247  0
C  C96  1  0.33912752  0.54823406  0.71810754  1  0.394944  0  -0.133421  -0.182496  0  3.879108  0
C  C97  1  0.39938067  0.89898353  0.86170730  1  0.345952  0  -0.134204  -0.166228  0  3.889218  0
C  C98  1  0.51651696  0.49575286  0.21218948  1  0.379015  0  -0.142094  -0.183425  0  3.895764  0
C  C99  1  0.29854074  0.65236759  0.33239795  1  0.338071  0  -0.135014  -0.165506  0  3.861259  0
C  C100  1  0.74114139  0.62674126  0.21083756  1  0.335782  0  -0.132836  -0.177859  0  3.893176  0
C  C101  1  0.62929628  0.20448327  0.31734711  1  0.353058  0  -0.135244  -0.178012  0  3.874906  0
C  C102  1  0.29528579  0.16242153  0.16945129  1  0.026906  0  -0.077871  -0.090043  0  3.95774  0
C  C103  1  0.25949485  0.17955650  0.22694205  1  -0.082796  0  -0.082703  -0.108891  0  3.984099  0
C  C104  1  0.77100484  0.84121678  0.11990505  1  -0.131343  0  -0.009133  -0.130608  0  3.880341  0
O  O105  1  0.82660254  0.67480023  0.43156946  1  -1.205289  0  -0.202508  -0.538632  0  2.287697  0
O  O106  1  0.44777656  0.28675711  0.05400339  1  -1.271339  0  -0.232428  -0.600396  0  2.316249  0
O  O107  1  0.68933548  0.29498768  0.05192668  1  -1.261911  0  -0.2462  -0.61272  0  2.226727  0
O  O108  1  0.77699906  0.47821838  0.44740281  1  -1.206374  0  -0.191217  -0.511836  0  2.258166  0
O  O109  1  0.88644130  0.12950542  0.92750972  1  -1.247102  0  -0.209234  -0.550406  0  2.371637  0
O  O110  1  0.83124048  0.93864931  0.91800505  1  -1.233287  0  -0.213042  -0.554367  0  2.329411  0
O  O111  1  0.61727587  0.93177628  0.93544259  1  -1.271414  0  -0.243787  -0.610127  0  2.306763  0
O  O112  1  0.41725829  0.13530671  0.94767386  1  -1.239267  0  -0.225829  -0.590627  0  2.266612  0
O  O113  1  0.46127221  0.30090469  0.94284955  1  -1.23998  0  -0.235498  -0.599969  0  2.245764  0
O  O114  1  0.70115105  0.30506957  0.93934988  1  -1.269447  0  -0.244967  -0.607394  0  2.283748  0
O  O115  1  0.67117683  0.10623250  0.99215465  1  -1.610322  0  -0.390577  -1.267421  0  2.289515  0
O  O116  1  0.20544217  0.31449397  0.54629188  1  -1.238467  0  -0.22443  -0.578286  0  2.241803  0
O  O117  1  0.96606664  0.30334700  0.44899306  1  -1.247519  0  -0.233203  -0.592404  0  2.245755  0
O  O118  1  0.19960990  0.32480550  0.43507606  1  -1.262494  0  -0.237177  -0.604394  0  2.319483  0
O  O119  1  0.21918313  0.49895077  0.42757671  1  -1.260037  0  -0.227707  -0.592214  0  2.338538  0
O  O120  1  0.02602706  0.70351033  0.44325270  1  -1.249995  0  -0.241997  -0.607181  0  2.24387  0
O  O121  1  0.81684504  0.71012466  0.55188339  1  -1.238269  0  -0.222008  -0.584577  0  2.361229  0
O  O122  1  0.77646391  0.50764681  0.56833188  1  -1.242472  0  -0.217162  -0.569762  0  2.35655  0
O  O123  1  0.95675554  0.32810469  0.56034660  1  -1.283935  0  -0.250048  -0.615644  0  2.293664  0
O  O124  1  0.35414939  0.44798395  0.75244363  1  -1.040115  0  -0.16549  -0.136593  0  2.527724  0
O  O125  1  0.47201609  0.97193408  0.84192783  1  -1.073229  0  -0.196609  -0.171401  0  2.618704  0
O  O126  1  0.36703937  0.52662566  0.22025888  1  -1.080145  0  -0.207775  -0.17886  0  2.555713  0
O  O127  1  0.24267719  0.48340857  0.53991710  1  -1.236058  0  -0.218966  -0.573413  0  2.238676  0
O  O128  1  0.36697675  0.52660001  0.33866904  1  -1.065037  0  -0.193814  -0.160336  0  2.580267  0
O  O129  1  0.80434343  0.68261844  0.24555409  1  -1.02904  0  -0.168936  -0.120807  0  2.5412  0
O  O130  1  0.69650515  0.23270146  0.26692121  1  -1.038083  0  -0.169531  -0.145707  0  2.54671  0
O  O131  1  0.04492576  0.68287964  0.55290661  1  -1.267789  0  -0.245368  -0.607871  0  2.285782  0
O  O132  1  0.98643667  0.50818520  0.49721532  1  -1.612453  0  -0.391683  -1.275256  0  2.308605  0
O  O133  1  0.88035116  0.12011673  0.04634558  1  -1.218131  0  -0.20988  -0.55581  0  2.273168  0
O  O134  1  0.84639082  0.91486758  0.04092887  1  -1.215302  0  -0.205849  -0.56027  0  2.305291  0
O  O135  1  0.62509576  0.91781071  0.04758097  1  -1.245592  0  -0.236173  -0.591427  0  2.232452  0
O  O136  1  0.42159418  0.11396456  0.05787297  1  -1.264563  0  -0.228758  -0.587195  0  2.298061  0
O  O137  1  0.60699258  0.67623732  0.50272233  1  -1.365265  0  -0.575697  -0.991897  0  1.786792  0
O  O138  1  0.05288720  0.93792170  0.97196567  1  -1.362061  0  -0.575381  -0.995198  0  1.800608  0
F  F139  1  0.49366706  0.91009602  0.73320174  1  -0.619305  0  -0.09565  -0.124782  0  1.390287  0
F  F140  1  0.64628856  0.82005626  0.64073098  1  -0.615474  0  -0.081389  -0.115547  0  1.399858  0
F  F141  1  0.11337278  0.11489179  0.73535805  1  -0.637569  0  -0.10017  -0.146895  0  1.327283  0
F  F142  1  0.20549742  0.21393196  0.34358861  1  -0.621574  0  -0.07829  -0.109574  0  1.398214  0
F  F143  1  0.90292616  0.92863318  0.23792827  1  -0.611641  0  -0.099169  -0.126864  0  1.325659  0
