# generated using pymatgen
data_SrH6C4N8O9
_symmetry_space_group_name_H-M   'P 1'
_cell_length_a   6.61041375
_cell_length_b   7.00494508
_cell_length_c   14.80746408
_cell_angle_alpha   78.89097153
_cell_angle_beta   77.13291084
_cell_angle_gamma   61.83864046
_symmetry_Int_Tables_number   1
_chemical_formula_structural   SrH6C4N8O9
_chemical_formula_sum   'Sr2 H12 C8 N16 O18'
_cell_volume   586.25348475
_cell_formula_units_Z   2
loop_
 _symmetry_equiv_pos_site_id
 _symmetry_equiv_pos_as_xyz
  1  'x, y, z'
loop_
 _atom_site_type_symbol
 _atom_site_label
 _atom_site_symmetry_multiplicity
 _atom_site_fract_x
 _atom_site_fract_y
 _atom_site_fract_z
 _atom_site_occupancy
 _atom_site_hle17_bader_spin_density
 _atom_site_hle17_ddec_charge
 _atom_site_hle17_ddec_spin_density
 _atom_site_hle17_ddec_sum_bond_order
 _atom_site_hle17_magmom
 _atom_site_hse06_10hf_bader_spin_density
 _atom_site_hse06_10hf_ddec_charge
 _atom_site_hse06_10hf_ddec_spin_density
 _atom_site_hse06_10hf_ddec_sum_bond_order
 _atom_site_hse06_10hf_magmom
 _atom_site_hse06_bader_spin_density
 _atom_site_hse06_ddec_charge
 _atom_site_hse06_ddec_spin_density
 _atom_site_hse06_ddec_sum_bond_order
 _atom_site_hse06_magmom
 _atom_site_pbe_bader_spin_density
 _atom_site_pbe_cm5_charge
 _atom_site_pbe_ddec_charge
 _atom_site_pbe_ddec_spin_density
 _atom_site_pbe_ddec_sum_bond_order
 _atom_site_pbe_magmom
Sr  Sr0  1  0.56483307  0.75008392  0.24995488  1  0  1.563329  0  1.096227  0  0  1.39284  0  1.490024  0  0  1.429705  0  1.446991  0  0  0.93072  1.365768  0  1.520431  0
Sr  Sr1  1  0.43516612  0.24991592  0.75004505  1  0  1.563344  0  1.096204  0  0  1.39286  0  1.489995  0  0  1.429724  0  1.44696  0  0  0.93072  1.365792  0  1.520401  0
H  H2  1  0.12628181  0.84776463  0.39942245  1  0  0.424819  0  0.876493  0  0  0.390651  0  0.947361  0  0  0.400386  0  0.93293  0  0  0.303298  0.383768  0  0.957554  0
H  H3  1  0.37299551  0.65231997  0.10055440  1  0  0.424837  0  0.876648  0  0  0.390657  0  0.947703  0  0  0.400431  0  0.933208  0  0  0.303421  0.38376  0  0.957894  0
H  H4  1  0.87371592  0.15223683  0.60057808  1  0  0.424828  0  0.876477  0  0  0.390664  0  0.947338  0  0  0.400399  0  0.932907  0  0  0.303302  0.383783  0  0.957529  0
H  H5  1  0.62700150  0.34768150  0.89944530  1  0  0.424877  0  0.876597  0  0  0.390681  0  0.947676  0  0  0.400457  0  0.933183  0  0  0.303415  0.383786  0  0.957863  0
H  H6  1  0.97250483  0.82652993  0.28843590  1  0  0.428483  0  0.871855  0  0  0.400495  0  0.930618  0  0  0.411079  0  0.915086  0  0  0.295342  0.392985  0  0.94164  0
H  H7  1  0.08726315  0.67368571  0.21155799  1  0  0.429002  0  0.870605  0  0  0.400578  0  0.93021  0  0  0.411233  0  0.914561  0  0  0.295207  0.393012  0  0.941311  0
H  H8  1  0.02749358  0.17347153  0.71156396  1  0  0.42847  0  0.871863  0  0  0.400483  0  0.930623  0  0  0.411066  0  0.915092  0  0  0.295335  0.392974  0  0.941644  0
H  H9  1  0.91273318  0.32631575  0.78844239  1  0  0.428983  0  0.870632  0  0  0.400557  0  0.93024  0  0  0.411213  0  0.914589  0  0  0.295198  0.392991  0  0.941342  0
H  H10  1  0.02513850  0.07688731  0.33938430  1  0  0.427702  0  0.871806  0  0  0.386379  0  0.953193  0  0  0.398485  0  0.935285  0  0  0.299102  0.377747  0  0.965964  0
H  H11  1  0.44108587  0.42320236  0.16059821  1  0  0.428024  0  0.871579  0  0  0.387099  0  0.952403  0  0  0.399182  0  0.934537  0  0  0.299145  0.378482  0  0.965142  0
H  H12  1  0.97485991  0.92311415  0.66061556  1  0  0.427709  0  0.871796  0  0  0.386387  0  0.953182  0  0  0.398494  0  0.935273  0  0  0.299106  0.377753  0  0.965955  0
H  H13  1  0.55891399  0.57679748  0.83940105  1  0  0.42801  0  0.871603  0  0  0.387083  0  0.952428  0  0  0.399167  0  0.934563  0  0  0.299142  0.378465  0  0.96517  0
C  C14  1  0.84262997  0.82175480  0.98146433  1  0  0.282126  0  3.827949  0  0  0.251831  0  4.130544  0  0  0.264012  0  4.141752  0  0  0.222422  0.243606  0  4.123136  0
C  C15  1  0.64582224  0.67825099  0.51856928  1  0  0.280904  0  3.828627  0  0  0.251916  0  4.129303  0  0  0.264114  0  4.140612  0  0  0.222868  0.243701  0  4.121854  0
C  C16  1  0.15737356  0.17824178  0.01853606  1  0  0.282179  0  3.827894  0  0  0.251862  0  4.130525  0  0  0.264041  0  4.141734  0  0  0.222428  0.243637  0  4.123112  0
C  C17  1  0.35418026  0.32175210  0.48143031  1  0  0.280962  0  3.828517  0  0  0.251894  0  4.129347  0  0  0.264075  0  4.14065  0  0  0.222819  0.243707  0  4.121864  0
C  C18  1  0.98146746  0.59438654  0.96666142  1  0  0.090384  0  3.718991  0  0  0.078605  0  3.983649  0  0  0.082716  0  3.993848  0  0  0.135604  0.075736  0  3.977087  0
C  C19  1  0.54254103  0.90560747  0.53335780  1  0  0.090304  0  3.718854  0  0  0.078517  0  3.982774  0  0  0.082523  0  3.993294  0  0  0.13538  0.075653  0  3.976168  0
C  C20  1  0.01853234  0.40561493  0.03333860  1  0  0.090471  0  3.718915  0  0  0.078677  0  3.9836  0  0  0.08279  0  3.9938  0  0  0.13564  0.075809  0  3.977031  0
C  C21  1  0.45746710  0.09439399  0.46664165  1  0  0.090306  0  3.718746  0  0  0.078445  0  3.982781  0  0  0.082523  0  3.993241  0  0  0.13531  0.07555  0  3.976193  0
N  N22  1  0.08012246  0.57993375  0.87883516  1  0  -0.157102  0  2.788671  0  0  -0.154176  0  3.069822  0  0  -0.150189  0  3.073801  0  0  -0.183264  -0.157506  0  3.067348  0
N  N23  1  0.53903564  0.92010302  0.62117807  1  0  -0.156991  0  2.789996  0  0  -0.15437  0  3.071628  0  0  -0.150452  0  3.075712  0  0  -0.183417  -0.157607  0  3.069133  0
N  N24  1  0.91988040  0.42006283  0.12116590  1  0  -0.157114  0  2.788716  0  0  -0.154187  0  3.069886  0  0  -0.150205  0  3.073866  0  0  -0.183278  -0.157501  0  3.067409  0
N  N25  1  0.46097110  0.07989845  0.37882122  1  0  -0.156975  0  2.789928  0  0  -0.15432  0  3.071567  0  0  -0.150423  0  3.075632  0  0  -0.183376  -0.157551  0  3.069085  0
N  N26  1  0.86095750  0.94027971  0.90135667  1  0  -0.199376  0  2.698696  0  0  -0.207919  0  2.992477  0  0  -0.208575  0  2.998292  0  0  -0.187646  -0.208446  0  2.9889  0
N  N27  1  0.70277287  0.55973623  0.59867945  1  0  -0.197387  0  2.698362  0  0  -0.20646  0  2.991816  0  0  -0.207164  0  2.997632  0  0  -0.187369  -0.206918  0  2.988245  0
N  N28  1  0.13904325  0.05971687  0.09864340  1  0  -0.199421  0  2.698686  0  0  -0.207926  0  2.99244  0  0  -0.208586  0  2.998253  0  0  -0.187642  -0.208437  0  2.988861  0
N  N29  1  0.29722129  0.44026686  0.40132070  1  0  -0.19744  0  2.698401  0  0  -0.206487  0  2.991883  0  0  -0.207196  0  2.997707  0  0  -0.187381  -0.20695  0  2.988304  0
N  N30  1  0.71225978  0.88714435  0.06569075  1  0  -0.438776  0  2.932409  0  0  -0.429439  0  3.233003  0  0  -0.44692  0  3.241972  0  0  -0.254392  -0.417394  0  3.226688  0
N  N31  1  0.66498205  0.61291489  0.43431861  1  0  -0.438254  0  2.931925  0  0  -0.429471  0  3.232008  0  0  -0.446876  0  3.240925  0  0  -0.253781  -0.417439  0  3.225706  0
N  N32  1  0.28774226  0.11285386  0.93430873  1  0  -0.438833  0  2.932352  0  0  -0.4295  0  3.232971  0  0  -0.446979  0  3.241937  0  0  -0.254418  -0.417456  0  3.226656  0
N  N33  1  0.33501697  0.38708821  0.56568134  1  0  -0.438307  0  2.931934  0  0  -0.429487  0  3.232032  0  0  -0.44689  0  3.240951  0  0  -0.253768  -0.417462  0  3.225723  0
N  N34  1  0.62617629  0.09410434  0.07847622  1  0  0.638666  0  4.009418  0  0  0.653511  0  4.318354  0  0  0.678277  0  4.32943  0  0  0.109492  0.637006  0  4.310374  0
N  N35  1  0.79866195  0.40598263  0.42149811  1  0  0.63816  0  4.012448  0  0  0.653135  0  4.321271  0  0  0.677903  0  4.332308  0  0  0.108948  0.636628  0  4.31329  0
N  N36  1  0.37382367  0.90589388  0.92152378  1  0  0.63868  0  4.009358  0  0  0.653533  0  4.318294  0  0  0.678299  0  4.329371  0  0  0.109518  0.63703  0  4.310312  0
N  N37  1  0.20133645  0.59401883  0.57850175  1  0  0.63819  0  4.012486  0  0  0.653172  0  4.321297  0  0  0.677941  0  4.332334  0  0  0.108924  0.636665  0  4.313318  0
O  O38  1  0.00842448  0.79060066  0.83835014  1  0  0.020433  0  2.314033  0  0  0.094857  0  2.552044  0  0  0.080383  0  2.559237  0  0  0.089669  0.105948  0  2.54597  0
O  O39  1  0.63762202  0.70944797  0.66168221  1  0  0.0192  0  2.313912  0  0  0.093571  0  2.552304  0  0  0.079302  0  2.559311  0  0  0.089061  0.104496  0  2.546433  0
O  O40  1  0.99157626  0.20939592  0.16164994  1  0  0.020406  0  2.314088  0  0  0.094798  0  2.552118  0  0  0.080329  0  2.559304  0  0  0.089647  0.105857  0  2.546066  0
O  O41  1  0.36237571  0.29055350  0.33831833  1  0  0.019219  0  2.31393  0  0  0.093586  0  2.552291  0  0  0.079322  0  2.559301  0  0  0.089074  0.104508  0  2.546422  0
O  O42  1  0.65583712  0.23831949  0.02009824  1  0  -0.451631  0  1.823538  0  0  -0.418803  0  2.045993  0  0  -0.43427  0  2.042301  0  0  -0.155979  -0.408041  0  2.048369  0
O  O43  1  0.91430999  0.26171834  0.47986630  1  0  -0.45124  0  1.825084  0  0  -0.419098  0  2.047511  0  0  -0.434737  0  2.044137  0  0  -0.155696  -0.408318  0  2.049889  0
O  O44  1  0.34416206  0.76168035  0.97990169  1  0  -0.451593  0  1.823517  0  0  -0.418777  0  2.045971  0  0  -0.434242  0  2.042276  0  0  -0.15597  -0.408019  0  2.048352  0
O  O45  1  0.08568919  0.73828150  0.52013363  1  0  -0.451254  0  1.82507  0  0  -0.419105  0  2.047481  0  0  -0.434744  0  2.044106  0  0  -0.15569  -0.408325  0  2.049858  0
O  O46  1  0.50563932  0.14373062  0.15890130  1  0  -0.512815  0  1.808381  0  0  -0.489082  0  2.050409  0  0  -0.506642  0  2.044157  0  0  -0.196728  -0.476769  0  2.054674  0
O  O47  1  0.80801532  0.35647362  0.34104316  1  0  -0.513143  0  1.808202  0  0  -0.488507  0  2.049203  0  0  -0.506062  0  2.043083  0  0  -0.197077  -0.476155  0  2.053362  0
O  O48  1  0.49436126  0.85626922  0.84109879  1  0  -0.512827  0  1.808383  0  0  -0.48909  0  2.050422  0  0  -0.506649  0  2.044169  0  0  -0.196737  -0.476779  0  2.054688  0
O  O49  1  0.19198092  0.64352947  0.65895647  1  0  -0.513147  0  1.808225  0  0  -0.48852  0  2.049248  0  0  -0.506075  0  2.043128  0  0  -0.197055  -0.47617  0  2.053412  0
O  O50  1  0.93464295  0.75019554  0.24997713  1  0  -0.915021  0  1.862728  0  0  -0.869969  0  2.066718  0  0  -0.889532  0  2.034508  0  0  -0.677598  -0.855775  0  2.089166  0
O  O51  1  0.06535545  0.24980592  0.75002273  1  0  -0.91498  0  1.862728  0  0  -0.869924  0  2.066719  0  0  -0.889488  0  2.034508  0  0  -0.677576  -0.85573  0  2.089165  0
O  O52  1  0.12963115  0.91937885  0.33534122  1  0  -0.876834  0  1.905717  0  0  -0.818038  0  2.098155  0  0  -0.838462  0  2.065706  0  0  -0.603314  -0.803366  0  2.120881  0
O  O53  1  0.38383966  0.58074333  0.16464883  1  0  -0.877828  0  1.906708  0  0  -0.819295  0  2.098238  0  0  -0.839852  0  2.065772  0  0  -0.603395  -0.804543  0  2.120998  0
O  O54  1  0.87036804  0.08062098  0.66465871  1  0  -0.87686  0  1.905706  0  0  -0.818067  0  2.098141  0  0  -0.838492  0  2.065692  0  0  -0.603328  -0.803398  0  2.12087  0
O  O55  1  0.61615943  0.41925813  0.83535035  1  0  -0.877856  0  1.906662  0  0  -0.819306  0  2.0982  0  0  -0.839866  0  2.065722  0  0  -0.603381  -0.804551  0  2.120962  0
