# generated using pymatgen
data_Zr3H28C40(N3O8)2
_symmetry_space_group_name_H-M   'P 1'
_cell_length_a   18.33080865
_cell_length_b   22.52237380
_cell_length_c   22.54351516
_cell_angle_alpha   93.68960140
_cell_angle_beta   90.04364943
_cell_angle_gamma   90.06738957
_symmetry_Int_Tables_number   1
_chemical_formula_structural   Zr3H28C40(N3O8)2
_chemical_formula_sum   'Zr6 H56 C80 N12 O32'
_cell_volume   9287.86464989
_cell_formula_units_Z   2
loop_
 _symmetry_equiv_pos_site_id
 _symmetry_equiv_pos_as_xyz
  1  'x, y, z'
loop_
 _atom_site_type_symbol
 _atom_site_label
 _atom_site_symmetry_multiplicity
 _atom_site_fract_x
 _atom_site_fract_y
 _atom_site_fract_z
 _atom_site_occupancy
 _atom_site_pbe_bader_charge
 _atom_site_pbe_bader_spin_density
 _atom_site_pbe_cm5_charge
 _atom_site_pbe_ddec_charge
 _atom_site_pbe_ddec_spin_density
 _atom_site_pbe_ddec_sum_bond_order
 _atom_site_pbe_magmom
Zr  Zr0  1  0.99474971  0.01155581  0.91448560  1  2.622407  0  1.565968  2.381062  0  2.707403  0
Zr  Zr1  1  0.99519697  0.90490417  0.02853427  1  2.618704  0  1.548837  2.380612  0  2.768889  0
Zr  Zr2  1  0.99379378  0.13335745  0.02515840  1  2.619667  0  1.57084  2.38161  0  2.707273  0
Zr  Zr3  1  0.99420710  0.02914950  0.13747671  1  2.605909  0  1.554374  2.354325  0  2.78325  0
Zr  Zr4  1  0.86067369  0.01891191  0.02643935  1  2.631416  0  1.62212  2.352828  0  2.855137  0
Zr  Zr5  1  0.12818805  0.02040263  0.02749408  1  2.633301  0  1.629115  2.360651  0  2.844104  0
H  H6  1  0.10322755  0.92985257  0.93665474  1  0.598219  0  0.328604  0.42084  0  0.862714  0
H  H7  1  0.88967072  0.93445700  0.11771583  1  0.610872  0  0.327983  0.426341  0  0.863751  0
H  H8  1  0.10136371  0.11167643  0.11821840  1  0.605156  0  0.330942  0.425779  0  0.854204  0
H  H9  1  0.88600418  0.10335020  0.94032365  1  0.619731  0  0.328847  0.419918  0  0.861671  0
H  H10  1  0.94342331  0.81983659  0.09025259  1  0.604027  0  0.288765  0.393151  0  0.911096  0
H  H11  1  0.04748976  0.97580196  0.23093789  1  0.654867  0  0.325365  0.418827  0  0.884194  0
H  H12  1  0.95445563  0.11544321  0.21677928  1  0.591959  0  0.293145  0.386681  0  0.918344  0
H  H13  1  0.99258458  0.16034702  0.14869518  1  0.634745  0  0.280452  0.406952  0  0.931801  0
H  H14  1  0.03646545  0.20471236  0.94305746  1  0.575485  0  0.298127  0.392361  0  0.908931  0
H  H15  1  0.99635811  0.13287701  0.89320892  1  0.650977  0  0.28213  0.408724  0  0.929164  0
H  H16  1  0.95448705  0.92566606  0.83540899  1  0.58401  0  0.297812  0.392697  0  0.908516  0
H  H17  1  0.99309232  0.87966307  0.90454362  1  0.646426  0  0.283112  0.408088  0  0.930244  0
H  H18  1  0.03387002  0.21614756  0.11945814  1  0.588875  0  0.327798  0.410333  0  0.872235  0
H  H19  1  0.95119231  0.09968978  0.83798775  1  0.617932  0  0.325533  0.406499  0  0.876608  0
H  H20  1  0.03308525  0.82328145  0.93364737  1  0.607808  0  0.332644  0.413681  0  0.866529  0
H  H21  1  0.96213714  0.97981005  0.24640765  1  0.626823  0  0.339191  0.423743  0  0.859513  0
H  H22  1  0.41913739  0.18925732  0.04513127  1  0.11148  0  0.105375  0.104117  0  1.020482  0
H  H23  1  0.29212995  0.34605153  0.02140394  1  0.073938  0  0.106075  0.106515  0  1.006881  0
H  H24  1  0.17763081  0.28486422  0.01923291  1  0.101071  0  0.104935  0.108082  0  0.995333  0
H  H25  1  0.30500093  0.12807851  0.04245902  1  0.101024  0  0.109885  0.115529  0  1.001492  0
H  H26  1  0.69803385  0.34279215  0.02461522  1  0.078704  0  0.105394  0.105415  0  1.007688  0
H  H27  1  0.56512076  0.18764476  0.04165782  1  0.096892  0  0.104105  0.102817  0  1.024741  0
H  H28  1  0.67717504  0.12442283  0.04102787  1  0.077214  0  0.10752  0.112569  0  1.002726  0
H  H29  1  0.81051022  0.27927603  0.02456655  1  0.094664  0  0.109557  0.115193  0  0.987913  0
H  H30  1  0.28837913  0.69666536  0.03771207  1  0.098717  0  0.105263  0.104864  0  1.005361  0
H  H31  1  0.42159592  0.84857086  0.00680197  1  0.084844  0  0.104244  0.102458  0  1.027995  0
H  H32  1  0.31047767  0.91320404  0.00939630  1  0.108232  0  0.107518  0.112255  0  1.002837  0
H  H33  1  0.17667880  0.76159326  0.03960808  1  0.110017  0  0.111054  0.11811  0  0.98515  0
H  H34  1  0.69642972  0.69689989  0.02522959  1  0.103831  0  0.105944  0.106075  0  1.004743  0
H  H35  1  0.56113563  0.85083020  0.01109409  1  0.094483  0  0.104426  0.102555  0  1.026513  0
H  H36  1  0.67229629  0.91555412  0.01142161  1  0.120933  0  0.106827  0.111737  0  1.001345  0
H  H37  1  0.80801611  0.76169068  0.02404574  1  0.072456  0  0.107762  0.111253  0  0.992605  0
H  H38  1  0.61178240  0.46426920  0.02359638  1  0.10506  0  0.105395  0.105368  0  1.010313  0
H  H39  1  0.37772370  0.46326224  0.03211326  1  0.096431  0  0.104952  0.105014  0  1.015294  0
H  H40  1  0.37656746  0.57452931  0.03043121  1  0.109323  0  0.105313  0.105028  0  1.012654  0
H  H41  1  0.61062610  0.57559197  0.02188878  1  0.107269  0  0.105401  0.105587  0  1.013022  0
H  H42  1  0.42675994  0.03110263  0.19600539  1  0.063227  0  0.105531  0.10342  0  1.021945  0
H  H43  1  0.29416013  0.01791646  0.35158713  1  0.080744  0  0.105954  0.10657  0  1.005585  0
H  H44  1  0.18171087  0.01696779  0.28834875  1  0.070695  0  0.102812  0.102004  0  1.001933  0
H  H45  1  0.31448083  0.02934311  0.13271537  1  0.066657  0  0.110222  0.116228  0  0.997553  0
H  H46  1  0.81400239  0.02296742  0.29101154  1  0.069055  0  0.100003  0.097984  0  1.005881  0
H  H47  1  0.68212042  0.04387623  0.13622959  1  0.082908  0  0.11092  0.116759  0  0.999515  0
H  H48  1  0.56954653  0.04195368  0.19878982  1  0.065747  0  0.106322  0.104826  0  1.023018  0
H  H49  1  0.70123096  0.02008861  0.35344707  1  0.112203  0  0.105694  0.106481  0  1.005241  0
H  H50  1  0.42377675  0.01161538  0.85961234  1  0.101598  0  0.103882  0.102231  0  1.025033  0
H  H51  1  0.29050553  0.02248895  0.70392111  1  0.052718  0  0.10471  0.104033  0  1.007744  0
H  H52  1  0.17812818  0.02415030  0.76765704  1  0.083095  0  0.109763  0.115036  0  0.987371  0
H  H53  1  0.31184869  0.01367358  0.92294489  1  0.083552  0  0.107619  0.113381  0  1.003653  0
H  H54  1  0.69743837  0.01833763  0.70113817  1  0.062593  0  0.105387  0.105887  0  1.007721  0
H  H55  1  0.56834074  0.00123884  0.85796512  1  0.093414  0  0.105843  0.104391  0  1.020659  0
H  H56  1  0.68212689  0.99937761  0.91918578  1  0.110129  0  0.109828  0.115651  0  1.00236  0
H  H57  1  0.81154469  0.01591987  0.76237350  1  0.095266  0  0.104118  0.106329  0  0.997903  0
H  H58  1  0.61159870  0.01299052  0.58385125  1  0.101383  0  0.104837  0.104455  0  1.014711  0
H  H59  1  0.37783967  0.02487069  0.58309115  1  0.110864  0  0.105913  0.106602  0  1.009723  0
H  H60  1  0.37909057  0.02708221  0.47191147  1  0.104491  0  0.104882  0.104455  0  1.012746  0
H  H61  1  0.61296834  0.01566031  0.47276697  1  0.108713  0  0.104826  0.104759  0  1.013617  0
C  C62  1  0.49434923  0.01721711  0.65539672  1  1.076772  0  0.257904  0.385411  0  4.005202  0
C  C63  1  0.43242782  0.01584110  0.74267445  1  1.114529  0  0.259268  0.386267  0  4.011953  0
C  C64  1  0.55694477  0.01267689  0.74197117  1  1.103089  0  0.259043  0.383948  0  4.025458  0
C  C65  1  0.49681946  0.02310670  0.40041596  1  1.090571  0  0.25758  0.382921  0  4.004432  0
C  C66  1  0.55981340  0.02775439  0.31403645  1  1.123229  0  0.259046  0.383285  0  4.025911  0
C  C67  1  0.43541792  0.02538636  0.31293458  1  1.101975  0  0.259657  0.383841  0  4.026365  0
C  C68  1  0.49291340  0.64712985  0.02467950  1  1.092529  0  0.256474  0.381083  0  4.004396  0
C  C69  1  0.55432049  0.73446101  0.02028011  1  1.111743  0  0.259931  0.387393  0  4.023744  0
C  C70  1  0.42984264  0.73372700  0.02218953  1  1.085487  0  0.259556  0.385425  0  4.02471  0
C  C71  1  0.49493772  0.39172734  0.02927716  1  1.030626  0  0.258312  0.385908  0  4.002344  0
C  C72  1  0.43182577  0.30513766  0.03272625  1  1.110691  0  0.258498  0.381976  0  4.02638  0
C  C73  1  0.55631279  0.30426583  0.03245047  1  1.097126  0  0.258733  0.38372  0  4.015573  0
C  C74  1  0.81879195  0.00912908  0.88475114  1  1.555923  0  0.231355  0.631166  0  4.123142  0
C  C75  1  0.17328368  0.88190582  0.02643372  1  1.553511  0  0.231178  0.627543  0  4.131651  0
C  C76  1  0.81147515  0.88301387  0.02093904  1  1.535887  0  0.228794  0.622329  0  4.143065  0
C  C77  1  0.17330587  0.01927118  0.88956246  1  1.53033  0  0.23276  0.627343  0  4.118799  0
C  C78  1  0.16939047  0.16240332  0.02752198  1  1.551903  0  0.231608  0.633978  0  4.119965  0
C  C79  1  0.81909899  0.03166111  0.16890925  1  1.542283  0  0.230159  0.630318  0  4.128968  0
C  C80  1  0.17631221  0.02297587  0.16625945  1  1.557656  0  0.234432  0.635167  0  4.116514  0
C  C81  1  0.81539136  0.15744512  0.03091463  1  1.54966  0  0.234056  0.631425  0  4.11048  0
C  C82  1  0.36600954  0.20966831  0.03952138  1  -0.041758  0  -0.081203  -0.101625  0  3.981224  0
C  C83  1  0.36261001  0.27119129  0.03308968  1  0.022759  0  -0.00117  0.015863  0  3.958254  0
C  C84  1  0.29434414  0.29827894  0.02625224  1  -0.05693  0  -0.079699  -0.101025  0  3.95815  0
C  C85  1  0.23069414  0.26417680  0.02501372  1  -0.054541  0  -0.083613  -0.097038  0  3.982389  0
C  C86  1  0.23461717  0.20258347  0.03038176  1  -0.035488  0  -0.015927  -0.037361  0  3.959594  0
C  C87  1  0.30289860  0.17587362  0.03807709  1  -0.019545  0  -0.081445  -0.086363  0  3.975056  0
C  C88  1  0.69393292  0.29493891  0.02851337  1  -0.012956  0  -0.078994  -0.101299  0  3.958086  0
C  C89  1  0.62451092  0.26903957  0.03314535  1  -0.027356  0  -0.002971  0.011905  0  3.958862  0
C  C90  1  0.61905470  0.20729149  0.03805401  1  -0.036654  0  -0.083535  -0.105511  0  3.985438  0
C  C91  1  0.68114482  0.17232519  0.03784189  1  -0.003551  0  -0.0827  -0.089509  0  3.980677  0
C  C92  1  0.75052514  0.19802941  0.03292849  1  0.007675  0  -0.011361  -0.028904  0  3.945709  0
C  C93  1  0.75648232  0.25966784  0.02852561  1  -0.092175  0  -0.078778  -0.091008  0  3.964576  0
C  C94  1  0.29265865  0.74404659  0.03114650  1  -0.092628  0  -0.079142  -0.099569  0  3.962427  0
C  C95  1  0.36176878  0.76892209  0.02224665  1  0.066694  0  -0.003401  0.009597  0  3.966313  0
C  C96  1  0.36775845  0.83006260  0.01395211  1  -0.03299  0  -0.083338  -0.103835  0  3.987806  0
C  C97  1  0.30640033  0.86573487  0.01532471  1  -0.043572  0  -0.083609  -0.09106  0  3.989432  0
C  C98  1  0.23743294  0.84106325  0.02461389  1  -0.021279  0  -0.011913  -0.028328  0  3.963245  0
C  C99  1  0.23070035  0.77998910  0.03215672  1  -0.083063  0  -0.079731  -0.09442  0  3.965875  0
C  C100  1  0.69169539  0.74478913  0.02189697  1  -0.065066  0  -0.080619  -0.102738  0  3.961793  0
C  C101  1  0.62200305  0.77016180  0.01851112  1  -0.033403  0  -0.003215  0.010777  0  3.963088  0
C  C102  1  0.61547555  0.83188323  0.01398042  1  -0.020536  0  -0.08329  -0.104368  0  3.981678  0
C  C103  1  0.67695888  0.86763004  0.01408785  1  -0.040531  0  -0.082521  -0.089886  0  3.982611  0
C  C104  1  0.74659369  0.84250394  0.01827581  1  -0.050799  0  -0.011788  -0.026359  0  3.953079  0
C  C105  1  0.75358485  0.78078440  0.02148730  1  -0.0089  0  -0.080626  -0.09283  0  3.970718  0
C  C106  1  0.56065682  0.48889096  0.02508571  1  -0.05951  0  -0.079631  -0.096823  0  3.964736  0
C  C107  1  0.49481673  0.45719774  0.02787916  1  0.073851  0  -0.003154  0.010421  0  3.963261  0
C  C108  1  0.42834480  0.48836015  0.02983127  1  -0.065856  0  -0.080488  -0.099494  0  3.967967  0
C  C109  1  0.42770564  0.54991148  0.02898073  1  -0.016516  0  -0.080005  -0.096494  0  3.965655  0
C  C110  1  0.49356856  0.58161466  0.02613338  1  -0.049113  0  -0.001525  0.013465  0  3.958136  0
C  C111  1  0.56002687  0.55048155  0.02420364  1  -0.063933  0  -0.0804  -0.09881  0  3.963552  0
C  C112  1  0.37280957  0.02792907  0.21564914  1  0.021732  0  -0.080296  -0.09923  0  3.973391  0
C  C113  1  0.36734463  0.02465978  0.27752602  1  -0.020616  0  -0.001583  0.014003  0  3.958588  0
C  C114  1  0.29808624  0.02051429  0.30359967  1  -0.065518  0  -0.079479  -0.101975  0  3.96  0
C  C115  1  0.23557261  0.01970759  0.26827721  1  -0.038188  0  -0.082329  -0.092182  0  3.984118  0
C  C116  1  0.24134224  0.02281364  0.20653439  1  -0.065432  0  -0.01301  -0.033194  0  3.952692  0
C  C117  1  0.31066910  0.02694577  0.18067054  1  0.063341  0  -0.079279  -0.08577  0  3.971298  0
C  C118  1  0.76024587  0.02715637  0.27099066  1  -0.027296  0  -0.085527  -0.096504  0  3.989082  0
C  C119  1  0.75465654  0.03330485  0.20965578  1  -0.08001  0  -0.014144  -0.032718  0  3.95862  0
C  C120  1  0.68557147  0.03908421  0.18386366  1  0.060857  0  -0.079323  -0.083919  0  3.973855  0
C  C121  1  0.62336903  0.03790688  0.21843206  1  -0.000401  0  -0.079797  -0.099178  0  3.977458  0
C  C122  1  0.62841519  0.03060120  0.27971937  1  -0.013554  0  -0.001073  0.013962  0  3.958967  0
C  C123  1  0.69753183  0.02563303  0.30588824  1  -0.090392  0  -0.080163  -0.102009  0  3.959111  0
C  C124  1  0.36979956  0.01438677  0.83990034  1  -0.102513  0  -0.082925  -0.102899  0  3.985579  0
C  C125  1  0.36423808  0.01689019  0.77792369  1  -0.023364  0  -0.003816  0.007715  0  3.964462  0
C  C126  1  0.29476037  0.02053919  0.75197005  1  0.053521  0  -0.079772  -0.10121  0  3.959973  0
C  C127  1  0.23226072  0.02155448  0.78736257  1  -0.004714  0  -0.078404  -0.089868  0  3.962499  0
C  C128  1  0.23830254  0.01910118  0.84914906  1  -0.023268  0  -0.010447  -0.025595  0  3.941644  0
C  C129  1  0.30777888  0.01556561  0.87495059  1  -0.00235  0  -0.082995  -0.091167  0  3.981521  0
C  C130  1  0.69464194  0.01390362  0.74891914  1  -0.02961  0  -0.08026  -0.102441  0  3.958564  0
C  C131  1  0.62588755  0.01012023  0.77598569  1  0.015046  0  -0.001108  0.014587  0  3.957438  0
C  C132  1  0.62185267  0.00431593  0.83754405  1  0.024834  0  -0.080529  -0.09984  0  3.978004  0
C  C133  1  0.68476284  0.00323761  0.87138160  1  -0.071177  0  -0.080557  -0.085299  0  3.9735  0
C  C134  1  0.75353513  0.00779935  0.84464613  1  -0.02839  0  -0.015024  -0.035519  0  3.957584  0
C  C135  1  0.75807414  0.01263389  0.78305427  1  -0.070306  0  -0.08419  -0.096342  0  3.983293  0
C  C136  1  0.56109929  0.01618796  0.55881153  1  0.002649  0  -0.079973  -0.096543  0  3.966182  0
C  C137  1  0.49467462  0.01882998  0.58998523  1  -0.066044  0  -0.001345  0.012109  0  3.961353  0
C  C138  1  0.42893574  0.02279843  0.55843186  1  0.016417  0  -0.079649  -0.097827  0  3.96455  0
C  C139  1  0.42963842  0.02402595  0.49693668  1  -0.071705  0  -0.079543  -0.096982  0  3.964057  0
C  C140  1  0.49607672  0.02145240  0.46578885  1  -0.0382  0  -0.00286  0.011345  0  3.964722  0
C  C141  1  0.56183303  0.01758047  0.49737351  1  -0.035962  0  -0.080832  -0.099431  0  3.970577  0
N  N142  1  0.42923628  0.01804612  0.68323592  1  -1.234186  0  -0.307695  -0.412012  0  3.188085  0
N  N143  1  0.49492257  0.01281732  0.77354830  1  -1.201424  0  -0.307719  -0.407437  0  3.237771  0
N  N144  1  0.55966636  0.01491481  0.68264396  1  -1.236264  0  -0.309793  -0.414318  0  3.20494  0
N  N145  1  0.56236098  0.02480660  0.37332696  1  -1.21791  0  -0.30802  -0.410668  0  3.19264  0
N  N146  1  0.49789043  0.02825009  0.28229336  1  -1.20405  0  -0.30801  -0.407508  0  3.247332  0
N  N147  1  0.43186062  0.02310765  0.37226990  1  -1.18392  0  -0.307643  -0.41048  0  3.19832  0
N  N148  1  0.55793733  0.67506581  0.02284541  1  -1.198017  0  -0.308782  -0.412811  0  3.193666  0
N  N149  1  0.49179876  0.76512818  0.01940581  1  -1.170587  0  -0.310058  -0.40922  0  3.257806  0
N  N150  1  0.42731604  0.67432876  0.02501640  1  -1.210897  0  -0.309193  -0.412711  0  3.189862  0
N  N151  1  0.42946273  0.36446007  0.03024939  1  -1.238636  0  -0.3088  -0.412371  0  3.204789  0
N  N152  1  0.49366141  0.27341972  0.03447037  1  -1.199826  0  -0.308259  -0.407966  0  3.238678  0
N  N153  1  0.55989400  0.36367824  0.02970505  1  -1.171066  0  -0.307923  -0.411602  0  3.188807  0
O  O154  1  0.88336600  0.00973875  0.86289428  1  -1.19972  0  -0.35246  -0.655517  0  2.241733  0
O  O155  1  0.80360962  0.01075976  0.93991607  1  -1.179245  0  -0.356648  -0.612791  0  2.363246  0
O  O156  1  0.10927693  0.86013001  0.02322801  1  -1.18306  0  -0.339512  -0.607412  0  2.268559  0
O  O157  1  0.18918261  0.93737488  0.03031462  1  -1.175842  0  -0.368876  -0.627977  0  2.344407  0
O  O158  1  0.87509539  0.86149734  0.01797123  1  -1.171255  0  -0.323825  -0.59827  0  2.279441  0
O  O159  1  0.79618581  0.93879780  0.02776551  1  -1.17321  0  -0.381217  -0.639363  0  2.341844  0
O  O160  1  0.10905561  0.01891237  0.86847095  1  -1.171199  0  -0.334494  -0.598541  0  2.235422  0
O  O161  1  0.18951623  0.01860414  0.94490195  1  -1.17526  0  -0.373056  -0.631984  0  2.354755  0
O  O162  1  0.99529170  0.92982520  0.86298535  1  -1.226989  0  -0.658841  -0.933121  0  1.871643  0
O  O163  1  0.99510690  0.09607935  0.86173755  1  -1.260122  0  -0.602329  -0.810885  0  2.013254  0
O  O164  1  0.99223301  0.85057780  0.93910791  1  -1.24013  0  -0.602119  -0.811678  0  2.025167  0
O  O165  1  0.98932407  0.84026390  0.08472885  1  -1.212684  0  -0.705907  -0.94546  0  1.763129  0
O  O166  1  0.93801311  0.96962453  0.98024734  1  -1.217705  0  -0.782719  -1.164806  0  2.068087  0
O  O167  1  0.07073589  0.95370690  0.96236922  1  -1.239027  0  -0.690699  -1.057137  0  2.301705  0
O  O168  1  0.10466923  0.18427883  0.02758726  1  -1.204588  0  -0.356678  -0.661645  0  2.239118  0
O  O169  1  0.18458824  0.10730259  0.02584517  1  -1.17811  0  -0.353727  -0.607545  0  2.367915  0
O  O170  1  0.88386373  0.03243802  0.19069134  1  -1.199412  0  -0.355584  -0.656986  0  2.268875  0
O  O171  1  0.80379839  0.02838140  0.11389327  1  -1.160232  0  -0.350032  -0.606401  0  2.360431  0
O  O172  1  0.11180602  0.02015083  0.18753202  1  -1.200008  0  -0.335988  -0.636792  0  2.257543  0
O  O173  1  0.19096982  0.02760325  0.11149468  1  -1.178595  0  -0.356831  -0.614341  0  2.341891  0
O  O174  1  0.87967588  0.17872193  0.03178911  1  -1.172608  0  -0.337829  -0.60326  0  2.235977  0
O  O175  1  0.79930771  0.10186514  0.02715012  1  -1.163536  0  -0.371656  -0.630669  0  2.342954  0
O  O176  1  0.99197305  0.18983415  0.11384671  1  -1.219932  0  -0.603857  -0.815314  0  2.011018  0
O  O177  1  0.99498423  0.17798697  0.94542115  1  -1.215295  0  -0.657537  -0.931881  0  1.875297  0
O  O178  1  0.99621222  0.11139466  0.19020754  1  -1.242049  0  -0.659327  -0.936357  0  1.885972  0
O  O179  1  0.99774032  0.96657320  0.21635788  1  -1.23344  0  -0.580289  -0.779587  0  2.019683  0
O  O180  1  0.06941903  0.08796572  0.09179169  1  -1.241032  0  -0.694272  -1.052829  0  2.309833  0
O  O181  1  0.93731958  0.07025183  0.07396596  1  -1.210931  0  -0.791852  -1.157839  0  2.101363  0
O  O182  1  0.05008507  0.06471103  0.98101080  1  -1.208059  0  -0.788429  -1.158107  0  2.092687  0
O  O183  1  0.92203564  0.95772971  0.09430262  1  -1.264206  0  -0.678218  -1.065396  0  2.23557  0
O  O184  1  0.91912037  0.07975436  0.96270242  1  -1.258304  0  -0.690772  -1.052395  0  2.308631  0
O  O185  1  0.05242613  0.97432982  0.07564892  1  -1.219621  0  -0.778557  -1.160235  0  2.028946  0
