# generated using pymatgen
data_CoH20C30(NO2)2
_symmetry_space_group_name_H-M   'P 1'
_cell_length_a   9.61987190
_cell_length_b   11.89161636
_cell_length_c   14.24138568
_cell_angle_alpha   72.06337419
_cell_angle_beta   85.12599859
_cell_angle_gamma   71.78723405
_symmetry_Int_Tables_number   1
_chemical_formula_structural   CoH20C30(NO2)2
_chemical_formula_sum   'Co2 H40 C60 N4 O8'
_cell_volume   1472.20964500
_cell_formula_units_Z   2
loop_
 _symmetry_equiv_pos_site_id
 _symmetry_equiv_pos_as_xyz
  1  'x, y, z'
loop_
 _atom_site_type_symbol
 _atom_site_label
 _atom_site_symmetry_multiplicity
 _atom_site_fract_x
 _atom_site_fract_y
 _atom_site_fract_z
 _atom_site_occupancy
 _atom_site_pbe_bader_charge
 _atom_site_pbe_bader_spin_density
 _atom_site_pbe_cm5_charge
 _atom_site_pbe_ddec_charge
 _atom_site_pbe_ddec_spin_density
 _atom_site_pbe_ddec_sum_bond_order
 _atom_site_pbe_magmom
Co  Co0  1  0.00000105  1.00000000  0.00000064  1  1.331402  2.603588  0.685081  0.934947  2.83686  2.512122  2.589
Co  Co1  1  0.49999893  0.00000324  0.00000070  1  1.341528  2.61791  0.687163  0.942368  2.854633  2.524796  2.605
H  H2  1  0.40005899  0.96731703  0.24447146  1  0.102368  0.001256  0.100615  0.123496  0.000449  1.038482  0.001
H  H3  1  0.59994103  0.03267944  0.75552764  1  0.102339  0.001256  0.100603  0.123497  0.000449  1.038501  0.001
H  H4  1  0.29169016  0.16210418  0.26646812  1  0.05472  -1.8e-05  0.092725  0.085177  -5.8e-05  1.068115  0.0
H  H5  1  0.70831203  0.83789785  0.73353085  1  0.054713  -1.8e-05  0.092739  0.08524  -5.8e-05  1.068038  0.0
H  H6  1  0.08694477  0.96267103  0.30407853  1  0.090822  0.000295  0.102342  0.097294  0.000113  1.035318  0.0
H  H7  1  0.91305094  0.03733747  0.69592128  1  0.090697  0.000295  0.102355  0.097314  0.000113  1.035296  0.0
H  H8  1  0.52958855  0.84064894  0.86278615  1  0.161145  0.001405  0.11728  0.090391  0.00033  1.037891  0.001
H  H9  1  0.47041252  0.15934752  0.13721570  1  0.161101  0.001405  0.11728  0.090427  0.00033  1.037845  0.001
H  H10  1  0.80898566  0.54177454  0.15587335  1  0.070797  0.000893  0.107915  0.115072  0.000423  1.004737  0.0
H  H11  1  0.19101062  0.45822654  0.84412831  1  0.070724  0.000894  0.107921  0.115045  0.000424  1.004772  0.0
H  H12  1  0.40812706  0.00426795  0.71022307  1  0.082055  0.000412  0.099237  0.088814  0.0002  1.050273  0.0
H  H13  1  0.59187102  0.99573684  0.28977825  1  0.082142  0.000412  0.099218  0.088808  0.0002  1.050316  0.0
H  H14  1  0.08796103  0.80848887  0.41662023  1  0.064367  -2e-05  0.102613  0.106451  -2.7e-05  1.010195  0.0
H  H15  1  0.91204875  0.19150949  0.58337642  1  0.064462  -2e-05  0.102591  0.106407  -2.7e-05  1.010261  0.0
H  H16  1  0.59782816  0.42090214  0.94953374  1  0.064866  0.000911  0.102315  0.107705  0.000413  1.020319  0.0
H  H17  1  0.40217013  0.57909336  0.05047273  1  0.064803  0.000911  0.102327  0.107716  0.000413  1.020186  0.0
H  H18  1  0.39661403  0.16406065  0.60128625  1  0.067561  -5e-06  0.101546  0.103807  -1.8e-05  1.015804  0.0
H  H19  1  0.60338784  0.83594231  0.39871251  1  0.067429  -5e-06  0.101581  0.103816  -1.8e-05  1.01585  0.0
H  H20  1  0.62989095  0.61807753  0.86709432  1  0.088513  0.000906  0.104848  0.108243  0.000446  1.026394  0.0
H  H21  1  0.37010562  0.38191986  0.13290686  1  0.088546  0.000907  0.104845  0.108212  0.000446  1.026419  0.0
H  H22  1  0.09364925  0.01122799  0.77684064  1  0.093395  0.001202  0.102758  0.129907  0.000381  1.048379  0.001
H  H23  1  0.90634769  0.98877127  0.22315723  1  0.093338  0.001203  0.102787  0.129954  0.000381  1.048377  0.001
H  H24  1  0.06297432  0.67150709  0.73200383  1  0.047477  5e-05  0.090911  0.082012  3.5e-05  1.032766  0.0
H  H25  1  0.93703542  0.32848846  0.26799563  1  0.047358  5e-05  0.090921  0.08203  3.5e-05  1.03277  0.0
H  H26  1  0.46736278  0.30752897  0.45511834  1  0.052717  -3e-06  0.103364  0.103658  -3e-06  0.986353  0.0
H  H27  1  0.53264249  0.69247030  0.54487834  1  0.052729  -4e-06  0.103389  0.103623  -3e-06  0.986453  0.0
H  H28  1  0.99608318  0.39414324  0.08638601  1  0.055464  0.000872  0.103617  0.10722  0.000388  1.020512  0.0
H  H29  1  0.00391548  0.60585413  0.91361715  1  0.055695  0.000872  0.103657  0.107343  0.000388  1.020475  0.0
H  H30  1  0.01013278  0.67048544  0.56303813  1  0.044574  -3e-06  0.101616  0.101067  -2e-06  0.989827  0.0
H  H31  1  0.98987629  0.32951198  0.43695950  1  0.044553  -3e-06  0.101623  0.10111  -2e-06  0.989838  0.0
H  H32  1  0.40918278  0.31047819  0.28675324  1  0.058268  4.9e-05  0.09423  0.087717  3e-05  1.021786  0.0
H  H33  1  0.59082458  0.68952109  0.71324332  1  0.058417  4.9e-05  0.094219  0.087674  3e-05  1.021753  0.0
H  H34  1  0.70023673  0.76676374  0.13897568  1  0.11598  0.001512  0.122361  0.100135  0.000351  0.997944  0.001
H  H35  1  0.29976581  0.23323736  0.86102491  1  0.116034  0.001512  0.122315  0.100072  0.000351  0.998012  0.001
H  H36  1  0.70658581  0.19870494  0.95673122  1  0.172679  0.00146  0.119086  0.101532  0.000237  1.051505  0.001
H  H37  1  0.29341428  0.80129427  0.04327421  1  0.172706  0.001461  0.11908  0.101577  0.000237  1.051446  0.001
H  H38  1  0.18432552  0.81674395  0.75165926  1  0.095026  -6e-06  0.094373  0.094337  -4.5e-05  1.049666  0.0
H  H39  1  0.81568009  0.18325440  0.24833764  1  0.095111  -6e-06  0.094382  0.094335  -4.5e-05  1.049654  0.0
H  H40  1  0.08930215  0.17486216  0.08450136  1  0.143345  0.001539  0.117687  0.088276  0.000295  1.019457  0.001
H  H41  1  0.91069480  0.82513707  0.91550073  1  0.143296  0.001539  0.117701  0.088293  0.000295  1.019476  0.001
C  C42  1  0.28773631  0.96657383  0.23995234  1  -0.090442  0.007164  -0.105953  -0.256633  0.003573  3.914786  0.006
C  C43  1  0.71226068  0.03342819  0.76004694  1  -0.090351  0.007164  -0.105956  -0.256715  0.003573  3.914854  0.006
C  C44  1  0.31976171  0.15867751  0.33985949  1  -0.039939  -0.000345  -0.095577  -0.130295  -0.000413  3.992695  0.0
C  C45  1  0.68025006  0.84131527  0.66013987  1  -0.039692  -0.000345  -0.095585  -0.130364  -0.000413  3.992596  0.0
C  C46  1  0.25083205  0.94858334  0.14751877  1  1.53279  0.003763  0.206523  0.622396  0.002074  4.174633  0.005
C  C47  1  0.74916664  0.05141685  0.85247806  1  1.532563  0.003764  0.206562  0.622537  0.002075  4.174443  0.005
C  C48  1  0.19996946  0.90480759  0.59465122  1  -0.023423  -0.000739  -0.002303  0.034688  -0.000807  3.959037  0.0
C  C49  1  0.80003720  0.09519074  0.40534843  1  -0.023608  -0.000739  -0.002271  0.034707  -0.000807  3.958944  0.0
C  C50  1  0.72910254  0.55973515  0.01211802  1  -0.014568  -0.014057  0.00313  0.09038  -0.01508  4.024373  -0.008
C  C51  1  0.27089474  0.44026315  0.98788358  1  -0.014754  -0.014063  0.003135  0.090428  -0.015086  4.024225  -0.008
C  C52  1  0.26849353  0.99003880  0.60524941  1  0.008701  -0.001274  -0.003349  0.017551  -0.00147  3.948449  -0.001
C  C53  1  0.73150729  0.00996416  0.39474940  1  0.008715  -0.001275  -0.003348  0.017557  -0.00147  3.948381  -0.001
C  C54  1  0.19339798  0.97176146  0.31536291  1  -0.056297  -0.00119  -0.075614  -0.060401  -0.001833  3.986994  -0.001
C  C55  1  0.80660077  0.02824148  0.68463813  1  -0.056169  -0.00119  -0.075616  -0.06039  -0.001832  3.987043  -0.001
C  C56  1  0.31211996  0.07080376  0.52005510  1  0.018198  -0.000396  -0.003402  0.028487  -0.000479  3.960709  0.0
C  C57  1  0.68787741  0.92920011  0.47994509  1  0.018183  -0.000397  -0.003375  0.02846  -0.00048  3.96073  0.0
C  C58  1  0.59372691  0.77093479  0.92568364  1  0.447863  -0.007731  0.045359  0.092994  -0.008359  3.946163  -0.005
C  C59  1  0.40627351  0.22906351  0.07431989  1  0.447994  -0.007737  0.045337  0.092969  -0.008363  3.945991  -0.005
C  C60  1  0.17448943  0.90117265  0.49723720  1  0.024409  -0.000454  -0.003237  0.031742  -0.000529  3.959552  0.0
C  C61  1  0.82551756  0.09882475  0.50276337  1  0.024561  -0.000454  -0.00329  0.031662  -0.000528  3.959493  0.0
C  C62  1  0.25360513  0.03213754  0.86452753  1  1.517413  0.002487  0.206978  0.619387  0.001106  4.175153  0.003
C  C63  1  0.74639187  0.96786446  0.13547526  1  1.517281  0.002486  0.207115  0.619678  0.001103  4.174894  0.003
C  C64  1  0.74925508  0.60449938  0.08870316  1  -0.078674  0.001075  -0.085912  -0.181975  -0.000154  3.955529  0.002
C  C65  1  0.25074111  0.39549615  0.91129921  1  -0.078064  0.001077  -0.085916  -0.18198  -0.000153  3.955538  0.002
C  C66  1  0.21970124  0.98093713  0.41192260  1  -0.017538  -0.001464  -0.00099  0.015898  -0.001646  3.937335  -0.001
C  C67  1  0.78029854  0.01906582  0.58807698  1  -0.017437  -0.001465  -0.000939  0.015952  -0.001647  3.937437  -0.001
C  C68  1  0.28567784  0.06788012  0.42273576  1  -0.017439  -0.000618  -0.001528  0.040156  -0.000686  3.956932  0.0
C  C69  1  0.71432299  0.93212283  0.57726446  1  -0.01767  -0.000618  -0.001556  0.040139  -0.000686  3.957067  0.0
C  C70  1  0.29919218  0.99830094  0.70117047  1  -0.107693  -0.001912  -0.078227  -0.064017  -0.002508  3.99961  -0.001
C  C71  1  0.70080659  0.00170481  0.29882564  1  -0.107617  -0.001915  -0.0782  -0.064001  -0.002511  3.999648  -0.001
C  C72  1  0.10682840  0.81322338  0.48941141  1  -0.061  -0.000168  -0.091484  -0.130032  -0.000215  3.985304  0.0
C  C73  1  0.89317450  0.18677960  0.51058517  1  -0.061053  -0.000168  -0.091493  -0.129946  -0.000215  3.985328  0.0
C  C74  1  0.78822877  0.42801217  0.01697136  1  0.008534  -0.015083  0.000938  0.088454  -0.016304  4.016466  -0.009
C  C75  1  0.21176230  0.57198891  0.98302990  1  0.008635  -0.015081  0.001002  0.088472  -0.016302  4.016364  -0.009
C  C76  1  0.70806265  0.37055986  0.97953250  1  -0.067031  0.001294  -0.089222  -0.178181  -5.7e-05  3.957667  0.002
C  C77  1  0.29193634  0.62943659  0.02047088  1  -0.067077  0.001294  -0.089293  -0.178254  -5.7e-05  3.957292  0.002
C  C78  1  0.37733561  0.16008241  0.52833982  1  -0.098641  -4.2e-05  -0.090981  -0.125344  -0.00012  3.983565  0.0
C  C79  1  0.62267725  0.83991316  0.47165877  1  -0.098425  -4.2e-05  -0.091038  -0.125335  -0.00012  3.983523  0.0
C  C80  1  0.64858124  0.64691174  0.92921749  1  -0.086578  0.001923  -0.089236  -0.187115  0.000435  3.972684  0.002
C  C81  1  0.35141638  0.35308564  0.07078433  1  -0.086607  0.001924  -0.089213  -0.187044  0.000435  3.972612  0.002
C  C82  1  0.20791166  0.00851733  0.77742030  1  -0.036213  0.007623  -0.105094  -0.256699  0.003788  3.912618  0.006
C  C83  1  0.79208706  0.99148565  0.22257582  1  -0.036207  0.007621  -0.105171  -0.256802  0.003787  3.912791  0.006
C  C84  1  0.09383418  0.73577062  0.66697564  1  -0.098287  -0.00042  -0.100508  -0.08862  -0.000478  4.04855  0.0
C  C85  1  0.90616940  0.26423049  0.33302348  1  -0.098327  -0.00042  -0.100513  -0.08861  -0.000478  4.048588  0.0
C  C86  1  0.41514217  0.24190753  0.44663917  1  0.010395  -0.000333  -0.095333  -0.086125  -0.00038  4.044977  0.0
C  C87  1  0.58485514  0.75809357  0.55335891  1  0.009827  -0.000333  -0.095324  -0.086052  -0.00038  4.044999  0.0
C  C88  1  0.92717561  0.35489263  0.05732508  1  -0.084426  0.002493  -0.088192  -0.184547  0.000701  3.963771  0.003
C  C89  1  0.07281443  0.64510844  0.94267835  1  -0.084759  0.002493  -0.088203  -0.184649  0.000701  3.963891  0.003
C  C90  1  0.06503151  0.73440941  0.57144152  1  -0.006061  -0.000379  -0.09471  -0.081385  -0.000426  4.044081  0.0
C  C91  1  0.93497998  0.26558708  0.42855691  1  -0.006093  -0.000379  -0.094697  -0.081451  -0.000426  4.044275  0.0
C  C92  1  0.38347410  0.24234722  0.35119149  1  -0.090167  -0.00021  -0.097377  -0.085791  -0.000255  4.043961  0.0
C  C93  1  0.61652601  0.75765482  0.64880549  1  -0.089848  -0.00021  -0.097408  -0.0858  -0.000254  4.043877  0.0
C  C94  1  0.68885916  0.72984787  0.08003753  1  0.529465  -0.008096  0.053551  0.111974  -0.008962  3.931019  -0.005
C  C95  1  0.31113740  0.27014951  0.91996364  1  0.529081  -0.008099  0.05357  0.112083  -0.008965  3.931028  -0.005
C  C96  1  0.76760482  0.24677654  0.98316023  1  0.476462  -0.008637  0.043642  0.095294  -0.009632  3.915349  -0.005
C  C97  1  0.23239043  0.75322454  0.01684219  1  0.476714  -0.008637  0.04368  0.095283  -0.009631  3.915197  -0.005
C  C98  1  0.16030191  0.81779139  0.67805004  1  -0.032064  -0.000148  -0.094134  -0.12627  -0.000239  3.982463  0.0
C  C99  1  0.83970199  0.18220880  0.32194789  1  -0.032088  -0.000148  -0.094149  -0.126306  -0.000239  3.982443  0.0
C  C100  1  0.98043371  0.23245200  0.05600875  1  0.497374  -0.009651  0.048714  0.110043  -0.010349  3.930229  -0.006
C  C101  1  0.01955528  0.76754905  0.94399545  1  0.497465  -0.009652  0.048706  0.110072  -0.010347  3.930215  -0.006
N  N102  1  0.90303470  0.17817974  0.01939801  1  -1.195135  0.043293  -0.316309  -0.238126  0.022748  3.538349  0.042
N  N103  1  0.09696116  0.82181670  0.98060485  1  -1.195355  0.043295  -0.31636  -0.238188  0.02275  3.538506  0.042
N  N104  1  0.61247962  0.81311984  0.99986147  1  -1.209749  0.043881  -0.314719  -0.23693  0.023205  3.528349  0.043
N  N105  1  0.38752117  0.18688033  0.00013945  1  -1.209816  0.043885  -0.31473  -0.237045  0.023207  3.528275  0.043
O  O106  1  0.15493136  0.06777736  0.92403752  1  -1.143235  0.087249  -0.315258  -0.563708  0.044703  2.416367  0.073
O  O107  1  0.84505586  0.93222280  0.07596209  1  -1.143135  0.087235  -0.315322  -0.56387  0.044699  2.416144  0.073
O  O108  1  0.38842108  0.02222824  0.87359523  1  -1.155318  0.084315  -0.310682  -0.567703  0.044497  2.388722  0.073
O  O109  1  0.61157862  0.97776915  0.12640647  1  -1.155365  0.084318  -0.310731  -0.567852  0.044498  2.388759  0.073
O  O110  1  0.12026690  0.95196588  0.13325284  1  -1.155823  0.076339  -0.308474  -0.562056  0.040087  2.32294  0.065
O  O111  1  0.87973005  0.04803336  0.86674855  1  -1.155739  0.076331  -0.308468  -0.562099  0.040085  2.322886  0.065
O  O112  1  0.35610041  0.92608249  0.08789093  1  -1.168478  0.087003  -0.318569  -0.568415  0.044783  2.43407  0.073
O  O113  1  0.64389656  0.07391957  0.91210342  1  -1.16841  0.087014  -0.318618  -0.568441  0.044787  2.433945  0.073
