# generated using pymatgen
data_Zr6H23C50N7O46
_symmetry_space_group_name_H-M   'P 1'
_cell_length_a   14.75741233
_cell_length_b   14.76426533
_cell_length_c   14.78177364
_cell_angle_alpha   60.28524446
_cell_angle_beta   60.01663389
_cell_angle_gamma   60.07869442
_symmetry_Int_Tables_number   1
_chemical_formula_structural   Zr6H23C50N7O46
_chemical_formula_sum   'Zr6 H23 C50 N7 O46'
_cell_volume   2283.88745458
_cell_formula_units_Z   1
loop_
 _symmetry_equiv_pos_site_id
 _symmetry_equiv_pos_as_xyz
  1  'x, y, z'
loop_
 _atom_site_type_symbol
 _atom_site_label
 _atom_site_symmetry_multiplicity
 _atom_site_fract_x
 _atom_site_fract_y
 _atom_site_fract_z
 _atom_site_occupancy
 _atom_site_pbe_bader_charge
 _atom_site_pbe_bader_spin_density
 _atom_site_pbe_cm5_charge
 _atom_site_pbe_ddec_charge
 _atom_site_pbe_ddec_spin_density
 _atom_site_pbe_ddec_sum_bond_order
 _atom_site_pbe_magmom
Zr  Zr0  1  0.88106426  0.87970667  0.61202063  1  2.635659  0  1.626729  2.370472  0  2.755775  0
Zr  Zr1  1  0.11818596  0.12129934  0.37639918  1  2.641163  0  1.63285  2.379962  0  2.729303  0
Zr  Zr2  1  0.11933173  0.88185156  0.61312044  1  2.638777  0  1.634712  2.378566  0  2.745772  0
Zr  Zr3  1  0.87844467  0.12006514  0.37662644  1  2.638158  0  1.628825  2.371478  0  2.762061  0
Zr  Zr4  1  0.11981662  0.88268448  0.37251882  1  2.639571  0  1.629552  2.376628  0  2.74286  0
Zr  Zr5  1  0.87841940  0.11902960  0.61608143  1  2.637267  0  1.6314  2.37691  0  2.745833  0
H  H6  1  0.09591240  0.71814478  0.58463481  1  0.624558  0  0.331957  0.424275  0  0.855914  0
H  H7  1  0.09289000  0.09823328  0.21201843  1  0.591602  0  0.332075  0.425692  0  0.854483  0
H  H8  1  0.09372115  0.09538148  0.58875664  1  0.606227  0  0.333482  0.429782  0  0.847313  0
H  H9  1  0.71600517  0.09236744  0.59032331  1  0.60446  0  0.332988  0.425065  0  0.85532  0
H  H10  1  0.82065482  0.63540713  0.57391254  1  0.115349  0  0.114549  0.119865  0  0.984343  0
H  H11  1  0.17404380  0.54312078  0.40227266  1  0.169271  0  0.11945  0.142251  0  1.015835  0
H  H12  1  0.82118918  0.46342616  0.57703939  1  0.133499  0  0.118457  0.125476  0  0.976997  0
H  H13  1  0.58121924  0.85059717  0.91416368  1  0.087714  0  0.11301  0.118947  0  0.989832  0
H  H14  1  0.60855232  0.12272391  0.92322895  1  0.126021  0  0.121666  0.14526  0  1.001268  0
H  H15  1  0.41166680  0.85686006  0.08406060  1  0.139707  0  0.115452  0.127681  0  0.99479  0
H  H16  1  0.13969088  0.85221121  0.08183289  1  0.141185  0  0.121196  0.132087  0  0.969924  0
H  H17  1  0.85026439  0.14516236  0.08377060  1  0.120853  0  0.119957  0.135381  0  0.984999  0
H  H18  1  0.13889430  0.85519656  0.91137429  1  0.160116  0  0.115843  0.131289  0  1.013078  0
H  H19  1  0.58995366  0.42872729  0.63283316  1  0.12745  0  0.120313  0.129505  0  0.973154  0
H  H20  1  0.59141142  0.41559573  0.34779647  1  0.10156  0  0.121491  0.137668  0  0.982905  0
H  H21  1  0.42233709  0.60048848  0.62665283  1  0.165416  0  0.119048  0.137867  0  0.994179  0
H  H22  1  0.74955990  0.62025260  0.93914787  1  0.08228  0  0.106781  0.121458  0  0.971733  0
H  H23  1  0.85200185  0.53304051  0.85739167  1  0.064935  0  0.107269  0.123062  0  0.968613  0
H  H24  1  0.84782557  0.36551139  0.03009355  1  0.082371  0  0.103659  0.117016  0  0.97901  0
H  H25  1  0.74400745  0.45296757  0.11144744  1  0.068307  0  0.104959  0.11904  0  0.973494  0
H  H26  1  0.58915054  0.13902649  0.34290963  1  0.112436  0  0.116403  0.124993  0  0.976065  0
H  H27  1  0.58925348  0.85229181  0.63620892  1  0.111915  0  0.120079  0.136675  0  0.980899  0
H  H28  1  0.41838251  0.13793739  0.34678438  1  0.178148  0  0.115564  0.125164  0  1.020098  0
C  C29  1  0.99739768  0.70161288  0.48592455  1  1.55881  0  0.239992  0.642236  0  4.097379  0
C  C30  1  0.30835857  0.99848241  0.19504758  1  1.562711  0  0.240747  0.648793  0  4.097086  0
C  C31  1  0.99513665  0.30504428  0.49699719  1  1.593588  0  0.24201  0.649395  0  4.098761  0
C  C32  1  0.70186258  0.98975243  0.80365540  1  1.537901  0  0.240532  0.642616  0  4.094559  0
C  C33  1  0.99572929  0.70183000  0.80045297  1  1.591809  0  0.239388  0.650883  0  4.114395  0
C  C34  1  0.69979246  0.99629093  0.48958653  1  1.548155  0  0.239729  0.64104  0  4.098462  0
C  C35  1  0.98479162  0.31453668  0.20495219  1  1.593138  0  0.240359  0.652515  0  4.111165  0
C  C36  1  0.30623209  0.99709026  0.49145531  1  1.578751  0  0.242708  0.652583  0  4.087145  0
C  C37  1  0.30901098  0.70350838  0.48729729  1  1.576673  0  0.239736  0.645825  0  4.104928  0
C  C38  1  0.99587372  0.99840878  0.80120288  1  1.599742  0  0.241518  0.649489  0  4.097851  0
C  C39  1  0.69747797  0.30724403  0.49500239  1  1.566192  0  0.239431  0.638758  0  4.101647  0
C  C40  1  0.99573043  0.99932200  0.19313198  1  1.580088  0  0.240078  0.641483  0  4.095279  0
C  C41  1  0.99725970  0.40469716  0.49793592  1  -0.022976  0  0.004446  -0.06132  0  3.911862  0
C  C42  1  0.99639601  0.60067541  0.48644255  1  -0.019634  0  -0.004732  -0.016213  0  3.949868  0
C  C43  1  0.09577497  0.42788292  0.45168928  1  0.223393  0  0.092817  0.070421  0  3.912616  0
C  C44  1  0.89743063  0.57736487  0.53750289  1  -0.071515  0  -0.068707  -0.080492  0  3.939676  0
C  C45  1  0.09653265  0.52625311  0.44105349  1  0.079823  0  -0.064748  -0.13204  0  3.894717  0
C  C46  1  0.89779056  0.48139296  0.54054780  1  0.015907  0  -0.065495  -0.064268  0  3.928205  0
C  C47  1  0.41371097  0.99340053  0.09825220  1  0.05411  0  -0.002959  -0.081175  0  3.919563  0
C  C48  1  0.60383793  0.98735714  0.90763222  1  0.030774  0  -0.005862  -0.013347  0  3.955384  0
C  C49  1  0.47190921  0.06630072  0.05213247  1  0.154667  0  0.091504  0.072202  0  3.92854  0
C  C50  1  0.54955423  0.91120219  0.95358654  1  -0.008832  0  -0.074559  -0.091895  0  3.953308  0
C  C51  1  0.56521474  0.06486089  0.95780384  1  0.042016  0  -0.068804  -0.140598  0  3.914714  0
C  C52  1  0.45543301  0.91481926  0.04755626  1  -0.010778  0  -0.068991  -0.064266  0  3.933471  0
C  C53  1  0.99489011  0.00073805  0.90156557  1  -0.009218  0  -0.001991  -0.078825  0  3.911908  0
C  C54  1  0.99522004  0.99846520  0.09269929  1  0.060496  0  -0.005471  -0.015846  0  3.957568  0
C  C55  1  0.91467587  0.08227415  0.95119989  1  0.138726  0  0.088502  0.06841  0  3.928658  0
C  C56  1  0.07670304  0.91667259  0.04437999  1  -0.01988  0  -0.066396  -0.076906  0  3.913667  0
C  C57  1  0.91346284  0.08182237  0.04581706  1  -0.034868  0  -0.074796  -0.153086  0  3.946291  0
C  C58  1  0.07628940  0.91828569  0.94974346  1  0.027806  0  -0.06241  -0.051273  0  3.902843  0
C  C59  1  0.41198323  0.60419757  0.48509852  1  0.021701  0  -0.002283  -0.07855  0  3.917553  0
C  C60  1  0.60007043  0.41191243  0.49106176  1  -0.062781  0  -0.004132  -0.013076  0  3.951658  0
C  C61  1  0.46193880  0.55138408  0.40642948  1  0.19348  0  0.087387  0.063523  0  3.935625  0
C  C62  1  0.55330497  0.46408743  0.56932354  1  -0.023817  0  -0.067279  -0.07922  0  3.924723  0
C  C63  1  0.55455082  0.45647246  0.40846331  1  0.081072  0  -0.073231  -0.149218  0  3.941659  0
C  C64  1  0.46022114  0.55916021  0.56608935  1  -0.025725  0  -0.062305  -0.05923  0  3.908013  0
C  C65  1  0.99107379  0.60690419  0.90612347  1  -0.00582  0  0.001084  -0.109812  0  3.920282  0
C  C66  1  0.97762138  0.42128501  0.11132876  1  0.035583  0  0.002636  -0.103754  0  3.927502  0
C  C67  1  0.91564401  0.55257686  0.95216149  1  0.059769  0  0.009087  0.083687  0  3.870641  0
C  C68  1  0.04682967  0.48261131  0.07112081  1  0.303322  0  0.093615  0.014756  0  3.885894  0
C  C69  1  0.91155205  0.46098065  0.04907942  1  -0.011494  0  0.006905  0.075477  0  3.873001  0
C  C70  1  0.05849135  0.56704997  0.96922842  1  0.203666  0  0.093682  0.015153  0  3.885799  0
C  C71  1  0.82587556  0.54815744  0.93388395  1  -0.02643  0  -0.142195  -0.196418  0  3.850962  0
C  C72  1  0.82261238  0.44344992  0.04220471  1  -0.023056  0  -0.142868  -0.191832  0  3.850759  0
C  C73  1  0.40764590  0.99519132  0.49245942  1  0.024955  0  -0.000504  -0.075863  0  3.905484  0
C  C74  1  0.59944596  0.99555375  0.48891586  1  0.010871  0  -0.007238  -0.017618  0  3.965253  0
C  C75  1  0.45692440  0.91563045  0.57374050  1  0.182506  0  0.088375  0.067243  0  3.926091  0
C  C76  1  0.55154538  0.07619948  0.40731793  1  -0.000588  0  -0.068576  -0.078268  0  3.919281  0
C  C77  1  0.55193527  0.91447560  0.57268385  1  -0.016881  0  -0.07665  -0.15432  0  3.949545  0
C  C78  1  0.45660064  0.07575805  0.40947003  1  0.021055  0  -0.061175  -0.04566  0  3.916762  0
N  N79  1  0.20503135  0.34225756  0.42430564  1  0.408591  0  0.063662  0.524545  0  4.205276  0
N  N80  1  0.44015243  0.14933622  0.10023284  1  0.41926  0  0.062303  0.520285  0  4.237313  0
N  N81  1  0.82721984  0.17579095  0.90529516  1  0.426033  0  0.06172  0.522966  0  4.242283  0
N  N82  1  0.41894446  0.59154913  0.31672455  1  0.426256  0  0.064121  0.526723  0  4.237786  0
N  N83  1  0.41075916  0.82868352  0.66766488  1  0.421923  0  0.062741  0.524074  0  4.235102  0
N  N84  1  0.10254941  0.46435446  0.14209557  1  0.444864  0  0.059713  0.512332  0  4.249068  0
N  N85  1  0.14614517  0.61361237  0.92894902  1  0.45365  0  0.061329  0.517945  0  4.262448  0
O  O86  1  0.91958646  0.74128876  0.56270330  1  -1.180268  0  -0.356544  -0.622684  0  2.285486  0
O  O87  1  0.26617592  0.07787285  0.23204793  1  -1.168818  0  -0.346555  -0.60868  0  2.292682  0
O  O88  1  0.07124821  0.26645942  0.41926570  1  -1.168794  0  -0.351866  -0.613685  0  2.328617  0
O  O89  1  0.73955981  0.91470732  0.76205465  1  -1.17419  0  -0.354964  -0.62128  0  2.276248  0
O  O90  1  0.07121478  0.74280407  0.76071811  1  -1.17292  0  -0.348379  -0.607251  0  2.334693  0
O  O91  1  0.73826875  0.07400486  0.41410115  1  -1.180841  0  -0.354437  -0.617067  0  2.284894  0
O  O92  1  0.91153455  0.27245798  0.23867740  1  -1.174997  0  -0.346298  -0.604176  0  2.266683  0
O  O93  1  0.26575411  0.92103367  0.56815278  1  -1.181507  0  -0.354787  -0.616838  0  2.32448  0
O  O94  1  0.26938124  0.74257728  0.41088644  1  -1.171548  0  -0.349351  -0.61364  0  2.320006  0
O  O95  1  0.91832138  0.07387747  0.76236900  1  -1.176383  0  -0.353307  -0.616085  0  2.325496  0
O  O96  1  0.73507753  0.26656926  0.57328640  1  -1.173131  0  -0.348632  -0.610362  0  2.271633  0
O  O97  1  0.07334881  0.92326227  0.23145968  1  -1.186464  0  -0.350744  -0.613396  0  2.280088  0
O  O98  1  0.07372241  0.92223415  0.76148184  1  -1.175688  0  -0.342331  -0.597042  0  2.281928  0
O  O99  1  0.73441474  0.26570088  0.42024116  1  -1.179031  0  -0.353401  -0.61714  0  2.293254  0
O  O100  1  0.91959090  0.07725823  0.23185883  1  -1.190669  0  -0.353835  -0.618816  0  2.276808  0
O  O101  1  0.26752965  0.74001482  0.56669232  1  -1.167757  0  -0.344582  -0.598686  0  2.282694  0
O  O102  1  0.92279914  0.73378551  0.75881131  1  -1.167225  0  -0.341371  -0.601079  0  2.258478  0
O  O103  1  0.26682563  0.07393377  0.41536538  1  -1.168122  0  -0.342517  -0.596787  0  2.298327  0
O  O104  1  0.06628765  0.27167859  0.23850120  1  -1.167282  0  -0.342853  -0.60061  0  2.301197  0
O  O105  1  0.73853224  0.92031331  0.56685489  1  -1.181606  0  -0.353942  -0.615101  0  2.28781  0
O  O106  1  0.73918330  0.06838957  0.76311237  1  -1.177352  0  -0.350523  -0.60791  0  2.289008  0
O  O107  1  0.07646443  0.73872538  0.41167644  1  -1.17354  0  -0.347741  -0.605076  0  2.263706  0
O  O108  1  0.26691953  0.92390377  0.23163167  1  -1.167088  0  -0.351156  -0.611231  0  2.286806  0
O  O109  1  0.91675001  0.26765743  0.57240740  1  -1.175051  0  -0.346249  -0.605845  0  2.270911  0
O  O110  1  0.79647378  0.06617036  0.56316911  1  -1.231906  0  -0.694461  -1.07039  0  2.361643  0
O  O111  1  0.06608564  0.06820519  0.56294975  1  -1.22979  0  -0.692443  -1.071577  0  2.351769  0
O  O112  1  0.06569114  0.07079135  0.29218575  1  -1.220913  0  -0.69206  -1.073323  0  2.350506  0
O  O113  1  0.06828883  0.79836120  0.55938837  1  -1.254565  0  -0.692236  -1.071732  0  2.352782  0
O  O114  1  0.14786119  0.95230468  0.44411111  1  -1.199815  0  -0.790177  -1.151485  0  2.129614  0
O  O115  1  0.95032189  0.95121518  0.44340823  1  -1.2017  0  -0.791862  -1.148767  0  2.129873  0
O  O116  1  0.94820471  0.14917409  0.44703949  1  -1.200073  0  -0.790683  -1.151212  0  2.127827  0
O  O117  1  0.94992640  0.94994300  0.64278837  1  -1.196499  0  -0.79092  -1.151724  0  2.127673  0
O  O118  1  0.21959091  0.25201674  0.49978987  1  -0.467779  0  -0.13865  -0.344438  0  1.91126  0
O  O119  1  0.27499412  0.36734325  0.33301918  1  -0.418374  0  -0.106168  -0.292993  0  1.888601  0
O  O120  1  0.38990139  0.24569905  0.05539215  1  -0.416375  0  -0.110113  -0.294751  0  1.910479  0
O  O121  1  0.47339894  0.11584896  0.17692135  1  -0.448037  0  -0.117465  -0.314693  0  1.931262  0
O  O122  1  0.85072992  0.26010480  0.83649889  1  -0.438653  0  -0.128239  -0.324835  0  1.879667  0
O  O123  1  0.73587797  0.16470685  0.94429703  1  -0.439809  0  -0.119741  -0.317094  0  1.915382  0
O  O124  1  0.34921854  0.55502872  0.33700937  1  -0.444785  0  -0.114678  -0.314419  0  1.934758  0
O  O125  1  0.46165067  0.65278562  0.22642347  1  -0.439434  0  -0.123673  -0.324636  0  1.895511  0
O  O126  1  0.34012622  0.85319566  0.75130337  1  -0.434541  0  -0.120129  -0.315584  0  1.898097  0
O  O127  1  0.45187440  0.73664461  0.65742329  1  -0.434835  0  -0.12234  -0.322068  0  1.899631  0
O  O128  1  0.03848841  0.48789644  0.22781107  1  -0.441326  0  -0.120105  -0.310446  0  1.914285  0
O  O129  1  0.20445904  0.43296871  0.10905348  1  -0.406721  0  -0.09547  -0.274108  0  1.951171  0
O  O130  1  0.23393193  0.57952962  0.85993337  1  -0.394585  0  -0.099683  -0.284347  0  1.909253  0
O  O131  1  0.12405292  0.67957166  0.97115859  1  -0.444728  0  -0.109556  -0.305394  0  1.935339  0
