# generated using pymatgen
data_MgH6C8O5
_symmetry_space_group_name_H-M   'P 1'
_cell_length_a   6.92261503
_cell_length_b   9.64830468
_cell_length_c   11.82520860
_cell_angle_alpha   90.00002545
_cell_angle_beta   90.00140523
_cell_angle_gamma   90.00002947
_symmetry_Int_Tables_number   1
_chemical_formula_structural   MgH6C8O5
_chemical_formula_sum   'Mg4 H24 C32 O20'
_cell_volume   789.82340832
_cell_formula_units_Z   4
loop_
 _symmetry_equiv_pos_site_id
 _symmetry_equiv_pos_as_xyz
  1  'x, y, z'
loop_
 _atom_site_type_symbol
 _atom_site_label
 _atom_site_symmetry_multiplicity
 _atom_site_fract_x
 _atom_site_fract_y
 _atom_site_fract_z
 _atom_site_occupancy
 _atom_site_pbe_bader_charge
 _atom_site_pbe_bader_spin_density
 _atom_site_pbe_cm5_charge
 _atom_site_pbe_ddec_charge
 _atom_site_pbe_ddec_spin_density
 _atom_site_pbe_ddec_sum_bond_order
 _atom_site_pbe_magmom
Mg  Mg0  1  0.95722151  0.77426659  0.79392676  1  1.707259  0  0.823496  1.347471  0  1.333013  0
Mg  Mg1  1  0.04276965  0.22574371  0.29391861  1  1.707297  0  0.823459  1.347352  0  1.333244  0
Mg  Mg2  1  0.54277124  0.27425824  0.29391933  1  1.707288  0  0.823451  1.347325  0  1.333286  0
Mg  Mg3  1  0.45722426  0.72573443  0.79392858  1  1.707244  0  0.823477  1.347433  0  1.333012  0
H  H4  1  0.18421156  0.68128870  0.13974588  1  0.040156  0  0.090223  0.129455  0  1.010898  0
H  H5  1  0.81571522  0.31875128  0.63968886  1  0.038754  0  0.090313  0.129646  0  1.010598  0
H  H6  1  0.31571404  0.18125013  0.63969091  1  0.038751  0  0.090317  0.129645  0  1.010617  0
H  H7  1  0.68421419  0.81871523  0.13975144  1  0.040269  0  0.090233  0.129509  0  1.010874  0
H  H8  1  0.24495982  0.50520623  0.16465150  1  0.092718  0  0.096084  0.143957  0  1.023225  0
H  H9  1  0.75503667  0.49483605  0.66463944  1  0.092455  0  0.096057  0.143916  0  1.02332  0
H  H10  1  0.25503564  0.00516422  0.66464414  1  0.092687  0  0.09603  0.143905  0  1.023347  0
H  H11  1  0.74495652  0.99479929  0.16465442  1  0.092603  0  0.096067  0.143941  0  1.023216  0
H  H12  1  0.09548339  0.59215212  0.26194587  1  0.028685  0  0.083851  0.108448  0  1.044833  0
H  H13  1  0.90447986  0.40782783  0.76190908  1  0.028916  0  0.083953  0.108624  0  1.044696  0
H  H14  1  0.40448382  0.09217414  0.76191077  1  0.028877  0  0.083928  0.108605  0  1.044722  0
H  H15  1  0.59548232  0.90785349  0.26195010  1  0.028839  0  0.083842  0.108447  0  1.04479  0
H  H16  1  0.18995001  0.39596413  0.85204705  1  0.06018  0  0.102789  0.110081  0  1.024729  0
H  H17  1  0.81010989  0.60406640  0.35214553  1  0.061245  0  0.10269  0.109932  0  1.024827  0
H  H18  1  0.31010099  0.89592979  0.35213798  1  0.061441  0  0.102654  0.109813  0  1.024954  0
H  H19  1  0.68995458  0.10404373  0.85204360  1  0.060237  0  0.102793  0.110074  0  1.024699  0
H  H20  1  0.28305484  0.31920122  0.97963342  1  0.085156  0  0.095934  0.102084  0  1.038862  0
H  H21  1  0.71692460  0.68082322  0.47971406  1  0.084122  0  0.095879  0.101893  0  1.039096  0
H  H22  1  0.21693661  0.81918400  0.47971538  1  0.084137  0  0.095905  0.101881  0  1.039114  0
H  H23  1  0.78308038  0.18082074  0.97962111  1  0.085059  0  0.096013  0.102156  0  1.038832  0
H  H24  1  0.41047258  0.29853308  0.84804576  1  0.052138  0  0.094613  0.09479  0  1.014865  0
H  H25  1  0.58960605  0.70151710  0.34808860  1  0.05112  0  0.094663  0.09478  0  1.014871  0
H  H26  1  0.08960091  0.79847475  0.34809849  1  0.051126  0  0.094647  0.094794  0  1.014945  0
H  H27  1  0.91049071  0.20146245  0.84802658  1  0.052299  0  0.094606  0.094771  0  1.014752  0
C  C28  1  0.74091788  0.57259908  0.93104367  1  0.717419  0  0.109335  0.205767  0  4.154011  0
C  C29  1  0.25908540  0.42741144  0.43104971  1  0.716989  0  0.109294  0.205536  0  4.154049  0
C  C30  1  0.75908159  0.07258879  0.43104813  1  0.716563  0  0.109216  0.205425  0  4.154046  0
C  C31  1  0.24091736  0.92740099  0.93104610  1  0.716695  0  0.109322  0.205786  0  4.154097  0
C  C32  1  0.91772560  0.60574413  0.00037457  1  0.764791  0  0.131684  0.282738  0  4.069707  0
C  C33  1  0.08227570  0.39424794  0.50036741  1  0.764876  0  0.131707  0.28281  0  4.069982  0
C  C34  1  0.58227015  0.10575197  0.50036565  1  0.765717  0  0.131779  0.282892  0  4.069829  0
C  C35  1  0.41772971  0.89425668  0.00037717  1  0.765456  0  0.13161  0.282658  0  4.069802  0
C  C36  1  0.95337938  0.54134687  0.10585153  1  0.029881  0  -0.056333  -0.117734  0  4.03463  0
C  C37  1  0.04658736  0.45865238  0.60583303  1  0.029547  0  -0.05629  -0.117817  0  4.034029  0
C  C38  1  0.54658383  0.04134726  0.60583246  1  0.029249  0  -0.056332  -0.117852  0  4.033965  0
C  C39  1  0.45337857  0.95865406  0.10585463  1  0.0297  0  -0.056301  -0.117578  0  4.034708  0
C  C40  1  0.81583813  0.44705342  0.14436110  1  0.688803  0  0.113452  0.243879  0  4.088029  0
C  C41  1  0.18414939  0.55297520  0.64436481  1  0.689399  0  0.113565  0.24402  0  4.088476  0
C  C42  1  0.68414797  0.94702194  0.64436460  1  0.689793  0  0.113525  0.244005  0  4.088696  0
C  C43  1  0.31583956  0.05294449  0.14436131  1  0.688729  0  0.113443  0.24379  0  4.088139  0
C  C44  1  0.62368928  0.42662105  0.08153462  1  0.756608  0  0.127881  0.239432  0  4.06671  0
C  C45  1  0.37631177  0.57339664  0.58154530  1  0.758234  0  0.127931  0.239545  0  4.067411  0
C  C46  1  0.87630186  0.92660615  0.58153929  1  0.757271  0  0.127904  0.239445  0  4.067357  0
C  C47  1  0.12368329  0.07338355  0.08153725  1  0.756909  0  0.127906  0.239491  0  4.066821  0
C  C48  1  0.59335873  0.49191528  0.97581852  1  0.534655  0  0.038106  -0.034117  0  4.08635  0
C  C49  1  0.40663076  0.50809461  0.47581493  1  0.534107  0  0.038053  -0.034201  0  4.086445  0
C  C50  1  0.90662604  0.99190220  0.47581279  1  0.534468  0  0.038099  -0.034084  0  4.086435  0
C  C51  1  0.09336056  0.00808593  0.97581812  1  0.534669  0  0.038101  -0.034176  0  4.086351  0
C  C52  1  0.12887766  0.58218631  0.17162654  1  -0.047606  0  -0.24618  -0.360489  0  3.952372  0
C  C53  1  0.87109293  0.41783738  0.67159566  1  -0.046184  0  -0.246434  -0.360896  0  3.952628  0
C  C54  1  0.37109264  0.08216358  0.67159825  1  -0.046417  0  -0.246406  -0.360891  0  3.952616  0
C  C55  1  0.62887939  0.91781761  0.17162902  1  -0.047599  0  -0.246163  -0.360582  0  3.952273  0
C  C56  1  0.32044308  0.36851220  0.89912944  1  0.358472  0  -0.142842  -0.172392  0  3.861712  0
C  C57  1  0.67958718  0.63152704  0.39919340  1  0.358975  0  -0.14283  -0.172077  0  3.861778  0
C  C58  1  0.17958431  0.86847095  0.39919445  1  0.35876  0  -0.142798  -0.171952  0  3.861988  0
C  C59  1  0.82045462  0.13149886  0.89912078  1  0.358258  0  -0.142886  -0.172402  0  3.861527  0
O  O60  1  0.72856752  0.63478155  0.83482180  1  -1.231289  0  -0.349151  -0.609569  0  2.472976  0
O  O61  1  0.27144735  0.36520736  0.33481663  1  -1.231116  0  -0.349167  -0.609537  0  2.4724  0
O  O62  1  0.77144442  0.13479413  0.33481809  1  -1.231115  0  -0.349128  -0.609483  0  2.472468  0
O  O63  1  0.22856612  0.86521654  0.83482372  1  -1.23126  0  -0.349129  -0.609573  0  2.473042  0
O  O64  1  0.02492508  0.69797370  0.95787244  1  -1.155766  0  -0.290547  -0.473761  0  2.31571  0
O  O65  1  0.97511616  0.30199042  0.45788089  1  -1.155656  0  -0.290624  -0.473694  0  2.315951  0
O  O66  1  0.47511338  0.19800811  0.45788032  1  -1.155727  0  -0.290642  -0.473706  0  2.315942  0
O  O67  1  0.52492641  0.80202753  0.95787470  1  -1.155756  0  -0.290435  -0.473667  0  2.31574  0
O  O68  1  0.82770314  0.37638861  0.23688580  1  -1.228347  0  -0.328384  -0.591006  0  2.364661  0
O  O69  1  0.17228285  0.62362116  0.73685756  1  -1.228746  0  -0.328447  -0.591143  0  2.366133  0
O  O70  1  0.67228206  0.87637987  0.73685604  1  -1.228729  0  -0.32841  -0.591073  0  2.366306  0
O  O71  1  0.32770248  0.12361539  0.23688817  1  -1.228311  0  -0.328433  -0.591019  0  2.364541  0
O  O72  1  0.49958659  0.35159325  0.13148426  1  -1.168321  0  -0.307434  -0.491775  0  2.305112  0
O  O73  1  0.50038341  0.64838343  0.63148903  1  -1.169377  0  -0.307427  -0.491693  0  2.306454  0
O  O74  1  0.00038646  0.85161157  0.63149017  1  -1.169233  0  -0.307413  -0.491709  0  2.306255  0
O  O75  1  0.99958932  0.14840657  0.13148143  1  -1.16853  0  -0.307417  -0.491768  0  2.305347  0
O  O76  1  0.42008561  0.49759223  0.91831810  1  -1.085604  0  -0.18654  -0.157195  0  2.606998  0
O  O77  1  0.57991026  0.50244512  0.41833303  1  -1.084936  0  -0.186393  -0.157049  0  2.606807  0
O  O78  1  0.07990477  0.99755354  0.41832916  1  -1.084929  0  -0.186402  -0.157093  0  2.606782  0
O  O79  1  0.92008677  0.00241332  0.91831858  1  -1.0855  0  -0.186564  -0.157195  0  2.607035  0
