# generated using pymatgen
data_NdH10C11NO7
_symmetry_space_group_name_H-M   'P 1'
_cell_length_a   7.75197614
_cell_length_b   8.12299803
_cell_length_c   10.16212319
_cell_angle_alpha   82.16962481
_cell_angle_beta   83.69351286
_cell_angle_gamma   70.44200924
_symmetry_Int_Tables_number   1
_chemical_formula_structural   NdH10C11NO7
_chemical_formula_sum   'Nd2 H20 C22 N2 O14'
_cell_volume   595.94297179
_cell_formula_units_Z   2
loop_
 _symmetry_equiv_pos_site_id
 _symmetry_equiv_pos_as_xyz
  1  'x, y, z'
loop_
 _atom_site_type_symbol
 _atom_site_label
 _atom_site_symmetry_multiplicity
 _atom_site_fract_x
 _atom_site_fract_y
 _atom_site_fract_z
 _atom_site_occupancy
 _atom_site_hle17_bader_spin_density
 _atom_site_hle17_ddec_charge
 _atom_site_hle17_ddec_spin_density
 _atom_site_hle17_ddec_sum_bond_order
 _atom_site_hle17_magmom
 _atom_site_hse06_10hf_bader_spin_density
 _atom_site_hse06_10hf_ddec_charge
 _atom_site_hse06_10hf_ddec_spin_density
 _atom_site_hse06_10hf_ddec_sum_bond_order
 _atom_site_hse06_10hf_magmom
 _atom_site_hse06_bader_spin_density
 _atom_site_hse06_ddec_charge
 _atom_site_hse06_ddec_spin_density
 _atom_site_hse06_ddec_sum_bond_order
 _atom_site_hse06_magmom
 _atom_site_pbe_bader_spin_density
 _atom_site_pbe_cm5_charge
 _atom_site_pbe_ddec_charge
 _atom_site_pbe_ddec_spin_density
 _atom_site_pbe_ddec_sum_bond_order
 _atom_site_pbe_magmom
Nd  Nd0  1  0.23214438  0.09012514  0.53439699  1  0  2.325168  0  1.642598  0  0  2.172956  0  2.096108  0  0  2.262594  0  1.964009  0  0  1.509491  2.137736  0  2.134194  0
Nd  Nd1  1  0.76785499  0.90987445  0.46560305  1  0  2.325164  0  1.642616  0  0  2.172944  0  2.09613  0  0  2.26259  0  1.964025  0  0  1.509494  2.137721  0  2.134219  0
H  H2  1  0.86587654  0.08127296  0.84186868  1  0  0.094334  0  0.961473  0  0  0.105734  0  1.022326  0  0  0.108678  0  1.019809  0  0  0.107077  0.103696  0  1.023928  0
H  H3  1  0.13412324  0.91872925  0.15813105  1  0  0.094327  0  0.961466  0  0  0.105724  0  1.022325  0  0  0.108672  0  1.019809  0  0  0.10708  0.103683  0  1.023933  0
H  H4  1  0.91305487  0.18185106  0.04587520  1  0  0.094529  0  0.974131  0  0  0.107078  0  1.033369  0  0  0.109756  0  1.032926  0  0  0.100956  0.105119  0  1.033841  0
H  H5  1  0.08694448  0.81814852  0.95412583  1  0  0.094516  0  0.974135  0  0  0.107063  0  1.033372  0  0  0.109741  0  1.032929  0  0  0.100948  0.105107  0  1.033847  0
H  H6  1  0.32601562  0.34089919  0.14742369  1  0  0.108008  0  0.96885  0  0  0.118379  0  1.030196  0  0  0.122321  0  1.028206  0  0  0.102607  0.115532  0  1.031956  0
H  H7  1  0.67398330  0.65910171  0.85257723  1  0  0.107984  0  0.968795  0  0  0.118352  0  1.030143  0  0  0.122298  0  1.028148  0  0  0.102591  0.115506  0  1.031903  0
H  H8  1  0.28473620  0.23896159  0.94039170  1  0  0.092642  0  0.940498  0  0  0.105842  0  0.997743  0  0  0.109019  0  0.995044  0  0  0.105014  0.103638  0  0.999521  0
H  H9  1  0.71526316  0.76103800  0.05960834  1  0  0.092645  0  0.940494  0  0  0.105852  0  0.99773  0  0  0.109029  0  0.995031  0  0  0.105019  0.103648  0  0.99951  0
H  H10  1  0.37380120  0.53525666  0.24207320  1  0  0.107912  0  0.943119  0  0  0.1198  0  1.00709  0  0  0.120949  0  1.007289  0  0  0.119733  0.118844  0  1.006916  0
H  H11  1  0.62619815  0.46474293  0.75792881  1  0  0.107889  0  0.943139  0  0  0.119774  0  1.007108  0  0  0.120924  0  1.007307  0  0  0.119714  0.118818  0  1.006933  0
H  H12  1  0.52988668  0.54290918  0.35241058  1  0  0.119818  0  0.937764  0  0  0.132359  0  0.997376  0  0  0.134279  0  0.996879  0  0  0.126081  0.131056  0  0.997658  0
H  H13  1  0.47011269  0.45709041  0.64758947  1  0  0.119828  0  0.93775  0  0  0.132362  0  0.99737  0  0  0.134282  0  0.996876  0  0  0.126081  0.131068  0  0.997638  0
H  H14  1  0.79045906  0.51473095  0.27085572  1  0  0.123531  0  0.924585  0  0  0.135258  0  0.987372  0  0  0.137861  0  0.985746  0  0  0.129248  0.133471  0  0.988807  0
H  H15  1  0.20954118  0.48526601  0.72914651  1  0  0.123542  0  0.924619  0  0  0.135263  0  0.987406  0  0  0.137867  0  0.985778  0  0  0.129291  0.133467  0  0.988835  0
H  H16  1  0.88767504  0.41061441  0.12751138  1  0  0.103922  0  0.91845  0  0  0.118065  0  0.977496  0  0  0.119978  0  0.975985  0  0  0.118676  0.116857  0  0.978393  0
H  H17  1  0.11232517  0.58938649  0.87248944  1  0  0.103931  0  0.918463  0  0  0.118065  0  0.977508  0  0  0.119979  0  0.975995  0  0  0.118678  0.116849  0  0.9784  0
H  H18  1  0.86250030  0.39306089  0.58305558  1  0  0.445343  0  0.847338  0  0  0.417661  0  0.904277  0  0  0.429013  0  0.887941  0  0  0.302833  0.409766  0  0.915637  0
H  H19  1  0.13749864  0.60694002  0.41694337  1  0  0.445334  0  0.847352  0  0  0.417647  0  0.904301  0  0  0.429  0  0.887964  0  0  0.302827  0.409752  0  0.91566  0
H  H20  1  0.83979948  0.20790146  0.64001762  1  0  0.429478  0  0.876119  0  0  0.397027  0  0.944121  0  0  0.40758  0  0.928965  0  0  0.299019  0.389258  0  0.955517  0
H  H21  1  0.16019861  0.79209813  0.35998055  1  0  0.429441  0  0.87616  0  0  0.396983  0  0.944177  0  0  0.407537  0  0.929019  0  0  0.299  0.389215  0  0.955572  0
C  C22  1  0.57020522  0.16293587  0.87171852  1  0  -0.133189  0  3.803999  0  0  -0.112296  0  4.042232  0  0  -0.125277  0  4.066186  0  0  -0.041449  -0.103017  0  4.025276  0
C  C23  1  0.42979371  0.83706503  0.12828043  1  0  -0.133224  0  3.803986  0  0  -0.1123  0  4.042202  0  0  -0.125287  0  4.066157  0  0  -0.041423  -0.103019  0  4.025244  0
C  C24  1  0.74701859  0.14251357  0.90713862  1  0  -0.043327  0  3.77654  0  0  -0.067569  0  4.025316  0  0  -0.061796  0  4.042439  0  0  -0.08521  -0.070907  0  4.012738  0
C  C25  1  0.25297990  0.85748865  0.09286023  1  0  -0.043316  0  3.776517  0  0  -0.06757  0  4.025299  0  0  -0.0618  0  4.042423  0  0  -0.085238  -0.070907  0  4.01272  0
C  C26  1  0.77342654  0.20138616  0.02252948  1  0  -0.194653  0  3.748103  0  0  -0.213298  0  4.006231  0  0  -0.222138  0  4.026671  0  0  -0.10658  -0.207049  0  3.992117  0
C  C27  1  0.22657108  0.79861474  0.97747055  1  0  -0.194636  0  3.74805  0  0  -0.213276  0  4.006178  0  0  -0.222115  0  4.026619  0  0  -0.106564  -0.207029  0  3.99206  0
C  C28  1  0.62156861  0.28665922  0.10776579  1  0  0.233819  0  3.773061  0  0  0.218777  0  4.028122  0  0  0.232549  0  4.046936  0  0  0.115451  0.209263  0  4.015228  0
C  C29  1  0.37842987  0.71334300  0.89223404  1  0  0.233817  0  3.772979  0  0  0.218771  0  4.028048  0  0  0.232543  0  4.046863  0  0  0.115435  0.209256  0  4.015161  0
C  C30  1  0.44522843  0.29022337  0.07933227  1  0  -0.176133  0  3.696259  0  0  -0.196195  0  3.957199  0  0  -0.204871  0  3.976875  0  0  -0.102844  -0.190546  0  3.944463  0
C  C31  1  0.55477049  0.70977753  0.92066865  1  0  -0.176133  0  3.696203  0  0  -0.196188  0  3.95715  0  0  -0.204867  0  3.976824  0  0  -0.102829  -0.190539  0  3.944414  0
C  C32  1  0.42161815  0.23099073  0.96327397  1  0  -0.023146  0  3.749123  0  0  -0.049743  0  4.002581  0  0  -0.044323  0  4.021074  0  0  -0.079731  -0.053455  0  3.9899  0
C  C33  1  0.57838163  0.76901149  0.03672577  1  0  -0.023122  0  3.74911  0  0  -0.049733  0  4.002565  0  0  -0.044314  0  4.021062  0  0  -0.079737  -0.053445  0  3.989883  0
C  C34  1  0.54008529  0.12624097  0.73945013  1  0  0.709322  0  3.84948  0  0  0.660691  0  4.145496  0  0  0.697144  0  4.137026  0  0  0.22539  0.634531  0  4.154199  0
C  C35  1  0.45991453  0.87375730  0.26054903  1  0  0.709326  0  3.84941  0  0  0.660662  0  4.145461  0  0  0.697129  0  4.136982  0  0  0.225386  0.634503  0  4.154162  0
C  C36  1  0.49105880  0.45306062  0.29934948  1  0  -0.170715  0  3.666934  0  0  -0.224946  0  3.90488  0  0  -0.225496  0  3.912455  0  0  -0.052217  -0.224264  0  3.899048  0
C  C37  1  0.50894186  0.54693897  0.70065046  1  0  -0.170702  0  3.666907  0  0  -0.224923  0  3.904852  0  0  -0.225474  0  3.912425  0  0  -0.052209  -0.224241  0  3.899016  0
C  C38  1  0.41957133  0.33536515  0.40410333  1  0  0.725395  0  3.800383  0  0  0.677036  0  4.1004  0  0  0.710835  0  4.093895  0  0  0.22148  0.653291  0  4.108493  0
C  C39  1  0.58042932  0.66463443  0.59589858  1  0  0.725387  0  3.800411  0  0  0.677009  0  4.100445  0  0  0.710812  0  4.093937  0  0  0.221465  0.653263  0  4.10854  0
C  C40  1  0.81742370  0.39203886  0.22575319  1  0  -0.163749  0  3.669352  0  0  -0.223093  0  3.917685  0  0  -0.223246  0  3.924137  0  0  -0.049511  -0.222845  0  3.912483  0
C  C41  1  0.18257740  0.60795941  0.77424784  1  0  -0.163828  0  3.669458  0  0  -0.223115  0  3.917755  0  0  -0.223273  0  3.924216  0  0  -0.049562  -0.222816  0  3.91249  0
C  C42  1  0.95219030  0.25011657  0.31276650  1  0  0.734154  0  3.834956  0  0  0.690258  0  4.133321  0  0  0.723763  0  4.126788  0  0  0.226565  0.667002  0  4.140322  0
C  C43  1  0.04781081  0.74988170  0.68723354  1  0  0.734179  0  3.834927  0  0  0.690219  0  4.133396  0  0  0.723725  0  4.126861  0  0  0.226547  0.666949  0  4.140396  0
N  N44  1  0.64504968  0.36644041  0.21238266  1  0  -0.129576  0  3.477244  0  0  -0.049088  0  3.708073  0  0  -0.067319  0  3.732659  0  0  -0.282387  -0.035459  0  3.690189  0
N  N45  1  0.35495054  0.63356049  0.78761717  1  0  -0.129547  0  3.477212  0  0  -0.049069  0  3.708035  0  0  -0.0673  0  3.732621  0  0  -0.282361  -0.035457  0  3.690143  0
O  O46  1  0.67758079  0.09463122  0.65118405  1  0  -0.76896  0  2.068684  0  0  -0.707899  0  2.318529  0  0  -0.738584  0  2.306431  0  0  -0.388898  -0.690318  0  2.327288  0
O  O47  1  0.32241903  0.90536706  0.34881511  1  0  -0.768952  0  2.068626  0  0  -0.707893  0  2.31852  0  0  -0.73857  0  2.306386  0  0  -0.388901  -0.690314  0  2.327282  0
O  O48  1  0.37863266  0.13621158  0.71453386  1  0  -0.740137  0  2.013732  0  0  -0.69283  0  2.275106  0  0  -0.722943  0  2.260298  0  0  -0.406579  -0.676326  0  2.285312  0
O  O49  1  0.62136540  0.86378801  0.28546726  1  0  -0.740132  0  2.01372  0  0  -0.69281  0  2.275098  0  0  -0.722929  0  2.260286  0  0  -0.406582  -0.676305  0  2.285302  0
O  O50  1  0.28133157  0.40629736  0.48085210  1  0  -0.665263  0  1.964069  0  0  -0.608546  0  2.187836  0  0  -0.636947  0  2.178227  0  0  -0.325154  -0.590377  0  2.194362  0
O  O51  1  0.71866907  0.59370222  0.51914981  1  0  -0.66525  0  1.96409  0  0  -0.608525  0  2.18786  0  0  -0.636928  0  2.178251  0  0  -0.325127  -0.590353  0  2.194383  0
O  O52  1  0.49401161  0.16837716  0.41062477  1  0  -0.816631  0  2.194573  0  0  -0.761737  0  2.465341  0  0  -0.796632  0  2.45368  0  0  -0.441646  -0.743402  0  2.473197  0
O  O53  1  0.50598774  0.83162243  0.58937626  1  0  -0.816631  0  2.194583  0  0  -0.761731  0  2.465362  0  0  -0.796629  0  2.453701  0  0  -0.441646  -0.743395  0  2.473212  0
O  O54  1  0.91289704  0.11492841  0.36821969  1  0  -0.809126  0  2.07675  0  0  -0.754797  0  2.345966  0  0  -0.788248  0  2.330223  0  0  -0.426376  -0.737298  0  2.355826  0
O  O55  1  0.08710536  0.88506986  0.63178026  1  0  -0.809122  0  2.076754  0  0  -0.754778  0  2.346015  0  0  -0.788222  0  2.330261  0  0  -0.426363  -0.737282  0  2.355882  0
O  O56  1  0.09778236  0.27847807  0.33075185  1  0  -0.686397  0  1.994324  0  0  -0.636272  0  2.230945  0  0  -0.665671  0  2.221986  0  0  -0.371174  -0.618482  0  2.236067  0
O  O57  1  0.90221832  0.72152152  0.66924711  1  0  -0.686382  0  1.994288  0  0  -0.636245  0  2.230946  0  0  -0.665644  0  2.221988  0  0  -0.371169  -0.618456  0  2.236076  0
O  O58  1  0.93121112  0.27177483  0.62209857  1  0  -0.926371  0  1.832189  0  0  -0.878594  0  2.021179  0  0  -0.902819  0  1.98398  0  0  -0.649864  -0.8653  0  2.045123  0
O  O59  1  0.06878826  0.72822476  0.37789950  1  0  -0.926338  0  1.83223  0  0  -0.878554  0  2.021218  0  0  -0.902784  0  1.984021  0  0  -0.649839  -0.865258  0  2.045158  0
