# generated using pymatgen
data_AgH16C26S3N2(OF3)3
_symmetry_space_group_name_H-M   'P 1'
_cell_length_a   11.55017610
_cell_length_b   11.55018366
_cell_length_c   26.80122258
_cell_angle_alpha   95.74878063
_cell_angle_beta   95.74886274
_cell_angle_gamma   94.02462613
_symmetry_Int_Tables_number   1
_chemical_formula_structural   AgH16C26S3N2(OF3)3
_chemical_formula_sum   'Ag4 H64 C104 S12 N8 O12 F36'
_cell_volume   3527.94702071
_cell_formula_units_Z   4
loop_
 _symmetry_equiv_pos_site_id
 _symmetry_equiv_pos_as_xyz
  1  'x, y, z'
loop_
 _atom_site_type_symbol
 _atom_site_label
 _atom_site_symmetry_multiplicity
 _atom_site_fract_x
 _atom_site_fract_y
 _atom_site_fract_z
 _atom_site_occupancy
 _atom_site_pbe_bader_charge
 _atom_site_pbe_bader_spin_density
 _atom_site_pbe_cm5_charge
 _atom_site_pbe_ddec_charge
 _atom_site_pbe_ddec_spin_density
 _atom_site_pbe_ddec_sum_bond_order
 _atom_site_pbe_magmom
Ag  Ag0  1  0.53897533  0.99289495  0.70984506  1  0.559109  0  0.471031  0.288961  0  2.096715  0
Ag  Ag1  1  0.00710525  0.46102495  0.79015428  1  0.559132  0  0.471015  0.288925  0  2.096761  0
Ag  Ag2  1  0.46102602  0.00710350  0.29015471  1  0.55914  0  0.471016  0.288947  0  2.096724  0
Ag  Ag3  1  0.99289435  0.53897421  0.20984508  1  0.559142  0  0.471011  0.288912  0  2.096729  0
H  H4  1  0.78403367  0.69662744  0.64356853  1  0.144075  0  0.107341  0.145978  0  1.033646  0
H  H5  1  0.30337122  0.21596571  0.85643161  1  0.144092  0  0.107334  0.145967  0  1.033651  0
H  H6  1  0.21596330  0.30337234  0.35643149  1  0.144094  0  0.107337  0.145946  0  1.033655  0
H  H7  1  0.69662660  0.78403589  0.14356890  1  0.144039  0  0.107336  0.145958  0  1.033667  0
H  H8  1  0.03452715  0.09471228  0.65483274  1  0.082324  0  0.088814  0.134888  0  1.013011  0
H  H9  1  0.90528937  0.96547258  0.84516713  1  0.082324  0  0.088815  0.134889  0  1.013005  0
H  H10  1  0.96547330  0.90528957  0.34516641  1  0.081953  0  0.088812  0.134881  0  1.013003  0
H  H11  1  0.09471109  0.03452665  0.15483339  1  0.081941  0  0.088815  0.134878  0  1.013011  0
H  H12  1  0.92856644  0.09668511  0.60253962  1  0.098577  0  0.091677  0.147409  0  1.003967  0
H  H13  1  0.90331747  0.07143367  0.89746057  1  0.098589  0  0.091681  0.147423  0  1.003944  0
H  H14  1  0.07143400  0.90331673  0.39746027  1  0.0986  0  0.091641  0.147332  0  1.003904  0
H  H15  1  0.09668213  0.92856461  0.10253987  1  0.098611  0  0.091653  0.147354  0  1.003878  0
H  H16  1  0.90763057  0.17034224  0.66211545  1  0.085241  0  0.08782  0.143867  0  1.027682  0
H  H17  1  0.82965732  0.09236928  0.83788418  1  0.085236  0  0.087819  0.143864  0  1.027667  0
H  H18  1  0.09236990  0.82965700  0.33788395  1  0.085232  0  0.087812  0.143848  0  1.027657  0
H  H19  1  0.17034401  0.90763089  0.16211679  1  0.085217  0  0.087792  0.143841  0  1.027669  0
H  H20  1  0.78477035  0.63852930  0.73791086  1  0.127327  0  0.105149  0.121841  0  1.044148  0
H  H21  1  0.36147059  0.21522835  0.76208932  1  0.1273  0  0.105176  0.121896  0  1.044213  0
H  H22  1  0.21523096  0.36147262  0.26208945  1  0.12722  0  0.105137  0.121815  0  1.044134  0
H  H23  1  0.63852727  0.78476978  0.23791029  1  0.127182  0  0.105159  0.121877  0  1.044205  0
H  H24  1  0.64463378  0.53756369  0.78881419  1  0.080883  0  0.106568  0.101908  0  1.013136  0
H  H25  1  0.46243723  0.35536598  0.71118607  1  0.080817  0  0.106563  0.101927  0  1.013108  0
H  H26  1  0.35536668  0.46243554  0.21118633  1  0.080915  0  0.106588  0.101959  0  1.013089  0
H  H27  1  0.53756150  0.64463223  0.28881358  1  0.080879  0  0.106548  0.101887  0  1.013111  0
H  H28  1  0.46806778  0.63864371  0.81167825  1  0.075199  0  0.112379  0.11968  0  0.979769  0
H  H29  1  0.36135536  0.53193262  0.68832150  1  0.075194  0  0.112371  0.119691  0  0.979744  0
H  H30  1  0.53193094  0.36135625  0.18832036  1  0.075185  0  0.112371  0.119695  0  0.979679  0
H  H31  1  0.63864424  0.46806654  0.31167823  1  0.075194  0  0.11237  0.119667  0  0.979778  0
H  H32  1  0.43880881  0.83466775  0.78137482  1  0.123191  0  0.111354  0.084651  0  1.03367  0
H  H33  1  0.16533214  0.56119028  0.71862559  1  0.123232  0  0.111371  0.084677  0  1.033635  0
H  H34  1  0.56119082  0.16532967  0.21862372  1  0.123148  0  0.111352  0.08464  0  1.033694  0
H  H35  1  0.83466919  0.43880990  0.28137426  1  0.123229  0  0.111365  0.084656  0  1.033649  0
H  H36  1  0.20697270  0.03348850  0.55961839  1  0.144497  0  0.104535  0.129324  0  1.022697  0
H  H37  1  0.96651140  0.79302693  0.94038109  1  0.144531  0  0.10455  0.129335  0  1.022692  0
H  H38  1  0.79303125  0.96651104  0.44038305  1  0.144449  0  0.104579  0.129399  0  1.022697  0
H  H39  1  0.03348996  0.20697065  0.05961865  1  0.144474  0  0.104517  0.129287  0  1.022774  0
H  H40  1  0.03884564  0.81924049  0.70594763  1  0.071598  0  0.093734  0.141828  0  1.005345  0
H  H41  1  0.18075837  0.96115375  0.79405301  1  0.071634  0  0.093748  0.141832  0  1.005334  0
H  H42  1  0.96115306  0.18075945  0.29405284  1  0.071635  0  0.093745  0.141831  0  1.005343  0
H  H43  1  0.81924385  0.03884565  0.20594685  1  0.07251  0  0.093746  0.141824  0  1.005351  0
H  H44  1  0.06596613  0.71571702  0.65652403  1  0.096639  0  0.097067  0.152436  0  0.999313  0
H  H45  1  0.28428512  0.93403519  0.84347651  1  0.096578  0  0.097061  0.152407  0  0.999285  0
H  H46  1  0.93403257  0.28428467  0.34347615  1  0.096608  0  0.097066  0.152439  0  0.999252  0
H  H47  1  0.71571709  0.06596420  0.15652372  1  0.096605  0  0.097052  0.152417  0  0.999291  0
H  H48  1  0.17185568  0.75101692  0.70952504  1  0.03593  0  0.088044  0.124279  0  1.017907  0
H  H49  1  0.24898370  0.82814473  0.79047504  1  0.036172  0  0.088051  0.124273  0  1.01793  0
H  H50  1  0.82814390  0.24898310  0.29047585  1  0.036181  0  0.088054  0.124289  0  1.017962  0
H  H51  1  0.75101678  0.17185277  0.20952503  1  0.036139  0  0.088066  0.124288  0  1.017847  0
H  H52  1  0.29938491  0.21242165  0.57587508  1  0.1152  0  0.101548  0.115979  0  1.040778  0
H  H53  1  0.78757784  0.70061519  0.92412363  1  0.115207  0  0.101549  0.115974  0  1.04078  0
H  H54  1  0.70061378  0.78757916  0.42412543  1  0.115193  0  0.10156  0.115989  0  1.040769  0
H  H55  1  0.21242349  0.29938499  0.07587659  1  0.115216  0  0.10154  0.115977  0  1.040752  0
H  H56  1  0.46199433  0.36293530  0.57008664  1  0.089629  0  0.119394  0.116701  0  0.960009  0
H  H57  1  0.63706550  0.53800536  0.92991212  1  0.089797  0  0.119414  0.116724  0  0.960024  0
H  H58  1  0.53800614  0.63706307  0.42991347  1  0.089603  0  0.119416  0.116725  0  0.960031  0
H  H59  1  0.36293845  0.46199419  0.07008857  1  0.089665  0  0.119417  0.116729  0  0.959967  0
H  H60  1  0.64877201  0.36291516  0.62790579  1  0.165338  0  0.107846  0.131064  0  1.054251  0
H  H61  1  0.63708491  0.35122701  0.87209333  1  0.165065  0  0.107791  0.130956  0  1.054231  0
H  H62  1  0.35122760  0.63708226  0.37209387  1  0.165296  0  0.107786  0.130938  0  1.054243  0
H  H63  1  0.36291642  0.64877317  0.12790727  1  0.165112  0  0.10785  0.131064  0  1.054333  0
H  H64  1  0.66505888  0.20877560  0.68594147  1  0.109828  0  0.11359  0.093844  0  1.012338  0
H  H65  1  0.79122588  0.33494401  0.81405756  1  0.109814  0  0.113568  0.093866  0  1.012311  0
H  H66  1  0.33494157  0.79122449  0.31405909  1  0.109852  0  0.113558  0.093807  0  1.01228  0
H  H67  1  0.20877544  0.66505791  0.18594237  1  0.109799  0  0.113567  0.093859  0  1.012309  0
C  C68  1  0.92209927  0.83616284  0.58598924  1  0.054305  0  -0.000466  -0.049421  0  3.907932  0
C  C69  1  0.16383714  0.07790159  0.91401027  1  0.054307  0  -0.000462  -0.049449  0  3.907991  0
C  C70  1  0.07790208  0.16383560  0.41401054  1  0.054175  0  -0.000464  -0.049388  0  3.907929  0
C  C71  1  0.83616683  0.92209797  0.08598855  1  0.054194  0  -0.000433  -0.049457  0  3.907951  0
C  C72  1  0.03409791  0.85782775  0.57567318  1  -0.008645  0  -0.004644  -0.063657  0  3.928555  0
C  C73  1  0.14217261  0.96590195  0.92432678  1  -0.008664  0  -0.004691  -0.063727  0  3.928722  0
C  C74  1  0.96590253  0.14217322  0.42432778  1  -0.008631  0  -0.004655  -0.063685  0  3.928763  0
C  C75  1  0.85783050  0.03409666  0.07567233  1  -0.00883  0  -0.004688  -0.063711  0  3.928711  0
C  C76  1  0.05020268  0.81416986  0.52216712  1  1.083586  0  0.193499  0.358586  0  3.98496  0
C  C77  1  0.18582966  0.94979639  0.97783204  1  1.083843  0  0.193494  0.358654  0  3.984805  0
C  C78  1  0.94979691  0.18583018  0.47783227  1  1.083834  0  0.193481  0.358552  0  3.984911  0
C  C79  1  0.81416993  0.05020363  0.02216773  1  1.084054  0  0.193486  0.358634  0  3.98489  0
C  C80  1  0.93378499  0.73987592  0.50148254  1  1.168454  0  0.191037  0.251259  0  3.98765  0
C  C81  1  0.26012333  0.06621297  0.99851684  1  1.168505  0  0.191076  0.251248  0  3.987612  0
C  C82  1  0.06621461  0.26012236  0.49851827  1  1.168433  0  0.191163  0.251392  0  3.987519  0
C  C83  1  0.73987538  0.93378785  0.00148255  1  1.168743  0  0.191048  0.251273  0  3.987468  0
C  C84  1  0.84689634  0.77635174  0.54014805  1  1.101805  0  0.193691  0.35256  0  3.985326  0
C  C85  1  0.22364778  0.15310527  0.95985184  1  1.101908  0  0.193715  0.352644  0  3.985322  0
C  C86  1  0.15310412  0.22364749  0.45985209  1  1.102049  0  0.193733  0.352613  0  3.985313  0
C  C87  1  0.77635179  0.84689650  0.04014763  1  1.101654  0  0.193681  0.352633  0  3.985129  0
C  C88  1  0.87800228  0.98344393  0.65652526  1  -0.208483  0  -0.000928  0.073588  0  3.907461  0
C  C89  1  0.01655609  0.12199703  0.84347451  1  -0.208472  0  -0.000901  0.073676  0  3.907361  0
C  C90  1  0.12199732  0.01655524  0.34347373  1  -0.208457  0  -0.000937  0.07355  0  3.907465  0
C  C91  1  0.98344437  0.87800220  0.15652601  1  -0.208498  0  -0.000959  0.07349  0  3.907581  0
C  C92  1  0.86978008  0.87001525  0.63222232  1  0.031893  0  -0.031796  0.007262  0  4.030149  0
C  C93  1  0.12998444  0.13022117  0.86777792  1  0.031863  0  -0.031748  0.007318  0  4.030138  0
C  C94  1  0.13022125  0.12998493  0.36777753  1  0.031878  0  -0.03177  0.007283  0  4.030172  0
C  C95  1  0.87001692  0.86977641  0.13222145  1  0.031908  0  -0.031768  0.007375  0  4.030132  0
C  C96  1  0.80063412  0.78943098  0.65628813  1  0.018334  0  -0.096076  -0.169421  0  3.948912  0
C  C97  1  0.21056827  0.19936730  0.84371210  1  0.018268  0  -0.096114  -0.169476  0  3.949104  0
C  C98  1  0.19936635  0.21056739  0.34371161  1  0.018281  0  -0.096104  -0.169404  0  3.949104  0
C  C99  1  0.78943131  0.80063359  0.15628770  1  0.018284  0  -0.096051  -0.1694  0  3.949055  0
C  C100  1  0.75607240  0.84096558  0.69798183  1  -0.216639  0  -0.03145  -0.075953  0  4.06439  0
C  C101  1  0.15903458  0.24392785  0.80201911  1  -0.216859  0  -0.031376  -0.07585  0  4.064306  0
C  C102  1  0.24392805  0.15903452  0.30201873  1  -0.216588  0  -0.03139  -0.075892  0  4.064401  0
C  C103  1  0.84096500  0.75607217  0.19798103  1  -0.21685  0  -0.031402  -0.075926  0  4.064369  0
C  C104  1  0.94005509  0.09209572  0.64345095  1  -0.069754  0  -0.24751  -0.41914  0  3.981234  0
C  C105  1  0.90790418  0.05994501  0.85654874  1  -0.069749  0  -0.247507  -0.41915  0  3.981166  0
C  C106  1  0.05994538  0.90790439  0.35654849  1  -0.06935  0  -0.247456  -0.419005  0  3.981075  0
C  C107  1  0.09209627  0.94005509  0.14345182  1  -0.069345  0  -0.247464  -0.419027  0  3.981042  0
C  C108  1  0.68051091  0.78406875  0.73038848  1  0.514032  0  0.119773  0.22878  0  3.984698  0
C  C109  1  0.21593071  0.31948696  0.76961119  1  0.514564  0  0.119726  0.228763  0  3.984605  0
C  C110  1  0.31949044  0.21593057  0.26961096  1  0.514058  0  0.119717  0.228729  0  3.984752  0
C  C111  1  0.78406800  0.68051385  0.23038857  1  0.514552  0  0.119743  0.22882  0  3.984563  0
C  C112  1  0.70521314  0.67660797  0.74743207  1  -0.010021  0  -0.079285  -0.14838  0  3.893819  0
C  C113  1  0.32339359  0.29478670  0.75256857  1  -0.010008  0  -0.079271  -0.148405  0  3.893879  0
C  C114  1  0.29478731  0.32339214  0.25256812  1  -0.009912  0  -0.079254  -0.148312  0  3.893807  0
C  C115  1  0.67660600  0.70521333  0.24743157  1  -0.009933  0  -0.079251  -0.148403  0  3.893979  0
C  C116  1  0.62797433  0.62208688  0.77600481  1  -0.001679  0  -0.064932  -0.01264  0  3.959105  0
C  C117  1  0.37791374  0.37202603  0.72399543  1  -0.001619  0  -0.064913  -0.01267  0  3.959026  0
C  C118  1  0.37202528  0.37791054  0.22399447  1  -0.001685  0  -0.06491  -0.012689  0  3.959067  0
C  C119  1  0.62208584  0.62797399  0.27600434  1  -0.001694  0  -0.06493  -0.012636  0  3.959042  0
C  C120  1  0.52970305  0.67762343  0.78870513  1  -0.002549  0  -0.086851  -0.138898  0  3.995583  0
C  C121  1  0.32237696  0.47029692  0.71129467  1  -0.002369  0  -0.08687  -0.138926  0  3.995523  0
C  C122  1  0.47029484  0.32237298  0.21129291  1  -0.002314  0  -0.086855  -0.138861  0  3.995533  0
C  C123  1  0.67762262  0.52970310  0.28870510  1  -0.002533  0  -0.086857  -0.138897  0  3.99552  0
C  C124  1  0.51198900  0.78543558  0.77174122  1  0.404237  0  0.037929  0.081998  0  3.971436  0
C  C125  1  0.21456479  0.48800956  0.72825884  1  0.404219  0  0.037939  0.082011  0  3.971448  0
C  C126  1  0.48801063  0.21456098  0.22825690  1  0.404208  0  0.037939  0.081967  0  3.971488  0
C  C127  1  0.78543653  0.51199149  0.27174142  1  0.404232  0  0.037898  0.081956  0  3.971489  0
C  C128  1  0.16424904  0.88074354  0.65780502  1  -0.205397  0  -0.001523  0.069025  0  3.903152  0
C  C129  1  0.11925998  0.83574980  0.84219545  1  -0.205379  0  -0.001544  0.069033  0  3.903036  0
C  C130  1  0.83575054  0.11925560  0.34219620  1  -0.205446  0  -0.001522  0.069028  0  3.903109  0
C  C131  1  0.88074225  0.16424874  0.15780325  1  -0.205499  0  -0.001519  0.069013  0  3.903091  0
C  C132  1  0.13425650  0.91178844  0.60956926  1  0.063972  0  -0.029183  0.017618  0  4.046702  0
C  C133  1  0.08821203  0.86574455  0.89043115  1  0.063942  0  -0.029233  0.017462  0  4.046736  0
C  C134  1  0.86574661  0.08820841  0.39043164  1  0.063981  0  -0.02918  0.017601  0  4.046774  0
C  C135  1  0.91179019  0.13425485  0.10956871  1  0.063958  0  -0.029188  0.017611  0  4.046683  0
C  C136  1  0.21478012  0.99938239  0.59606769  1  -0.026344  0  -0.095877  -0.172031  0  3.956901  0
C  C137  1  0.00061621  0.78522091  0.90393077  1  -0.026333  0  -0.095861  -0.171931  0  3.956913  0
C  C138  1  0.78522210  0.00061526  0.40393359  1  -0.026414  0  -0.095839  -0.172047  0  3.957049  0
C  C139  1  0.99938515  0.21477755  0.09606751  1  -0.026395  0  -0.095871  -0.172034  0  3.957015  0
C  C140  1  0.30405094  0.03630035  0.63369867  1  -0.182296  0  -0.024971  -0.061722  0  4.042384  0
C  C141  1  0.96369915  0.69595176  0.86630058  1  -0.181786  0  -0.02503  -0.061713  0  4.042425  0
C  C142  1  0.69594953  0.96369714  0.36630252  1  -0.181973  0  -0.025025  -0.061803  0  4.042381  0
C  C143  1  0.03630394  0.30404859  0.13369861  1  -0.182169  0  -0.02499  -0.061668  0  4.0424  0
C  C144  1  0.10757611  0.78739828  0.68380340  1  -0.06272  0  -0.241548  -0.404987  0  3.981333  0
C  C145  1  0.21260538  0.89242431  0.81619790  1  -0.062726  0  -0.241533  -0.404917  0  3.9812  0
C  C146  1  0.89242345  0.21260348  0.31619757  1  -0.062612  0  -0.241565  -0.404989  0  3.981302  0
C  C147  1  0.78739771  0.10757517  0.18380163  1  -0.063697  0  -0.241546  -0.404938  0  3.98125  0
C  C148  1  0.39796191  0.12641927  0.63190348  1  0.454175  0  0.115287  0.214076  0  4.009375  0
C  C149  1  0.87357936  0.60203935  0.86809530  1  0.453763  0  0.115289  0.213931  0  4.009445  0
C  C150  1  0.60203857  0.87357822  0.36809659  1  0.454139  0  0.115338  0.214182  0  4.009336  0
C  C151  1  0.12642111  0.39796076  0.13190414  1  0.454065  0  0.115269  0.213994  0  4.009454  0
C  C152  1  0.38266912  0.21230046  0.59866819  1  0.03756  0  -0.079984  -0.155192  0  3.921109  0
C  C153  1  0.78769979  0.61733280  0.90133066  1  0.037417  0  -0.07999  -0.155171  0  3.92099  0
C  C154  1  0.61733222  0.78769886  0.40133163  1  0.037551  0  -0.080011  -0.155237  0  3.921094  0
C  C155  1  0.21230153  0.38266825  0.09866923  1  0.037567  0  -0.079989  -0.155178  0  3.921057  0
C  C156  1  0.47299368  0.29645441  0.59598164  1  -0.072006  0  -0.06028  -0.018062  0  3.966774  0
C  C157  1  0.70354470  0.52700555  0.90401705  1  -0.07188  0  -0.060245  -0.018022  0  3.96676  0
C  C158  1  0.52700503  0.70354466  0.40401880  1  -0.072015  0  -0.060267  -0.018054  0  3.96685  0
C  C159  1  0.29645663  0.47299463  0.09598318  1  -0.072002  0  -0.060238  -0.01801  0  3.966685  0
C  C160  1  0.57692261  0.29646680  0.62751211  1  -0.034666  0  -0.084174  -0.126571  0  3.946674  0
C  C161  1  0.70353350  0.42307786  0.87248671  1  -0.034661  0  -0.084151  -0.126478  0  3.946513  0
C  C162  1  0.42307961  0.70353259  0.37248775  1  -0.034632  0  -0.084132  -0.126472  0  3.946644  0
C  C163  1  0.29646870  0.57692328  0.12751323  1  -0.03453  0  -0.084182  -0.126607  0  3.946705  0
C  C164  1  0.58606533  0.21072737  0.66019972  1  0.459785  0  0.04143  0.08457  0  3.936878  0
C  C165  1  0.78927364  0.41393558  0.83979918  1  0.459609  0  0.041422  0.084513  0  3.93673  0
C  C166  1  0.41393512  0.78927273  0.33980121  1  0.459802  0  0.04149  0.084675  0  3.936785  0
C  C167  1  0.21072768  0.58606547  0.16020071  1  0.459641  0  0.041416  0.084535  0  3.936841  0
C  C168  1  0.58091127  0.04364503  0.87817002  1  1.648788  0  0.285178  0.511085  0  4.067229  0
C  C169  1  0.95635991  0.41908533  0.62183078  1  1.646638  0  0.285222  0.511184  0  4.067141  0
C  C170  1  0.41907692  0.95635831  0.12183014  1  1.646371  0  0.285216  0.51112  0  4.067286  0
C  C171  1  0.04364313  0.58091761  0.37817077  1  1.648616  0  0.285189  0.511003  0  4.067336  0
S  S172  1  0.79890069  0.98936489  0.70765811  1  0.206584  0  0.086135  0.098153  0  2.997846  0
S  S173  1  0.01063393  0.20109838  0.79234157  1  0.206368  0  0.086077  0.098052  0  2.997731  0
S  S174  1  0.20110326  0.01063554  0.29234188  1  0.206499  0  0.086095  0.098105  0  2.997866  0
S  S175  1  0.98936391  0.79890061  0.20765882  1  0.206351  0  0.086133  0.098155  0  2.997928  0
S  S176  1  0.28883594  0.96139959  0.68601228  1  0.22063  0  0.079969  0.0991  0  3.044348  0
S  S177  1  0.03860223  0.71116498  0.81398785  1  0.220627  0  0.079986  0.099091  0  3.044331  0
S  S178  1  0.71116450  0.03860050  0.31398940  1  0.22043  0  0.079934  0.099081  0  3.044302  0
S  S179  1  0.96139912  0.28883260  0.18601189  1  0.220661  0  0.080006  0.099122  0  3.044218  0
S  S180  1  0.53426747  0.13021711  0.82574598  1  3.267467  0  0.476063  0.97875  0  6.376913  0
S  S181  1  0.86978573  0.46573080  0.67425550  1  3.269659  0  0.476029  0.978639  0  6.376961  0
S  S182  1  0.46572771  0.86978687  0.17425377  1  3.26954  0  0.475936  0.97848  0  6.377109  0
S  S183  1  0.13021471  0.53426841  0.32574651  1  3.267459  0  0.476031  0.978677  0  6.376968  0
N  N184  1  0.58422196  0.83679750  0.74259552  1  -1.189341  0  -0.349187  -0.233098  0  3.579758  0
N  N185  1  0.16320258  0.41577608  0.75740414  1  -1.189597  0  -0.349192  -0.233107  0  3.579785  0
N  N186  1  0.41577850  0.16320260  0.25740429  1  -1.189351  0  -0.349184  -0.233092  0  3.579841  0
N  N187  1  0.83679786  0.58422576  0.24259649  1  -1.189583  0  -0.349158  -0.233046  0  3.579658  0
N  N188  1  0.49981402  0.12650124  0.66215943  1  -1.18741  0  -0.350396  -0.23975  0  3.587385  0
N  N189  1  0.87349877  0.50018713  0.83783980  1  -1.187197  0  -0.35035  -0.239659  0  3.587416  0
N  N190  1  0.50018733  0.87349720  0.33784072  1  -1.187396  0  -0.350454  -0.239853  0  3.587467  0
N  N191  1  0.12650167  0.49981384  0.16216042  1  -1.187161  0  -0.350353  -0.239699  0  3.587391  0
O  O192  1  0.44272966  0.05190275  0.79499588  1  -1.32405  0  -0.346893  -0.573524  0  2.324853  0
O  O193  1  0.94810128  0.55726876  0.70500529  1  -1.32413  0  -0.346914  -0.57351  0  2.324959  0
O  O194  1  0.55726553  0.94810212  0.20500242  1  -1.324058  0  -0.346913  -0.573517  0  2.325015  0
O  O195  1  0.05189650  0.44273369  0.29499750  1  -1.324098  0  -0.346959  -0.573538  0  2.324911  0
O  O196  1  0.64011344  0.15110664  0.80117283  1  -1.325973  0  -0.346704  -0.568894  0  2.229779  0
O  O197  1  0.84889208  0.35988732  0.69882786  1  -1.326012  0  -0.346623  -0.568785  0  2.229797  0
O  O198  1  0.35988616  0.84889164  0.19882761  1  -1.326041  0  -0.346642  -0.568784  0  2.229828  0
O  O199  1  0.15110923  0.64011373  0.30117353  1  -1.325962  0  -0.346677  -0.568891  0  2.229773  0
O  O200  1  0.49192626  0.23306316  0.85187090  1  -1.321516  0  -0.331986  -0.539616  0  2.232675  0
O  O201  1  0.76694072  0.50807446  0.64812920  1  -1.321439  0  -0.331998  -0.539642  0  2.232623  0
O  O202  1  0.50807067  0.76694098  0.14812819  1  -1.321324  0  -0.33195  -0.539546  0  2.232618  0
O  O203  1  0.23305887  0.49192470  0.35187053  1  -1.321496  0  -0.331938  -0.539547  0  2.232679  0
F  F204  1  0.06903308  0.90438840  0.49267659  1  -0.609128  0  -0.11177  -0.185078  0  1.339961  0
F  F205  1  0.09561225  0.93096310  0.00732352  1  -0.60938  0  -0.111768  -0.185078  0  1.339919  0
F  F206  1  0.93096129  0.09561028  0.50732251  1  -0.609374  0  -0.111776  -0.185056  0  1.339896  0
F  F207  1  0.90438822  0.06903614  0.99267663  1  -0.609394  0  -0.111779  -0.1851  0  1.339948  0
F  F208  1  0.14484021  0.74920894  0.51970581  1  -0.600476  0  -0.111823  -0.167073  0  1.306208  0
F  F209  1  0.25079193  0.85515824  0.98029307  1  -0.600503  0  -0.111849  -0.167112  0  1.306137  0
F  F210  1  0.85515764  0.25079094  0.48029313  1  -0.600496  0  -0.111856  -0.167108  0  1.306148  0
F  F211  1  0.74921114  0.14484297  0.01970729  1  -0.60052  0  -0.111837  -0.167104  0  1.306171  0
F  F212  1  0.89475835  0.76040290  0.45347897  1  -0.616151  0  -0.098167  -0.154494  0  1.406942  0
F  F213  1  0.23960055  0.10523866  0.04652084  1  -0.6161  0  -0.098146  -0.154457  0  1.406895  0
F  F214  1  0.10524038  0.23959443  0.54652139  1  -0.616166  0  -0.098175  -0.154493  0  1.406936  0
F  F215  1  0.76040077  0.89476327  0.95347872  1  -0.616138  0  -0.098167  -0.154517  0  1.40686  0
F  F216  1  0.94872111  0.62397591  0.50108257  1  -0.599329  0  -0.099219  -0.142088  0  1.392956  0
F  F217  1  0.37602338  0.05127492  0.99891490  1  -0.599315  0  -0.099262  -0.14211  0  1.393018  0
F  F218  1  0.05128110  0.37602348  0.49891766  1  -0.599282  0  -0.099316  -0.142207  0  1.392908  0
F  F219  1  0.62397448  0.94872410  0.00108325  1  -0.599359  0  -0.099232  -0.142094  0  1.392919  0
F  F220  1  0.77217287  0.85325890  0.51995611  1  -0.609091  0  -0.116821  -0.18761  0  1.290536  0
F  F221  1  0.14674028  0.22782850  0.98004372  1  -0.609105  0  -0.116834  -0.187647  0  1.29053  0
F  F222  1  0.22782933  0.14674048  0.48004525  1  -0.609114  0  -0.116851  -0.187639  0  1.290475  0
F  F223  1  0.85325673  0.77217045  0.01995328  1  -0.609089  0  -0.116814  -0.187646  0  1.29042  0
F  F224  1  0.77638397  0.68208894  0.54938857  1  -0.612114  0  -0.103947  -0.15942  0  1.318384  0
F  F225  1  0.31791043  0.22361835  0.95061210  1  -0.612249  0  -0.103955  -0.159456  0  1.318428  0
F  F226  1  0.22361736  0.31791037  0.45061274  1  -0.612228  0  -0.103944  -0.159438  0  1.318436  0
F  F227  1  0.68208914  0.77638253  0.04938920  1  -0.612114  0  -0.103963  -0.159452  0  1.31836  0
F  F228  1  0.63171857  0.94694258  0.86068737  1  -0.620962  0  -0.10073  -0.185064  0  1.368324  0
F  F229  1  0.05306191  0.36828107  0.63931441  1  -0.621091  0  -0.100683  -0.185007  0  1.368459  0
F  F230  1  0.36827483  0.05306297  0.13931386  1  -0.62118  0  -0.10073  -0.185061  0  1.368415  0
F  F231  1  0.94693938  0.63172170  0.36068817  1  -0.621059  0  -0.100667  -0.184966  0  1.36837  0
F  F232  1  0.65926484  0.10883149  0.91271375  1  -0.610347  0  -0.096131  -0.180959  0  1.373645  0
F  F233  1  0.89117297  0.34073375  0.58728749  1  -0.610302  0  -0.096184  -0.181005  0  1.373524  0
F  F234  1  0.34072334  0.89117096  0.08728823  1  -0.610089  0  -0.096193  -0.181  0  1.373637  0
F  F235  1  0.10883093  0.65927189  0.41271272  1  -0.610123  0  -0.096167  -0.180953  0  1.373668  0
F  F236  1  0.48807453  0.00785681  0.90171944  1  -0.613209  0  -0.102621  -0.188298  0  1.363629  0
F  F237  1  0.99215022  0.51192319  0.59828148  1  -0.613162  0  -0.102675  -0.188393  0  1.363495  0
F  F238  1  0.51190937  0.99214095  0.09827692  1  -0.613059  0  -0.102557  -0.188217  0  1.363656  0
F  F239  1  0.00785800  0.48808455  0.40172238  1  -0.613177  0  -0.102649  -0.188311  0  1.363648  0
