# generated using pymatgen
data_BiH10C13S(OF)3
_symmetry_space_group_name_H-M   'P 1'
_cell_length_a   8.43865516
_cell_length_b   8.98683347
_cell_length_c   18.95000000
_cell_angle_alpha   90.00000000
_cell_angle_beta   90.00000000
_cell_angle_gamma   90.00000000
_symmetry_Int_Tables_number   1
_chemical_formula_structural   BiH10C13S(OF)3
_chemical_formula_sum   'Bi4 H40 C52 S4 O12 F12'
_cell_volume   1437.10714545
_cell_formula_units_Z   4
loop_
 _symmetry_equiv_pos_site_id
 _symmetry_equiv_pos_as_xyz
  1  'x, y, z'
loop_
 _atom_site_type_symbol
 _atom_site_label
 _atom_site_symmetry_multiplicity
 _atom_site_fract_x
 _atom_site_fract_y
 _atom_site_fract_z
 _atom_site_occupancy
 _atom_site_hle17_bader_spin_density
 _atom_site_hle17_ddec_charge
 _atom_site_hle17_ddec_spin_density
 _atom_site_hle17_ddec_sum_bond_order
 _atom_site_hle17_magmom
 _atom_site_hse06_10hf_bader_spin_density
 _atom_site_hse06_10hf_ddec_charge
 _atom_site_hse06_10hf_ddec_spin_density
 _atom_site_hse06_10hf_ddec_sum_bond_order
 _atom_site_hse06_10hf_magmom
 _atom_site_hse06_bader_spin_density
 _atom_site_hse06_ddec_charge
 _atom_site_hse06_ddec_spin_density
 _atom_site_hse06_ddec_sum_bond_order
 _atom_site_hse06_magmom
 _atom_site_pbe_bader_charge
 _atom_site_pbe_bader_spin_density
 _atom_site_pbe_cm5_charge
 _atom_site_pbe_ddec_charge
 _atom_site_pbe_ddec_spin_density
 _atom_site_pbe_ddec_sum_bond_order
 _atom_site_pbe_magmom
Bi  Bi0  1  0.41611251  0.44675914  0.53147546  1  0  1.095906  0  2.210203  0  0  0.911209  0  2.641045  0  0  0.943529  0  2.629771  0  1.341438  0  0.601784  0.88808  0  2.647541  0
Bi  Bi1  1  0.58389043  0.94676062  0.46852454  1  0  1.095893  0  2.210154  0  0  0.911186  0  2.641013  0  0  0.943509  0  2.629726  0  1.341487  0  0.601782  0.888054  0  2.647508  0
Bi  Bi2  1  0.08388777  0.94676284  0.03147546  1  0  1.096068  0  2.210178  0  0  0.911225  0  2.641104  0  0  0.943553  0  2.62981  0  1.341395  0  0.601797  0.888094  0  2.647602  0
Bi  Bi3  1  0.91611161  0.44676582  0.96852559  1  0  1.095997  0  2.210136  0  0  0.911208  0  2.641019  0  0  0.943541  0  2.629723  0  1.34137  0  0.60178  0.888077  0  2.647516  0
H  H4  1  0.06681396  0.10028671  0.76394776  1  0  0.091741  0  0.965493  0  0  0.103986  0  1.025743  0  0  0.106323  0  1.025087  0  0.080175  0  0.098335  0.102233  0  1.026369  0
H  H5  1  0.93318779  0.60028263  0.23605066  1  0  0.091788  0  0.965441  0  0  0.103982  0  1.025761  0  0  0.106343  0  1.025073  0  0.080398  0  0.098325  0.102226  0  1.026389  0
H  H6  1  0.43317921  0.60028040  0.26394565  1  0  0.091716  0  0.965347  0  0  0.103928  0  1.025667  0  0  0.106267  0  1.025009  0  0.080401  0  0.098282  0.102173  0  1.026299  0
H  H7  1  0.56681781  0.10027781  0.73605330  1  0  0.091696  0  0.965456  0  0  0.103933  0  1.025718  0  0  0.106269  0  1.025063  0  0.080349  0  0.098281  0.102176  0  1.026349  0
H  H8  1  0.87376482  0.10075406  0.64239842  1  0  0.089485  0  0.967722  0  0  0.098801  0  1.029683  0  0  0.101518  0  1.029125  0  0.094446  0  0.094921  0.096961  0  1.029997  0
H  H9  1  0.12623812  0.60075554  0.35760211  1  0  0.089538  0  0.967674  0  0  0.098864  0  1.029625  0  0  0.101582  0  1.029066  0  0.094466  0  0.094938  0.097023  0  1.02994  0
H  H10  1  0.62623604  0.60075665  0.14239736  1  0  0.08957  0  0.967597  0  0  0.098848  0  1.029628  0  0  0.101565  0  1.029069  0  0.094478  0  0.094936  0.097007  0  1.029943  0
H  H11  1  0.37375624  0.10075518  0.85760053  1  0  0.089519  0  0.967817  0  0  0.098857  0  1.029748  0  0  0.101573  0  1.029189  0  0.094468  0  0.094945  0.097015  0  1.030062  0
H  H12  1  0.26433477  0.96813411  0.68964908  1  0  0.090477  0  0.96039  0  0  0.099911  0  1.023995  0  0  0.103512  0  1.021202  0  0.076107  0  0.093766  0.097683  0  1.025183  0
H  H13  1  0.73566224  0.46813374  0.31035198  1  0  0.090615  0  0.960377  0  0  0.100125  0  1.023824  0  0  0.103632  0  1.021195  0  0.076118  0  0.093836  0.097802  0  1.025178  0
H  H14  1  0.23565959  0.46813374  0.18964433  1  0  0.090597  0  0.960415  0  0  0.100021  0  1.023995  0  0  0.103623  0  1.021202  0  0.076132  0  0.093842  0.097794  0  1.025184  0
H  H15  1  0.76434098  0.96813188  0.81035673  1  0  0.0906  0  0.960392  0  0  0.100108  0  1.023814  0  0  0.103613  0  1.021189  0  0.076108  0  0.09385  0.097787  0  1.025165  0
H  H16  1  0.71262421  0.37944400  0.42753351  1  0  0.082258  0  0.992765  0  0  0.093439  0  1.058247  0  0  0.095644  0  1.057593  0  0.089044  0  0.091937  0.091789  0  1.058993  0
H  H17  1  0.28737873  0.87944213  0.57246807  1  0  0.082284  0  0.992708  0  0  0.093456  0  1.058213  0  0  0.09567  0  1.057535  0  0.088792  0  0.091912  0.091812  0  1.058944  0
H  H18  1  0.78737902  0.87944325  0.92753298  1  0  0.08224  0  0.99278  0  0  0.093443  0  1.058243  0  0  0.095651  0  1.057584  0  0.088799  0  0.091923  0.091794  0  1.05899  0
H  H19  1  0.21262393  0.37944177  0.07246702  1  0  0.082307  0  0.992647  0  0  0.093451  0  1.058199  0  0  0.095664  0  1.057525  0  0.088828  0  0.091926  0.091807  0  1.05893  0
H  H20  1  0.01686406  0.37133324  0.74510660  1  0  0.091321  0  0.950032  0  0  0.10199  0  1.011356  0  0  0.104816  0  1.01052  0  0.090155  0  0.095291  0.099841  0  1.012309  0
H  H21  1  0.98313651  0.87132915  0.25489182  1  0  0.091343  0  0.950003  0  0  0.101998  0  1.011353  0  0  0.104815  0  1.01054  0  0.090152  0  0.095294  0.099838  0  1.01233  0
H  H22  1  0.48313267  0.87132693  0.24510660  1  0  0.091199  0  0.950115  0  0  0.101978  0  1.011295  0  0  0.104817  0  1.010445  0  0.090239  0  0.095298  0.099825  0  1.012251  0
H  H23  1  0.51686672  0.37132434  0.75489393  1  0  0.091307  0  0.949972  0  0  0.101966  0  1.011294  0  0  0.1048  0  1.010463  0  0.090249  0  0.095298  0.099806  0  1.012272  0
H  H24  1  0.04308862  0.09338885  0.53445910  1  0  0.095941  0  0.952054  0  0  0.107563  0  1.009456  0  0  0.109689  0  1.009805  0  0.080635  0  0.098031  0.10597  0  1.009521  0
H  H25  1  0.95691195  0.59339143  0.46554090  1  0  0.095919  0  0.952023  0  0  0.107568  0  1.009406  0  0  0.109696  0  1.009752  0  0.080669  0  0.098037  0.105974  0  1.009468  0
H  H26  1  0.45691522  0.59338921  0.03445752  1  0  0.095911  0  0.952084  0  0  0.107557  0  1.009473  0  0  0.109673  0  1.009834  0  0.080626  0  0.098026  0.105963  0  1.009537  0
H  H27  1  0.54308298  0.09338773  0.96553879  1  0  0.095943  0  0.952004  0  0  0.107576  0  1.009418  0  0  0.109702  0  1.009766  0  0.080655  0  0.098036  0.105982  0  1.009481  0
H  H28  1  0.16056705  0.50676804  0.65102797  1  0  0.077358  0  0.971312  0  0  0.086062  0  1.040762  0  0  0.089035  0  1.038578  0  0.076633  0  0.087155  0.084065  0  1.041951  0
H  H29  1  0.83943707  0.00676657  0.34896887  1  0  0.077388  0  0.971352  0  0  0.086226  0  1.040541  0  0  0.089063  0  1.038615  0  0.076636  0  0.087173  0.084095  0  1.041986  0
H  H30  1  0.33943086  0.00676879  0.15102955  1  0  0.077201  0  0.971607  0  0  0.086097  0  1.040771  0  0  0.089069  0  1.038588  0  0.076636  0  0.087181  0.084101  0  1.04196  0
H  H31  1  0.66056379  0.50676470  0.84896992  1  0  0.077394  0  0.971354  0  0  0.086239  0  1.040528  0  0  0.089076  0  1.038602  0  0.076664  0  0.087194  0.084109  0  1.04197  0
H  H32  1  0.40990181  0.10292057  0.59650132  1  0  0.058472  0  1.01272  0  0  0.069978  0  1.087252  0  0  0.072216  0  1.086198  0  0.054137  0  0.086938  0.06809  0  1.088677  0
H  H33  1  0.59009995  0.60292427  0.40349868  1  0  0.058486  0  1.012739  0  0  0.069985  0  1.087286  0  0  0.072224  0  1.086226  0  0.054182  0  0.086939  0.068098  0  1.088708  0
H  H34  1  0.09009611  0.60292649  0.09649657  1  0  0.05859  0  1.012695  0  0  0.070058  0  1.08727  0  0  0.072294  0  1.086215  0  0.054179  0  0.086984  0.068175  0  1.088694  0
H  H35  1  0.90989972  0.10292724  0.90350396  1  0  0.05862  0  1.01268  0  0  0.070103  0  1.087244  0  0  0.072339  0  1.086186  0  0.054143  0  0.087015  0.068221  0  1.088668  0
H  H36  1  0.96259177  0.23796368  0.42818364  1  0  0.086383  0  0.972765  0  0  0.092984  0  1.039269  0  0  0.096787  0  1.036419  0  0.056729  0  0.08822  0.090449  0  1.041108  0
H  H37  1  0.03740762  0.73796627  0.57181741  1  0  0.086367  0  0.972775  0  0  0.092981  0  1.039277  0  0  0.096787  0  1.036412  0  0.056724  0  0.088222  0.090454  0  1.041095  0
H  H38  1  0.53741146  0.73796293  0.92818206  1  0  0.08635  0  0.972803  0  0  0.092975  0  1.039276  0  0  0.096778  0  1.036426  0  0.056697  0  0.088207  0.090422  0  1.041132  0
H  H39  1  0.46259030  0.23796146  0.07181478  1  0  0.08625  0  0.972966  0  0  0.093009  0  1.039318  0  0  0.096817  0  1.036452  0  0.056804  0  0.088236  0.090483  0  1.041134  0
H  H40  1  0.62726820  0.24719052  0.64347177  1  0  0.081937  0  0.991636  0  0  0.091655  0  1.058864  0  0  0.093499  0  1.058895  0  0.078259  0  0.093925  0.090213  0  1.059229  0
H  H41  1  0.37273356  0.74718977  0.35652876  1  0  0.08196  0  0.991612  0  0  0.09163  0  1.058898  0  0  0.093454  0  1.058951  0  0.078429  0  0.093906  0.090195  0  1.059257  0
H  H42  1  0.87273029  0.74719310  0.14347282  1  0  0.081908  0  0.991648  0  0  0.091622  0  1.058888  0  0  0.093453  0  1.058936  0  0.078254  0  0.09392  0.09018  0  1.059253  0
H  H43  1  0.12726317  0.24719497  0.85652770  1  0  0.081917  0  0.991636  0  0  0.091629  0  1.058862  0  0  0.093475  0  1.058893  0  0.078279  0  0.093908  0.090187  0  1.059227  0
C  C44  1  0.13113464  0.16101333  0.72317942  1  0  -0.063303  0  3.746446  0  0  -0.074627  0  3.987476  0  0  -0.075615  0  4.00852  0  -0.071029  0  -0.088882  -0.073761  0  3.973082  0
C  C45  1  0.86886830  0.66101036  0.27682058  1  0  -0.063325  0  3.746409  0  0  -0.074635  0  3.987508  0  0  -0.075644  0  4.00852  0  -0.071693  0  -0.08889  -0.073772  0  3.973093  0
C  C46  1  0.36886091  0.66101147  0.22317678  1  0  -0.063046  0  3.746149  0  0  -0.074421  0  3.987253  0  0  -0.075411  0  4.008304  0  -0.071114  0  -0.088796  -0.073554  0  3.972858  0
C  C47  1  0.63113730  0.16100777  0.77682269  1  0  -0.063265  0  3.746346  0  0  -0.07456  0  3.987358  0  0  -0.075553  0  4.008389  0  -0.071363  0  -0.088826  -0.073695  0  3.972941  0
C  C48  1  0.83856253  0.16136162  0.59522322  1  0  -0.072475  0  3.768036  0  0  -0.082869  0  4.012234  0  0  -0.086057  0  4.034634  0  -0.061189  0  -0.09381  -0.080553  0  3.996903  0
C  C49  1  0.16144042  0.66136310  0.40477889  1  0  -0.072498  0  3.768027  0  0  -0.082911  0  4.012262  0  0  -0.086101  0  4.034659  0  -0.061289  0  -0.093767  -0.080594  0  3.99693  0
C  C50  1  0.66143715  0.66136310  0.09522216  1  0  -0.072492  0  3.767929  0  0  -0.082905  0  4.012204  0  0  -0.086093  0  4.034597  0  -0.061307  0  -0.093792  -0.080589  0  3.996876  0
C  C51  1  0.33855513  0.16136162  0.90477573  1  0  -0.072593  0  3.768196  0  0  -0.083025  0  4.012435  0  0  -0.086216  0  4.034838  0  -0.061293  0  -0.093869  -0.080708  0  3.9971  0
C  C52  1  0.24081681  0.08605367  0.68102850  1  0  -0.072057  0  3.73755  0  0  -0.080959  0  3.979782  0  0  -0.083844  0  4.000627  0  -0.082074  0  -0.094607  -0.078658  0  3.965086  0
C  C53  1  0.75918377  0.58605181  0.31897203  1  0  -0.072181  0  3.737668  0  0  -0.081073  0  3.979875  0  0  -0.08398  0  4.000789  0  -0.08206  0  -0.094679  -0.078792  0  3.96524  0
C  C54  1  0.25917874  0.58605069  0.18102480  1  0  -0.072147  0  3.737585  0  0  -0.081073  0  3.979888  0  0  -0.083962  0  4.000738  0  -0.082148  0  -0.094657  -0.078772  0  3.965194  0
C  C55  1  0.74082183  0.08604922  0.81897573  1  0  -0.072221  0  3.737606  0  0  -0.081072  0  3.979773  0  0  -0.083978  0  4.000679  0  -0.081851  0  -0.094697  -0.07879  0  3.965139  0
C  C56  1  0.74645662  0.31915691  0.47510923  1  0  -0.093166  0  3.872473  0  0  -0.109747  0  4.106911  0  0  -0.110671  0  4.132415  0  -0.09539  0  -0.111406  -0.109702  0  4.089227  0
C  C57  1  0.25354869  0.81915505  0.52489235  1  0  -0.093101  0  3.872674  0  0  -0.109671  0  4.107091  0  0  -0.110589  0  4.132584  0  -0.095204  0  -0.111339  -0.109623  0  4.089399  0
C  C58  1  0.75354780  0.81915616  0.97510871  1  0  -0.093042  0  3.872548  0  0  -0.109659  0  4.10697  0  0  -0.110582  0  4.132476  0  -0.095183  0  -0.111331  -0.109613  0  4.089278  0
C  C59  1  0.24645159  0.31915357  0.02489077  1  0  -0.092982  0  3.872435  0  0  -0.109593  0  4.106963  0  0  -0.110511  0  4.132457  0  -0.095202  0  -0.111304  -0.109544  0  4.089271  0
C  C60  1  0.10313018  0.31266074  0.71245805  1  0  -0.061927  0  3.738797  0  0  -0.075506  0  3.989095  0  0  -0.077776  0  4.00969  0  -0.055105  0  -0.092999  -0.074041  0  3.975337  0
C  C61  1  0.89687395  0.81265776  0.28754195  1  0  -0.061869  0  3.738719  0  0  -0.075382  0  3.988883  0  0  -0.077684  0  4.009567  0  -0.05481  0  -0.092926  -0.073947  0  3.97521  0
C  C62  1  0.39686774  0.81265776  0.21245699  1  0  -0.062054  0  3.739014  0  0  -0.075489  0  3.98895  0  0  -0.077771  0  4.009542  0  -0.055138  0  -0.092963  -0.07402  0  3.975193  0
C  C63  1  0.60313046  0.31265629  0.78754354  1  0  -0.06182  0  3.738571  0  0  -0.075353  0  3.98878  0  0  -0.077669  0  4.009458  0  -0.05515  0  -0.092949  -0.073916  0  3.975105  0
C  C64  1  0.93345798  0.15749040  0.53483061  1  0  -0.068652  0  3.764676  0  0  -0.078882  0  4.002941  0  0  -0.080097  0  4.025495  0  -0.062213  0  -0.090886  -0.078547  0  3.988519  0
C  C65  1  0.06654496  0.65749076  0.46517045  1  0  -0.068548  0  3.764629  0  0  -0.078817  0  4.002946  0  0  -0.08003  0  4.025493  0  -0.062278  0  -0.090866  -0.078477  0  3.988515  0
C  C66  1  0.56654407  0.65748965  0.03483008  1  0  -0.068527  0  3.764598  0  0  -0.078843  0  4.002981  0  0  -0.080049  0  4.025536  0  -0.062135  0  -0.090867  -0.078502  0  3.988546  0
C  C67  1  0.43345177  0.15748817  0.96516781  1  0  -0.068498  0  3.764523  0  0  -0.078766  0  4.002863  0  0  -0.079975  0  4.025402  0  -0.062162  0  -0.090823  -0.078427  0  3.988434  0
C  C68  1  0.64934399  0.32140242  0.53531082  1  0  -0.317993  0  3.727793  0  0  -0.251918  0  3.968125  0  0  -0.263847  0  4.001944  0  -0.359774  0  -0.123495  -0.242596  0  3.943187  0
C  C69  1  0.35065658  0.82139944  0.46469129  1  0  -0.318029  0  3.727973  0  0  -0.251956  0  3.968289  0  0  -0.263885  0  4.002106  0  -0.359854  0  -0.123481  -0.242635  0  3.943352  0
C  C70  1  0.85065687  0.82140278  0.03531082  1  0  -0.318041  0  3.727972  0  0  -0.251913  0  3.968229  0  0  -0.263841  0  4.002048  0  -0.359813  0  -0.12348  -0.242592  0  3.943291  0
C  C71  1  0.14934252  0.32140242  0.96468971  1  0  -0.318068  0  3.727948  0  0  -0.252016  0  3.968307  0  0  -0.263947  0  4.002133  0  -0.359884  0  -0.123513  -0.242694  0  3.943367  0
C  C72  1  0.18420352  0.38874316  0.65923799  1  0  -0.057563  0  3.816576  0  0  -0.081069  0  4.063159  0  0  -0.080783  0  4.086136  0  -0.026739  0  -0.101379  -0.080833  0  4.047396  0
C  C73  1  0.81580061  0.88874241  0.34076095  1  0  -0.057703  0  3.816733  0  0  -0.081086  0  4.062978  0  0  -0.080903  0  4.086259  0  -0.026752  0  -0.101443  -0.080955  0  4.04752  0
C  C74  1  0.31579439  0.88874352  0.15923852  1  0  -0.057816  0  3.817059  0  0  -0.081153  0  4.063231  0  0  -0.080865  0  4.086208  0  -0.026753  0  -0.101426  -0.080917  0  4.047463  0
C  C75  1  0.68420144  0.38874093  0.84076253  1  0  -0.057622  0  3.816668  0  0  -0.081028  0  4.062948  0  0  -0.080848  0  4.086235  0  -0.026772  0  -0.101441  -0.080903  0  4.047502  0
C  C76  1  0.32275166  0.16254891  0.62813931  1  0  -0.055292  0  3.826781  0  0  -0.075868  0  4.064966  0  0  -0.076342  0  4.089883  0  -0.046334  0  -0.099107  -0.075625  0  4.04872  0
C  C77  1  0.67725128  0.66255039  0.37186069  1  0  -0.055304  0  3.826862  0  0  -0.075897  0  4.065099  0  0  -0.07637  0  4.089983  0  -0.04632  0  -0.099119  -0.075655  0  4.048825  0
C  C78  1  0.17724507  0.66255039  0.12813668  1  0  -0.055442  0  3.826737  0  0  -0.076076  0  4.065075  0  0  -0.076547  0  4.089986  0  -0.04644  0  -0.099252  -0.075839  0  4.048835  0
C  C79  1  0.82275195  0.16255002  0.87186491  1  0  -0.055458  0  3.826902  0  0  -0.076053  0  4.065169  0  0  -0.076524  0  4.090054  0  -0.046421  0  -0.099249  -0.075819  0  4.048904  0
C  C80  1  0.29513944  0.31424973  0.61699050  1  0  -0.270702  0  3.652476  0  0  -0.204167  0  3.88942  0  0  -0.214743  0  3.921266  0  -0.334554  0  -0.110525  -0.197391  0  3.868533  0
C  C81  1  0.70486587  0.81425121  0.38300897  1  0  -0.270644  0  3.652526  0  0  -0.204117  0  3.889512  0  0  -0.214699  0  3.921353  0  -0.334487  0  -0.110535  -0.197347  0  3.868619  0
C  C82  1  0.20485966  0.81425455  0.11698945  1  0  -0.270552  0  3.652277  0  0  -0.204142  0  3.889429  0  0  -0.214718  0  3.921275  0  -0.334576  0  -0.1105  -0.197366  0  3.868545  0
C  C83  1  0.79513381  0.31425196  0.88301108  1  0  -0.270685  0  3.652567  0  0  -0.204149  0  3.889549  0  0  -0.214729  0  3.92139  0  -0.334533  0  -0.11048  -0.19738  0  3.868659  0
C  C84  1  0.88793058  0.23795589  0.47503430  1  0  -0.084822  0  3.784849  0  0  -0.090753  0  4.025157  0  0  -0.093912  0  4.046493  0  -0.062731  0  -0.100203  -0.088252  0  4.011041  0
C  C85  1  0.11207473  0.73795626  0.52496675  1  0  -0.08497  0  3.785029  0  0  -0.090922  0  4.025377  0  0  -0.094077  0  4.04671  0  -0.062624  0  -0.10031  -0.088418  0  4.011253  0
C  C86  1  0.61207265  0.73795515  0.97503325  1  0  -0.08489  0  3.784898  0  0  -0.09087  0  4.025286  0  0  -0.09403  0  4.046622  0  -0.062667  0  -0.100276  -0.088352  0  4.011174  0
C  C87  1  0.38792556  0.23795367  0.02496517  1  0  -0.084982  0  3.785117  0  0  -0.090964  0  4.025375  0  0  -0.094119  0  4.046706  0  -0.062694  0  -0.100303  -0.088461  0  4.011249  0
C  C88  1  0.21904557  0.19823334  0.31898997  1  0  0.618616  0  3.685601  0  0  0.538581  0  4.068796  0  0  0.569093  0  4.037773  0  1.706747  0  0.300905  0.5178  0  4.089402  0
C  C89  1  0.78095501  0.69823036  0.68100950  1  0  0.618559  0  3.685937  0  0  0.538979  0  4.068203  0  0  0.569136  0  4.037913  0  1.707092  0  0.300921  0.517824  0  4.089574  0
C  C90  1  0.28095472  0.69823259  0.81898997  1  0  0.61839  0  3.685906  0  0  0.538468  0  4.06891  0  0  0.568987  0  4.037877  0  1.70677  0  0.300872  0.51768  0  4.089528  0
C  C91  1  0.71904348  0.19823223  0.18101108  1  0  0.617592  0  3.687566  0  0  0.538838  0  4.068323  0  0  0.568964  0  4.038098  0  1.706742  0  0.300847  0.517719  0  4.089636  0
C  C92  1  0.69836365  0.24407151  0.59561266  1  0  -0.065245  0  3.849987  0  0  -0.087043  0  4.092277  0  0  -0.087192  0  4.117309  0  -0.036184  0  -0.101342  -0.086639  0  4.075285  0
C  C93  1  0.30164048  0.74407187  0.40438945  1  0  -0.065221  0  3.849999  0  0  -0.086989  0  4.092319  0  0  -0.087123  0  4.117361  0  -0.036207  0  -0.101356  -0.086592  0  4.075327  0
C  C94  1  0.80163721  0.74407410  0.09561214  1  0  -0.065472  0  3.850542  0  0  -0.087029  0  4.092344  0  0  -0.087172  0  4.117384  0  -0.036098  0  -0.101386  -0.086627  0  4.075354  0
C  C95  1  0.19835744  0.24407485  0.90438734  1  0  -0.065144  0  3.850081  0  0  -0.086929  0  4.092377  0  0  -0.08708  0  4.117411  0  -0.036112  0  -0.101342  -0.086526  0  4.075388  0
S  S96  1  0.39386608  0.23424268  0.37699156  1  0  1.11204  0  5.713398  0  0  0.998271  0  6.251296  0  0  1.043173  0  6.2299  0  3.215049  0  0.511215  0.967545  0  6.263985  0
S  S97  1  0.60613805  0.73424194  0.62300792  1  0  1.112078  0  5.713562  0  0  0.998456  0  6.251025  0  0  1.04319  0  6.230025  0  3.214994  0  0.511182  0.967562  0  6.264113  0
S  S98  1  0.10613421  0.73424527  0.87699156  1  0  1.112118  0  5.713499  0  0  0.998327  0  6.251375  0  0  1.043244  0  6.229973  0  3.215033  0  0.511272  0.9676  0  6.264066  0
S  S99  1  0.89386399  0.23424491  0.12300950  1  0  1.111739  0  5.714021  0  0  0.998418  0  6.251001  0  0  1.04316  0  6.23001  0  3.214819  0  0.511214  0.96751  0  6.264089  0
O  O100  1  0.32491433  0.24471578  0.44872454  1  0  -0.608333  0  2.055118  0  0  -0.54599  0  2.313748  0  0  -0.567288  0  2.303699  0  -1.311625  0  -0.303649  -0.53059  0  2.318234  0
O  O101  1  0.67508980  0.74471726  0.55127546  1  0  -0.608353  0  2.05515  0  0  -0.546027  0  2.313781  0  0  -0.567331  0  2.303765  0  -1.311683  0  -0.303657  -0.530625  0  2.318298  0
O  O102  1  0.17508833  0.74472282  0.94872348  1  0  -0.608318  0  2.055135  0  0  -0.545987  0  2.313795  0  0  -0.567287  0  2.30374  0  -1.311613  0  -0.303699  -0.530582  0  2.318277  0
O  O103  1  0.82491225  0.24472246  0.05127652  1  0  -0.6083  0  2.055448  0  0  -0.545979  0  2.313794  0  0  -0.56728  0  2.303774  0  -1.311594  0  -0.303669  -0.530575  0  2.31831  0
O  O104  1  0.49023688  0.09819810  0.36783219  1  0  -0.584392  0  2.063691  0  0  -0.527459  0  2.328996  0  0  -0.548611  0  2.317897  0  -1.297837  0  -0.301243  -0.512087  0  2.335828  0
O  O105  1  0.50976606  0.59819958  0.63216623  1  0  -0.584433  0  2.063717  0  0  -0.52748  0  2.328945  0  0  -0.54862  0  2.317885  0  -1.297783  0  -0.301244  -0.512092  0  2.335811  0
O  O106  1  0.00976103  0.59820180  0.86783377  1  0  -0.584454  0  2.063743  0  0  -0.527487  0  2.329015  0  0  -0.548669  0  2.317932  0  -1.297789  0  -0.301251  -0.512114  0  2.335845  0
O  O107  1  0.99023598  0.09820033  0.13216781  1  0  -0.584398  0  2.064004  0  0  -0.527482  0  2.328971  0  0  -0.54863  0  2.317913  0  -1.29778  0  -0.301224  -0.512095  0  2.335842  0
O  O108  1  0.46295528  0.36956510  0.34983219  1  0  -0.556424  0  2.016306  0  0  -0.5241  0  2.27411  0  0  -0.54316  0  2.262745  0  -1.299442  0  -0.301283  -0.5107  0  2.281331  0
O  O109  1  0.53705003  0.86956324  0.65016781  1  0  -0.556451  0  2.0164  0  0  -0.524046  0  2.274023  0  0  -0.543149  0  2.262776  0  -1.299378  0  -0.301269  -0.510688  0  2.281365  0
O  O110  1  0.03704500  0.86956435  0.84983008  1  0  -0.556459  0  2.016375  0  0  -0.524121  0  2.274164  0  0  -0.543182  0  2.262791  0  -1.299492  0  -0.301301  -0.510723  0  2.281388  0
O  O111  1  0.96295320  0.36956510  0.15017045  1  0  -0.556197  0  2.016338  0  0  -0.524025  0  2.273986  0  0  -0.543127  0  2.262739  0  -1.299494  0  -0.301288  -0.510668  0  2.281335  0
F  F112  1  0.14503970  0.07119082  0.33784011  1  0  -0.20808  0  1.216651  0  0  -0.160616  0  1.379633  0  0  -0.170658  0  1.36533  0  -0.608198  0  -0.071178  -0.152895  0  1.389196  0
F  F113  1  0.85496206  0.57118673  0.66215884  1  0  -0.208175  0  1.216701  0  0  -0.16049  0  1.379465  0  0  -0.170733  0  1.365303  0  -0.608128  0  -0.071218  -0.152965  0  1.389178  0
F  F114  1  0.35496177  0.57118895  0.83783958  1  0  -0.20807  0  1.216749  0  0  -0.160622  0  1.379677  0  0  -0.170662  0  1.365372  0  -0.608224  0  -0.071189  -0.152897  0  1.389242  0
F  F115  1  0.64503880  0.07118748  0.16216253  1  0  -0.207381  0  1.216861  0  0  -0.160427  0  1.379524  0  0  -0.170661  0  1.365376  0  -0.608075  0  -0.0712  -0.152912  0  1.389223  0
F  F116  1  0.26773816  0.18709260  0.25131557  1  0  -0.211695  0  1.210842  0  0  -0.168221  0  1.376277  0  0  -0.180196  0  1.362744  0  -0.61052  0  -0.078075  -0.160686  0  1.386644  0
F  F117  1  0.73226597  0.68708740  0.74868338  1  0  -0.211707  0  1.210923  0  0  -0.169986  0  1.378272  0  0  -0.180194  0  1.362793  0  -0.610983  0  -0.07808  -0.160682  0  1.386704  0
F  F118  1  0.23226094  0.68709073  0.75131504  1  0  -0.211651  0  1.210893  0  0  -0.168156  0  1.376298  0  0  -0.180132  0  1.362765  0  -0.610528  0  -0.078036  -0.160618  0  1.386667  0
F  F119  1  0.76773726  0.18709593  0.24868496  1  0  -0.211704  0  1.211378  0  0  -0.169934  0  1.378375  0  0  -0.180143  0  1.362912  0  -0.610535  0  -0.07801  -0.160624  0  1.386776  0
F  F120  1  0.11486190  0.31259064  0.32389974  1  0  -0.219642  0  1.199036  0  0  -0.174407  0  1.361295  0  0  -0.18804  0  1.350009  0  -0.618626  0  -0.07834  -0.167161  0  1.371979  0
F  F121  1  0.88514104  0.81258432  0.67609974  1  0  -0.219601  0  1.199141  0  0  -0.174195  0  1.361259  0  0  -0.187996  0  1.350045  0  -0.618597  0  -0.078308  -0.167115  0  1.372025  0
F  F122  1  0.38513957  0.81258877  0.82389921  1  0  -0.219587  0  1.199088  0  0  -0.174367  0  1.361299  0  0  -0.188006  0  1.350019  0  -0.618617  0  -0.078339  -0.167117  0  1.371983  0
F  F123  1  0.61485390  0.31258730  0.17609974  1  0  -0.219635  0  1.199479  0  0  -0.174204  0  1.361255  0  0  -0.187994  0  1.350051  0  -0.618572  0  -0.078337  -0.167138  0  1.372009  0
