# generated using pymatgen
data_BaH24(C17O6)2
_symmetry_space_group_name_H-M   'P 1'
_cell_length_a   8.95623172
_cell_length_b   12.53296471
_cell_length_c   17.39290048
_cell_angle_alpha   111.11490004
_cell_angle_beta   97.69347749
_cell_angle_gamma   89.99804799
_symmetry_Int_Tables_number   1
_chemical_formula_structural   BaH24(C17O6)2
_chemical_formula_sum   'Ba2 H48 C68 O24'
_cell_volume   1802.39356599
_cell_formula_units_Z   2
loop_
 _symmetry_equiv_pos_site_id
 _symmetry_equiv_pos_as_xyz
  1  'x, y, z'
loop_
 _atom_site_type_symbol
 _atom_site_label
 _atom_site_symmetry_multiplicity
 _atom_site_fract_x
 _atom_site_fract_y
 _atom_site_fract_z
 _atom_site_occupancy
 _atom_site_hle17_bader_spin_density
 _atom_site_hle17_ddec_charge
 _atom_site_hle17_ddec_spin_density
 _atom_site_hle17_ddec_sum_bond_order
 _atom_site_hle17_magmom
 _atom_site_hse06_10hf_bader_spin_density
 _atom_site_hse06_10hf_ddec_charge
 _atom_site_hse06_10hf_ddec_spin_density
 _atom_site_hse06_10hf_ddec_sum_bond_order
 _atom_site_hse06_10hf_magmom
 _atom_site_hse06_bader_spin_density
 _atom_site_hse06_ddec_charge
 _atom_site_hse06_ddec_spin_density
 _atom_site_hse06_ddec_sum_bond_order
 _atom_site_hse06_magmom
 _atom_site_pbe_bader_spin_density
 _atom_site_pbe_cm5_charge
 _atom_site_pbe_ddec_charge
 _atom_site_pbe_ddec_spin_density
 _atom_site_pbe_ddec_sum_bond_order
 _atom_site_pbe_magmom
Ba  Ba0  1  0.25001409  0.57610654  0.99997654  1  0  1.662817  0  1.103237  0  0  1.521246  0  1.48143  0  0  1.562906  0  1.437336  0  0  1.009019  1.490474  0  1.51285  0
Ba  Ba1  1  0.74998672  0.42389408  0.00002396  1  0  1.662827  0  1.1032  0  0  1.521235  0  1.481428  0  0  1.562896  0  1.437335  0  0  1.009017  1.490474  0  1.512851  0
H  H2  1  0.21833685  0.54583449  0.78536671  1  0  0.417763  0  0.87499  0  0  0.385567  0  0.952948  0  0  0.398813  0  0.933985  0  0  0.311605  0.376228  0  0.966291  0
H  H3  1  0.28167511  0.76065424  0.21461894  1  0  0.41835  0  0.874786  0  0  0.385764  0  0.952888  0  0  0.399078  0  0.933852  0  0  0.311782  0.376377  0  0.966293  0
H  H4  1  0.78165945  0.45416612  0.21463577  1  0  0.417739  0  0.875127  0  0  0.385541  0  0.953011  0  0  0.398789  0  0.934044  0  0  0.311594  0.376201  0  0.966358  0
H  H5  1  0.71832566  0.23934554  0.78537904  1  0  0.418364  0  0.874775  0  0  0.385774  0  0.952874  0  0  0.399087  0  0.933839  0  0  0.311782  0.376384  0  0.966286  0
H  H6  1  0.80214587  0.59228166  0.89893978  1  0  0.107501  0  0.958732  0  0  0.114442  0  1.027414  0  0  0.119062  0  1.022906  0  0  0.122093  0.111097  0  1.030685  0
H  H7  1  0.69790330  0.69326724  0.10107983  1  0  0.10741  0  0.958142  0  0  0.114379  0  1.026867  0  0  0.118906  0  1.022462  0  0  0.122216  0.111094  0  1.030076  0
H  H8  1  0.19785150  0.40771810  0.10106083  1  0  0.107495  0  0.958741  0  0  0.114416  0  1.027441  0  0  0.119036  0  1.022932  0  0  0.122088  0.111075  0  1.030703  0
H  H9  1  0.30209740  0.30673168  0.89891907  1  0  0.10744  0  0.958136  0  0  0.114411  0  1.02685  0  0  0.118939  0  1.022446  0  0  0.12223  0.111122  0  1.030058  0
H  H10  1  0.87342956  0.53823348  0.64782674  1  0  0.123557  0  0.942673  0  0  0.126904  0  1.015084  0  0  0.131489  0  1.010825  0  0  0.113075  0.12354  0  1.018258  0
H  H11  1  0.62662142  0.89027350  0.35219607  1  0  0.123825  0  0.942135  0  0  0.126773  0  1.014947  0  0  0.131346  0  1.010715  0  0  0.113026  0.123439  0  1.018065  0
H  H12  1  0.12656686  0.46176884  0.35217562  1  0  0.123548  0  0.942743  0  0  0.12692  0  1.015124  0  0  0.131503  0  1.010868  0  0  0.113081  0.123557  0  1.018302  0
H  H13  1  0.37338046  0.10972626  0.64780371  1  0  0.123786  0  0.942163  0  0  0.126748  0  1.014956  0  0  0.13132  0  1.010724  0  0  0.113011  0.123415  0  1.018073  0
H  H14  1  0.42400311  0.50881934  0.70293676  1  0  0.10451  0  0.943014  0  0  0.117208  0  1.002004  0  0  0.120885  0  0.999177  0  0  0.108509  0.114534  0  1.004087  0
H  H15  1  0.07608043  0.80593319  0.29705135  1  0  0.105127  0  0.942806  0  0  0.117608  0  1.001914  0  0  0.121221  0  0.999154  0  0  0.108344  0.114918  0  1.004029  0
H  H16  1  0.57599212  0.49118213  0.29706530  1  0  0.104486  0  0.943098  0  0  0.117172  0  1.002096  0  0  0.120846  0  0.999275  0  0  0.108506  0.114497  0  1.004177  0
H  H17  1  0.92392145  0.19406658  0.70294785  1  0  0.105127  0  0.942825  0  0  0.117609  0  1.001928  0  0  0.121221  0  0.999169  0  0  0.108349  0.114921  0  1.004043  0
H  H18  1  0.61875520  0.72533905  0.68867626  1  0  0.099882  0  0.997063  0  0  0.109635  0  1.062804  0  0  0.112265  0  1.062387  0  0  0.097686  0.107741  0  1.063222  0
H  H19  1  0.88128838  0.03664457  0.31129740  1  0  0.100274  0  0.996957  0  0  0.109727  0  1.063  0  0  0.11239  0  1.062535  0  0  0.09777  0.107827  0  1.063413  0
H  H20  1  0.38124562  0.27466157  0.31132309  1  0  0.09988  0  0.99706  0  0  0.109628  0  1.062813  0  0  0.112257  0  1.062396  0  0  0.097688  0.107731  0  1.063237  0
H  H21  1  0.11871237  0.96335519  0.68870230  1  0  0.100262  0  0.996984  0  0  0.109715  0  1.06303  0  0  0.112378  0  1.062564  0  0  0.097759  0.107816  0  1.063441  0
H  H22  1  0.64470136  0.30380952  0.58961217  1  0  0.108334  0  0.983441  0  0  0.118442  0  1.047247  0  0  0.121402  0  1.046463  0  0  0.099243  0.116386  0  1.047814  0
H  H23  1  0.85542196  0.71421662  0.41038323  1  0  0.108173  0  0.982728  0  0  0.118332  0  1.046577  0  0  0.121241  0  1.045848  0  0  0.099411  0.116272  0  1.047146  0
H  H24  1  0.35529714  0.69619025  0.41038737  1  0  0.108383  0  0.98344  0  0  0.118504  0  1.047218  0  0  0.121467  0  1.046433  0  0  0.099284  0.116451  0  1.047783  0
H  H25  1  0.14457992  0.28578315  0.58961654  1  0  0.108195  0  0.982713  0  0  0.118354  0  1.046561  0  0  0.121264  0  1.045831  0  0  0.099416  0.116292  0  1.047131  0
H  H26  1  0.69227001  0.00768349  0.54710307  1  0  0.103784  0  0.934042  0  0  0.118727  0  0.998263  0  0  0.119524  0  0.998059  0  0  0.105133  0.118075  0  0.998468  0
H  H27  1  0.80803742  0.46055525  0.45283077  1  0  0.10346  0  0.933746  0  0  0.118571  0  0.997798  0  0  0.119375  0  0.997595  0  0  0.105043  0.117917  0  0.997998  0
H  H28  1  0.30773081  0.99231714  0.45289628  1  0  0.103782  0  0.934054  0  0  0.118726  0  0.998279  0  0  0.119523  0  0.998074  0  0  0.105133  0.118075  0  0.998489  0
H  H29  1  0.19196333  0.53944452  0.54716835  1  0  0.10352  0  0.933796  0  0  0.118627  0  0.997826  0  0  0.119431  0  0.997625  0  0  0.105071  0.117971  0  0.998026  0
H  H30  1  0.60086840  0.13371341  0.60225426  1  0  0.085414  0  0.962445  0  0  0.099902  0  1.03366  0  0  0.10115  0  1.031431  0  0  0.094401  0.098892  0  1.035382  0
H  H31  1  0.89950011  0.53155143  0.39777575  1  0  0.086499  0  0.963154  0  0  0.10132  0  1.033705  0  0  0.1026  0  1.03146  0  0  0.095292  0.100301  0  1.035417  0
H  H32  1  0.39913361  0.86628808  0.39774483  1  0  0.085395  0  0.962461  0  0  0.099897  0  1.033668  0  0  0.101136  0  1.031447  0  0  0.094385  0.098889  0  1.03539  0
H  H33  1  0.10049953  0.46844834  0.60222330  1  0  0.086533  0  0.963118  0  0  0.101353  0  1.033656  0  0  0.102632  0  1.031412  0  0  0.095297  0.10033  0  1.035366  0
H  H34  1  0.77846470  0.14630168  0.56768701  1  0  0.069918  0  0.971864  0  0  0.086556  0  1.041733  0  0  0.085825  0  1.04327  0  0  0.091108  0.086994  0  1.040735  0
H  H35  1  0.72176304  0.57854905  0.43220574  1  0  0.070984  0  0.971815  0  0  0.087234  0  1.041886  0  0  0.086594  0  1.043352  0  0  0.091358  0.087614  0  1.040932  0
H  H36  1  0.22153724  0.85369894  0.43231242  1  0  0.069882  0  0.971927  0  0  0.086527  0  1.041782  0  0  0.085795  0  1.04332  0  0  0.091116  0.086967  0  1.040785  0
H  H37  1  0.27823771  0.42145072  0.56779453  1  0  0.07099  0  0.97184  0  0  0.08723  0  1.041912  0  0  0.086591  0  1.043378  0  0  0.091342  0.087608  0  1.040956  0
H  H38  1  0.74744986  0.89577903  0.73775670  1  0  0.083887  0  0.932317  0  0  0.101868  0  0.994218  0  0  0.102408  0  0.994002  0  0  0.099572  0.101404  0  0.994415  0
H  H39  1  0.75259116  0.15806163  0.26222824  1  0  0.083709  0  0.932438  0  0  0.101526  0  0.99466  0  0  0.102068  0  0.994441  0  0  0.099169  0.101068  0  0.994851  0
H  H40  1  0.25255203  0.10422074  0.26224193  1  0  0.083873  0  0.93232  0  0  0.101877  0  0.994202  0  0  0.102418  0  0.993984  0  0  0.099571  0.101412  0  0.994407  0
H  H41  1  0.24740847  0.84193814  0.73777080  1  0  0.08371  0  0.932409  0  0  0.101524  0  0.994649  0  0  0.102067  0  0.99443  0  0  0.099154  0.101062  0  0.994843  0
H  H42  1  0.57870889  0.89498868  0.78314784  1  0  0.075426  0  0.927823  0  0  0.09379  0  0.988676  0  0  0.094376  0  0.988102  0  0  0.097065  0.093324  0  0.989101  0
H  H43  1  0.92130652  0.11188026  0.21681212  1  0  0.075709  0  0.927864  0  0  0.094496  0  0.988031  0  0  0.095087  0  0.987454  0  0  0.097265  0.094024  0  0.988453  0
H  H44  1  0.42129293  0.10501024  0.21685056  1  0  0.075366  0  0.927861  0  0  0.093769  0  0.98868  0  0  0.094356  0  0.988105  0  0  0.097071  0.093307  0  0.9891  0
H  H45  1  0.07869536  0.88811950  0.78318766  1  0  0.075671  0  0.927873  0  0  0.094478  0  0.988032  0  0  0.095069  0  0.987455  0  0  0.097251  0.094  0  0.988457  0
H  H46  1  0.65776299  0.02717344  0.78417579  1  0  0.096801  0  0.947147  0  0  0.113986  0  1.00852  0  0  0.114686  0  1.008169  0  0  0.105815  0.113389  0  1.008821  0
H  H47  1  0.84227440  0.24305393  0.21581676  1  0  0.096785  0  0.946974  0  0  0.113879  0  1.008543  0  0  0.114555  0  1.008221  0  0  0.105817  0.113312  0  1.00882  0
H  H48  1  0.34223890  0.97282633  0.21582342  1  0  0.096865  0  0.947116  0  0  0.114036  0  1.00851  0  0  0.11473  0  1.008165  0  0  0.10583  0.113443  0  1.008806  0
H  H49  1  0.15772749  0.75694584  0.78418245  1  0  0.096738  0  0.947029  0  0  0.113881  0  1.008561  0  0  0.114557  0  1.008239  0  0  0.105815  0.113313  0  1.008832  0
C  C50  1  0.01740605  0.58186112  0.80940312  1  0  0.673929  0  3.804759  0  0  0.624753  0  4.100209  0  0  0.65882  0  4.091153  0  0  0.245385  0.601553  0  4.105926  0
C  C51  1  0.48266114  0.77240348  0.19059487  1  0  0.672651  0  3.805701  0  0  0.623973  0  4.100715  0  0  0.658046  0  4.091691  0  0  0.245436  0.600772  0  4.106408  0
C  C52  1  0.98259037  0.41814121  0.19059924  1  0  0.673843  0  3.804836  0  0  0.624642  0  4.100358  0  0  0.65871  0  4.091304  0  0  0.245285  0.601448  0  4.106073  0
C  C53  1  0.51733962  0.22759629  0.80940426  1  0  0.672549  0  3.805915  0  0  0.623929  0  4.100827  0  0  0.658002  0  4.091803  0  0  0.245373  0.600732  0  4.106514  0
C  C54  1  0.60149480  0.54689890  0.80717157  1  0  -0.074558  0  3.785299  0  0  -0.049443  0  4.024369  0  0  -0.058814  0  4.047154  0  0  -0.016574  -0.043607  0  4.009106  0
C  C55  1  0.89857943  0.73965829  0.19284903  1  0  -0.075336  0  3.787405  0  0  -0.050095  0  4.02645  0  0  -0.059453  0  4.049178  0  0  -0.016647  -0.044276  0  4.011206  0
C  C56  1  0.39850138  0.45310001  0.19282873  1  0  -0.074339  0  3.785208  0  0  -0.049241  0  4.024278  0  0  -0.05861  0  4.047063  0  0  -0.016458  -0.04346  0  4.00908  0
C  C57  1  0.10142127  0.26034062  0.80715101  1  0  -0.075273  0  3.787327  0  0  -0.050054  0  4.026361  0  0  -0.059412  0  4.049088  0  0  -0.016642  -0.044243  0  4.011119  0
C  C58  1  0.85429769  0.56259150  0.77599429  1  0  -0.07712  0  3.782065  0  0  -0.052193  0  4.020292  0  0  -0.062528  0  4.04394  0  0  -0.015007  -0.045637  0  4.004405  0
C  C59  1  0.64576574  0.78651546  0.22401727  1  0  -0.076932  0  3.780405  0  0  -0.052661  0  4.019512  0  0  -0.063017  0  4.04316  0  0  -0.015401  -0.046096  0  4.003646  0
C  C60  1  0.14569861  0.43740911  0.22400762  1  0  -0.077236  0  3.782086  0  0  -0.05235  0  4.020396  0  0  -0.062686  0  4.044045  0  0  -0.015085  -0.045804  0  4.00452  0
C  C61  1  0.35423502  0.21348432  0.77598129  1  0  -0.07692  0  3.780424  0  0  -0.052647  0  4.019487  0  0  -0.063003  0  4.043134  0  0  -0.015423  -0.046082  0  4.003616  0
C  C62  1  0.75623167  0.56900020  0.83343934  1  0  -0.065662  0  3.710895  0  0  -0.106041  0  3.959836  0  0  -0.102547  0  3.977932  0  0  -0.063579  -0.107927  0  3.947522  0
C  C63  1  0.74384203  0.73547318  0.16658381  1  0  -0.064898  0  3.709088  0  0  -0.105102  0  3.95829  0  0  -0.101528  0  3.976441  0  0  -0.063505  -0.107032  0  3.945926  0
C  C64  1  0.24376463  0.43100041  0.16656314  1  0  -0.065688  0  3.71087  0  0  -0.106022  0  3.959826  0  0  -0.102526  0  3.977921  0  0  -0.063579  -0.107884  0  3.947519  0
C  C65  1  0.25615867  0.26452573  0.83341566  1  0  -0.064976  0  3.709075  0  0  -0.105189  0  3.958281  0  0  -0.101619  0  3.976434  0  0  -0.063535  -0.107117  0  3.945913  0
C  C66  1  0.79755988  0.53835087  0.69190452  1  0  -0.076361  0  3.6185  0  0  -0.115394  0  3.868392  0  0  -0.111818  0  3.883524  0  0  -0.065301  -0.117405  0  3.858119  0
C  C67  1  0.70249737  0.84636022  0.30810990  1  0  -0.076464  0  3.617379  0  0  -0.115059  0  3.868054  0  0  -0.111408  0  3.883063  0  0  -0.064997  -0.117115  0  3.857844  0
C  C68  1  0.20243529  0.46164974  0.30809673  1  0  -0.076361  0  3.618551  0  0  -0.11539  0  3.868464  0  0  -0.111816  0  3.883605  0  0  -0.065287  -0.1174  0  3.858194  0
C  C69  1  0.29750339  0.15363955  0.69188923  1  0  -0.076409  0  3.617379  0  0  -0.115022  0  3.868045  0  0  -0.111376  0  3.883063  0  0  -0.064981  -0.11708  0  3.857837  0
C  C70  1  0.54521653  0.52363228  0.72340267  1  0  -0.081859  0  3.65388  0  0  -0.119314  0  3.899288  0  0  -0.116772  0  3.915988  0  0  -0.069466  -0.120608  0  3.887935  0
C  C71  1  0.95485430  0.80021456  0.27660264  1  0  -0.08319  0  3.656418  0  0  -0.120458  0  3.901945  0  0  -0.117855  0  3.91865  0  0  -0.069289  -0.121743  0  3.890586  0
C  C72  1  0.45477971  0.47636748  0.27659844  1  0  -0.081881  0  3.653947  0  0  -0.11931  0  3.899357  0  0  -0.116765  0  3.916057  0  0  -0.0695  -0.120586  0  3.888014  0
C  C73  1  0.04514645  0.19978521  0.72339706  1  0  -0.08316  0  3.656365  0  0  -0.12042  0  3.901886  0  0  -0.117816  0  3.918591  0  0  -0.069262  -0.121705  0  3.890531  0
C  C74  1  0.64153927  0.52109341  0.66555477  1  0  0.068021  0  3.772128  0  0  0.092283  0  4.003662  0  0  0.089479  0  4.026797  0  0  0.00197  0.093865  0  3.988032  0
C  C75  1  0.85852920  0.85551778  0.33444971  1  0  0.06838  0  3.770389  0  0  0.092458  0  4.002386  0  0  0.089642  0  4.025629  0  0  0.002099  0.09406  0  3.986654  0
C  C76  1  0.35845822  0.47890805  0.33444745  1  0  0.068152  0  3.77212  0  0  0.09237  0  4.003681  0  0  0.089565  0  4.026813  0  0  0.002028  0.093959  0  3.988041  0
C  C77  1  0.14147149  0.14448113  0.66554976  1  0  0.068361  0  3.770377  0  0  0.092433  0  4.002384  0  0  0.089616  0  4.025626  0  0  0.002085  0.094036  0  3.986651  0
C  C78  1  0.49920406  0.54884574  0.86903057  1  0  0.676682  0  3.921063  0  0  0.63007  0  4.208049  0  0  0.664237  0  4.200266  0  0  0.22111  0.606936  0  4.212507  0
C  C79  1  0.00087359  0.67970996  0.13099772  1  0  0.67799  0  3.919638  0  0  0.631141  0  4.206905  0  0  0.665307  0  4.199102  0  0  0.221278  0.608013  0  4.211366  0
C  C80  1  0.50079211  0.45115316  0.13097030  1  0  0.676498  0  3.921177  0  0  0.629865  0  4.208217  0  0  0.664029  0  4.200436  0  0  0.22101  0.60675  0  4.21267  0
C  C81  1  0.99912824  0.32028896  0.86900126  1  0  0.677972  0  3.919684  0  0  0.63118  0  4.206874  0  0  0.665347  0  4.199069  0  0  0.221319  0.608069  0  4.211317  0
C  C82  1  0.57347420  0.50852899  0.57960420  1  0  -0.052971  0  3.723015  0  0  -0.051474  0  3.965007  0  0  -0.051296  0  3.985954  0  0  -0.015061  -0.051626  0  3.950959  0
C  C83  1  0.92657297  0.92891654  0.42039466  1  0  -0.052188  0  3.722128  0  0  -0.049967  0  3.963792  0  0  -0.049862  0  3.984801  0  0  -0.014962  -0.050084  0  3.949707  0
C  C84  1  0.42652211  0.49147163  0.42039656  1  0  -0.053128  0  3.723108  0  0  -0.051521  0  3.965014  0  0  -0.051338  0  3.985964  0  0  -0.015103  -0.051679  0  3.950972  0
C  C85  1  0.07342891  0.07108323  0.57960512  1  0  -0.052225  0  3.72207  0  0  -0.050003  0  3.963716  0  0  -0.049898  0  3.984724  0  0  -0.014998  -0.050122  0  3.949635  0
C  C86  1  0.54577288  0.39987691  0.51574652  1  0  0.03385  0  3.826449  0  0  0.039188  0  4.070007  0  0  0.040138  0  4.092381  0  0  -0.015878  0.038542  0  4.0549  0
C  C87  1  0.95427980  0.88413513  0.48426347  1  0  0.033167  0  3.827401  0  0  0.03807  0  4.07187  0  0  0.039021  0  4.094238  0  0  -0.016528  0.037413  0  4.056769  0
C  C88  1  0.45422455  0.60012372  0.48425374  1  0  0.033907  0  3.82642  0  0  0.039173  0  4.070017  0  0  0.040118  0  4.092388  0  0  -0.015876  0.038529  0  4.054915  0
C  C89  1  0.04572321  0.11586463  0.51573638  1  0  0.033174  0  3.827403  0  0  0.038087  0  4.071867  0  0  0.039039  0  4.094236  0  0  -0.016493  0.037426  0  4.056763  0
C  C90  1  0.52935807  0.60838905  0.56497063  1  0  0.042391  0  3.804885  0  0  0.04841  0  4.046296  0  0  0.048995  0  4.069026  0  0  -0.013887  0.047973  0  4.030973  0
C  C91  1  0.97062480  0.04340440  0.43501809  1  0  0.042304  0  3.802513  0  0  0.04775  0  4.044803  0  0  0.048386  0  4.06751  0  0  -0.013417  0.047299  0  4.02948  0
C  C92  1  0.47063930  0.39161071  0.43502998  1  0  0.04245  0  3.804938  0  0  0.048407  0  4.04635  0  0  0.048975  0  4.069101  0  0  -0.01389  0.04797  0  4.031026  0
C  C93  1  0.02937595  0.95659536  0.56498219  1  0  0.042282  0  3.802496  0  0  0.047751  0  4.044758  0  0  0.048391  0  4.067458  0  0  -0.013402  0.047295  0  4.029442  0
C  C94  1  0.55788528  0.19112978  0.46614508  1  0  0.191308  0  3.813283  0  0  0.176411  0  4.076025  0  0  0.186661  0  4.091154  0  0  0.078108  0.169259  0  4.065854  0
C  C95  1  0.94216847  0.72499498  0.53386128  1  0  0.189838  0  3.814634  0  0  0.176481  0  4.075985  0  0  0.186825  0  4.091017  0  0  0.078744  0.169331  0  4.06581  0
C  C96  1  0.44211554  0.80887085  0.53385427  1  0  0.1913  0  3.813376  0  0  0.17646  0  4.076081  0  0  0.186718  0  4.091201  0  0  0.078151  0.169315  0  4.065906  0
C  C97  1  0.05783348  0.27500565  0.46613815  1  0  0.189985  0  3.814503  0  0  0.176589  0  4.075902  0  0  0.186934  0  4.090933  0  0  0.078786  0.169436  0  4.065729  0
C  C98  1  0.55971542  0.71924914  0.62835561  1  0  -0.252633  0  3.786605  0  0  -0.285305  0  4.048069  0  0  -0.290425  0  4.067512  0  0  -0.123893  -0.28176  0  4.035037  0
C  C99  1  0.94026946  0.09088546  0.37162722  1  0  -0.25387  0  3.787129  0  0  -0.286039  0  4.048623  0  0  -0.291196  0  4.068024  0  0  -0.124703  -0.28249  0  4.035582  0
C  C100  1  0.44028421  0.28075063  0.37164401  1  0  -0.252677  0  3.786619  0  0  -0.285346  0  4.048099  0  0  -0.290461  0  4.067546  0  0  -0.123914  -0.281802  0  4.035073  0
C  C101  1  0.05973130  0.90911431  0.62837191  1  0  -0.253857  0  3.787172  0  0  -0.28603  0  4.048666  0  0  -0.291188  0  4.068066  0  0  -0.124699  -0.28248  0  4.035624  0
C  C102  1  0.58804478  0.29711811  0.52859349  1  0  -0.257919  0  3.772857  0  0  -0.287749  0  4.03075  0  0  -0.293936  0  4.050723  0  0  -0.124446  -0.283513  0  4.017284  0
C  C103  1  0.91206489  0.76852441  0.47140259  1  0  -0.256995  0  3.772434  0  0  -0.28694  0  4.030133  0  0  -0.293095  0  4.050089  0  0  -0.124277  -0.28271  0  4.016689  0
C  C104  1  0.41195490  0.70288251  0.47140635  1  0  -0.257997  0  3.772978  0  0  -0.287843  0  4.030895  0  0  -0.294033  0  4.050866  0  0  -0.124498  -0.283616  0  4.017434  0
C  C105  1  0.08793700  0.23147536  0.52859718  1  0  -0.257115  0  3.772348  0  0  -0.287049  0  4.030068  0  0  -0.293205  0  4.050023  0  0  -0.124322  -0.28281  0  4.016616  0
C  C106  1  0.51964601  0.81702465  0.61411952  1  0  0.180569  0  3.815706  0  0  0.165519  0  4.083336  0  0  0.175144  0  4.097755  0  0  0.074004  0.15877  0  4.073675  0
C  C107  1  0.98035716  0.20289040  0.38586458  1  0  0.181389  0  3.816323  0  0  0.166418  0  4.083556  0  0  0.176051  0  4.09795  0  0  0.074716  0.159682  0  4.073884  0
C  C108  1  0.48035362  0.18297512  0.38588010  1  0  0.180624  0  3.815663  0  0  0.165583  0  4.083288  0  0  0.175212  0  4.097708  0  0  0.074042  0.158842  0  4.073628  0
C  C109  1  0.01964359  0.79710936  0.61413569  1  0  0.181497  0  3.81629  0  0  0.166463  0  4.083533  0  0  0.176094  0  4.097932  0  0  0.074734  0.159728  0  4.073859  0
C  C110  1  0.67098276  0.09588254  0.55298599  1  0  -0.074961  0  3.618139  0  0  -0.1756  0  3.888901  0  0  -0.168006  0  3.892174  0  0  -0.145288  -0.180565  0  3.886541  0
C  C111  1  0.82927064  0.54289897  0.44697923  1  0  -0.077762  0  3.619916  0  0  -0.177899  0  3.890292  0  0  -0.170385  0  3.893516  0  0  -0.145959  -0.182787  0  3.887956  0
C  C112  1  0.32901812  0.90411895  0.44701302  1  0  -0.074901  0  3.61817  0  0  -0.175524  0  3.888927  0  0  -0.167922  0  3.892205  0  0  -0.145251  -0.180491  0  3.88657  0
C  C113  1  0.17073012  0.45710080  0.55302047  1  0  -0.077893  0  3.620038  0  0  -0.177992  0  3.890386  0  0  -0.170477  0  3.893609  0  0  -0.145972  -0.182875  0  3.888044  0
C  C114  1  0.63853232  0.93541249  0.74841573  1  0  -0.07437  0  3.657603  0  0  -0.165388  0  3.912203  0  0  -0.159102  0  3.917079  0  0  -0.13664  -0.169458  0  3.90869  0
C  C115  1  0.86150648  0.18703035  0.25156492  1  0  -0.075522  0  3.658566  0  0  -0.166281  0  3.913287  0  0  -0.15999  0  3.918181  0  0  -0.136626  -0.170347  0  3.90976  0
C  C116  1  0.36146844  0.06458728  0.25158339  1  0  -0.07436  0  3.657609  0  0  -0.165425  0  3.9122  0  0  -0.159134  0  3.917078  0  0  -0.136643  -0.169491  0  3.908691  0
C  C117  1  0.13849434  0.81297027  0.74843444  1  0  -0.075441  0  3.658542  0  0  -0.166295  0  3.913271  0  0  -0.160005  0  3.918165  0  0  -0.136628  -0.170358  0  3.909738  0
O  O118  1  0.06144225  0.63281360  0.88494006  1  0  -0.638619  0  1.954094  0  0  -0.589105  0  2.176633  0  0  -0.611601  0  2.166579  0  0  -0.343516  -0.573485  0  2.183272  0
O  O119  1  0.43870308  0.74750690  0.11501417  1  0  -0.638042  0  1.95484  0  0  -0.5885  0  2.177234  0  0  -0.611009  0  2.167186  0  0  -0.343636  -0.572868  0  2.183866  0
O  O120  1  0.93855304  0.36718873  0.11506108  1  0  -0.638588  0  1.954169  0  0  -0.589047  0  2.176721  0  0  -0.611544  0  2.166668  0  0  -0.343482  -0.573423  0  2.183358  0
O  O121  1  0.56129893  0.25249458  0.88498492  1  0  -0.638014  0  1.954962  0  0  -0.588503  0  2.177331  0  0  -0.611013  0  2.167284  0  0  -0.343607  -0.572876  0  2.183964  0
O  O122  1  0.35623167  0.54707879  0.84890427  1  0  -0.713232  0  2.048805  0  0  -0.652011  0  2.279139  0  0  -0.679338  0  2.267815  0  0  -0.360312  -0.632864  0  2.286356  0
O  O123  1  0.14384511  0.69802268  0.15112246  1  0  -0.7139  0  2.048488  0  0  -0.652496  0  2.278986  0  0  -0.679834  0  2.267634  0  0  -0.360346  -0.633335  0  2.286211  0
O  O124  1  0.64376576  0.45292182  0.15109714  1  0  -0.713211  0  2.048775  0  0  -0.651969  0  2.279093  0  0  -0.679296  0  2.267769  0  0  -0.360299  -0.632825  0  2.286305  0
O  O125  1  0.85615559  0.30197624  0.84887586  1  0  -0.713901  0  2.048489  0  0  -0.652524  0  2.27897  0  0  -0.679861  0  2.267617  0  0  -0.360337  -0.633371  0  2.286197  0
O  O126  1  0.55713510  0.55194206  0.94076180  1  0  -0.729818  0  1.972065  0  0  -0.671443  0  2.21359  0  0  -0.698375  0  2.20365  0  0  -0.386841  -0.652455  0  2.219839  0
O  O127  1  0.94293513  0.61104304  0.05928536  1  0  -0.730463  0  1.971576  0  0  -0.671859  0  2.212938  0  0  -0.698821  0  2.203053  0  0  -0.387302  -0.652856  0  2.219157  0
O  O128  1  0.44286120  0.44805856  0.05924011  1  0  -0.729755  0  1.972157  0  0  -0.67137  0  2.213691  0  0  -0.698302  0  2.203752  0  0  -0.386811  -0.652376  0  2.21992  0
O  O129  1  0.05706781  0.38895587  0.94071484  1  0  -0.730489  0  1.97161  0  0  -0.67189  0  2.212908  0  0  -0.69885  0  2.203023  0  0  -0.387348  -0.652893  0  2.219123  0
O  O130  1  0.11075490  0.53821572  0.75386799  1  0  -0.54543  0  2.069111  0  0  -0.494097  0  2.282054  0  0  -0.516627  0  2.263984  0  0  -0.316278  -0.478456  0  2.294241  0
O  O131  1  0.38922626  0.78467020  0.24613649  1  0  -0.545528  0  2.070279  0  0  -0.494086  0  2.28303  0  0  -0.516672  0  2.264835  0  0  -0.316372  -0.478407  0  2.29529  0
O  O132  1  0.88924021  0.46178404  0.24613419  1  0  -0.545326  0  2.069207  0  0  -0.493994  0  2.282114  0  0  -0.516524  0  2.264045  0  0  -0.316199  -0.47835  0  2.294301  0
O  O133  1  0.61077563  0.21532957  0.75386214  1  0  -0.545496  0  2.07031  0  0  -0.494055  0  2.283015  0  0  -0.516639  0  2.26482  0  0  -0.316339  -0.478373  0  2.295276  0
O  O134  1  0.59408848  0.08978365  0.47355929  1  0  -0.228373  0  2.369231  0  0  -0.151177  0  2.609273  0  0  -0.169823  0  2.614098  0  0  -0.175879  -0.13803  0  2.605442  0
O  O135  1  0.90598065  0.61624483  0.52644569  1  0  -0.225823  0  2.369424  0  0  -0.150162  0  2.609854  0  0  -0.168928  0  2.614813  0  0  -0.176314  -0.137009  0  2.605979  0
O  O136  1  0.40591234  0.91021698  0.52643949  1  0  -0.228347  0  2.369214  0  0  -0.151228  0  2.609313  0  0  -0.169875  0  2.614131  0  0  -0.175909  -0.138079  0  2.60548  0
O  O137  1  0.09402123  0.38375493  0.47355352  1  0  -0.225774  0  2.369483  0  0  -0.15014  0  2.609943  0  0  -0.168905  0  2.614903  0  0  -0.176302  -0.136993  0  2.606073  0
O  O138  1  0.54970290  0.92555724  0.67126737  1  0  -0.231233  0  2.355753  0  0  -0.158761  0  2.595694  0  0  -0.176  0  2.599138  0  0  -0.182635  -0.146591  0  2.592805  0
O  O139  1  0.95035310  0.25428560  0.32871321  1  0  -0.230393  0  2.355967  0  0  -0.158739  0  2.596514  0  0  -0.17597  0  2.599951  0  0  -0.18294  -0.146604  0  2.593649  0
O  O140  1  0.45029899  0.07444253  0.32873126  1  0  -0.231255  0  2.35573  0  0  -0.158781  0  2.595684  0  0  -0.176021  0  2.599125  0  0  -0.182657  -0.146619  0  2.592802  0
O  O141  1  0.04964766  0.74571417  0.67128649  1  0  -0.2304  0  2.355965  0  0  -0.158682  0  2.596513  0  0  -0.175912  0  2.599951  0  0  -0.182885  -0.146548  0  2.593642  0
