# generated using pymatgen
data_AgH7C5N3ClO4
_symmetry_space_group_name_H-M   'P 1'
_cell_length_a   9.07349998
_cell_length_b   10.76079903
_cell_length_c   11.38404298
_cell_angle_alpha   87.16993821
_cell_angle_beta   66.53568956
_cell_angle_gamma   65.04613897
_symmetry_Int_Tables_number   1
_chemical_formula_structural   AgH7C5N3ClO4
_chemical_formula_sum   'Ag4 H28 C20 N12 Cl4 O16'
_cell_volume   914.97130182
_cell_formula_units_Z   4
loop_
 _symmetry_equiv_pos_site_id
 _symmetry_equiv_pos_as_xyz
  1  'x, y, z'
loop_
 _atom_site_type_symbol
 _atom_site_label
 _atom_site_symmetry_multiplicity
 _atom_site_fract_x
 _atom_site_fract_y
 _atom_site_fract_z
 _atom_site_occupancy
 _atom_site_hle17_bader_spin_density
 _atom_site_hle17_ddec_charge
 _atom_site_hle17_ddec_spin_density
 _atom_site_hle17_ddec_sum_bond_order
 _atom_site_hle17_magmom
 _atom_site_hse06_10hf_bader_spin_density
 _atom_site_hse06_10hf_ddec_charge
 _atom_site_hse06_10hf_ddec_spin_density
 _atom_site_hse06_10hf_ddec_sum_bond_order
 _atom_site_hse06_10hf_magmom
 _atom_site_hse06_bader_spin_density
 _atom_site_hse06_ddec_charge
 _atom_site_hse06_ddec_spin_density
 _atom_site_hse06_ddec_sum_bond_order
 _atom_site_hse06_magmom
 _atom_site_pbe_bader_spin_density
 _atom_site_pbe_cm5_charge
 _atom_site_pbe_ddec_charge
 _atom_site_pbe_ddec_spin_density
 _atom_site_pbe_ddec_sum_bond_order
 _atom_site_pbe_magmom
Ag  Ag0  1  0.39068362  0.75007272  0.74999766  1  0  0.532879  0  1.461338  0  0  0.392315  0  1.89656  0  0  0.41674  0  1.859622  0  0  0.470516  0.375419  0  1.921997  0
Ag  Ag1  1  0.60931879  0.24992501  0.25000220  1  0  0.532887  0  1.461355  0  0  0.392324  0  1.896588  0  0  0.416747  0  1.859649  0  0  0.470509  0.375426  0  1.922024  0
Ag  Ag2  1  0.50000084  0.00000052  0.50000115  1  0  0.503296  0  1.454669  0  0  0.346873  0  1.90634  0  0  0.372793  0  1.863898  0  0  0.473935  0.328647  0  1.936148  0
Ag  Ag3  1  0.50000070  0.50000081  0.99999952  1  0  0.502587  0  1.456118  0  0  0.346007  0  1.907798  0  0  0.371975  0  1.865263  0  0  0.474646  0.328088  0  1.93698  0
H  H4  1  0.98279267  0.84380665  0.86078289  1  0  0.108943  0  0.964467  0  0  0.124573  0  1.038693  0  0  0.125976  0  1.038205  0  0  0.086343  0.123509  0  1.039065  0
H  H5  1  0.18769727  0.65629113  0.63905444  1  0  0.108836  0  0.964711  0  0  0.12444  0  1.038991  0  0  0.125823  0  1.038535  0  0  0.08619  0.123435  0  1.039294  0
H  H6  1  0.01720796  0.15619210  0.13921660  1  0  0.108938  0  0.964457  0  0  0.124568  0  1.038686  0  0  0.125971  0  1.038195  0  0  0.086344  0.123503  0  1.039057  0
H  H7  1  0.81230457  0.34370760  0.36094465  1  0  0.108855  0  0.964698  0  0  0.124456  0  1.038976  0  0  0.125839  0  1.03852  0  0  0.086203  0.123451  0  1.039278  0
H  H8  1  0.82548004  0.83009442  0.01066458  1  0  0.139092  0  0.949948  0  0  0.159872  0  1.006358  0  0  0.161665  0  1.005969  0  0  0.095859  0.158534  0  1.006676  0
H  H9  1  0.16639832  0.67005247  0.48919260  1  0  0.138916  0  0.950478  0  0  0.159469  0  1.007018  0  0  0.161218  0  1.006677  0  0  0.096042  0.158157  0  1.00735  0
H  H10  1  0.17452058  0.16990435  0.98933578  1  0  0.139079  0  0.949982  0  0  0.159869  0  1.006381  0  0  0.161646  0  1.00601  0  0  0.095853  0.15853  0  1.006698  0
H  H11  1  0.83360110  0.32994631  0.51080815  1  0  0.138921  0  0.950421  0  0  0.159494  0  1.006939  0  0  0.161244  0  1.006598  0  0  0.096051  0.158181  0  1.007274  0
H  H12  1  0.02585780  0.68160952  0.91837709  1  0  0.129923  0  0.954874  0  0  0.143584  0  1.025813  0  0  0.146711  0  1.023411  0  0  0.091565  0.1413  0  1.02754  0
H  H13  1  0.12585199  0.81854968  0.58157682  1  0  0.130122  0  0.95493  0  0  0.14364  0  1.025848  0  0  0.146784  0  1.023423  0  0  0.091548  0.141429  0  1.027493  0
H  H14  1  0.97414460  0.31838823  0.08162366  1  0  0.129905  0  0.954932  0  0  0.143558  0  1.025884  0  0  0.146686  0  1.023479  0  0  0.091542  0.141274  0  1.02761  0
H  H15  1  0.87414564  0.18145015  0.41842442  1  0  0.130133  0  0.954948  0  0  0.143639  0  1.025876  0  0  0.146783  0  1.02345  0  0  0.091546  0.141428  0  1.027519  0
H  H16  1  0.41141256  0.83754890  0.01987314  1  0  0.108414  0  0.937532  0  0  0.115379  0  1.002824  0  0  0.118369  0  0.998885  0  0  0.134561  0.113122  0  1.005633  0
H  H17  1  0.76898607  0.66254701  0.48008003  1  0  0.107936  0  0.935805  0  0  0.114336  0  1.001741  0  0  0.117309  0  0.99783  0  0  0.134002  0.112088  0  1.004752  0
H  H18  1  0.58859040  0.16244784  0.98012837  1  0  0.108402  0  0.937585  0  0  0.115379  0  1.002855  0  0  0.118358  0  0.998943  0  0  0.134559  0.113133  0  1.00565  0
H  H19  1  0.23101393  0.33745072  0.51991973  1  0  0.107966  0  0.935843  0  0  0.114376  0  1.001763  0  0  0.117348  0  0.99785  0  0  0.134037  0.112127  0  1.004774  0
H  H20  1  0.15176015  0.90194933  0.24134566  1  0  0.318969  0  0.909814  0  0  0.293132  0  0.981869  0  0  0.301677  0  0.974672  0  0  0.312011  0.287039  0  0.987055  0
H  H21  1  0.79508218  0.59802724  0.25862493  1  0  0.31896  0  0.909046  0  0  0.293744  0  0.980447  0  0  0.30233  0  0.973158  0  0  0.312385  0.287632  0  0.985672  0
H  H22  1  0.84823691  0.09805154  0.75865570  1  0  0.318984  0  0.909865  0  0  0.293121  0  0.981959  0  0  0.301667  0  0.974757  0  0  0.311998  0.287028  0  0.987146  0
H  H23  1  0.20491490  0.40197357  0.74137467  1  0  0.318963  0  0.908978  0  0  0.293744  0  0.98038  0  0  0.302329  0  0.973091  0  0  0.312367  0.287632  0  0.985605  0
H  H24  1  0.73313047  0.89478689  0.21892493  1  0  0.1067  0  0.96485  0  0  0.112455  0  1.035958  0  0  0.11453  0  1.032373  0  0  0.121609  0.110923  0  1.038535  0
H  H25  1  0.34681767  0.60521359  0.28108822  1  0  0.106477  0  0.965076  0  0  0.111981  0  1.03656  0  0  0.114128  0  1.03291  0  0  0.121517  0.110339  0  1.039211  0
H  H26  1  0.26686550  0.10521810  0.78107649  1  0  0.106685  0  0.964889  0  0  0.112454  0  1.035982  0  0  0.114528  0  1.032398  0  0  0.121607  0.110922  0  1.038558  0
H  H27  1  0.65318126  0.39478821  0.71890984  1  0  0.106487  0  0.965058  0  0  0.111966  0  1.036577  0  0  0.11411  0  1.03293  0  0  0.121519  0.110326  0  1.03922  0
H  H28  1  0.84048394  0.96261875  0.50558242  1  0  0.369493  0  0.903845  0  0  0.341449  0  0.98331  0  0  0.352019  0  0.971624  0  0  0.303955  0.333937  0  0.99148  0
H  H29  1  0.80858330  0.53729801  0.99445986  1  0  0.369112  0  0.904028  0  0  0.341164  0  0.983463  0  0  0.351787  0  0.971701  0  0  0.303619  0.333561  0  0.991814  0
H  H30  1  0.15951852  0.03738104  0.49441728  1  0  0.369451  0  0.903942  0  0  0.341421  0  0.983378  0  0  0.351991  0  0.971698  0  0  0.303948  0.33391  0  0.991546  0
H  H31  1  0.19141732  0.46270076  0.00554050  1  0  0.369107  0  0.904058  0  0  0.341165  0  0.983485  0  0  0.35179  0  0.971722  0  0  0.30362  0.333562  0  0.991837  0
C  C32  1  0.28412258  0.83779675  0.03937202  1  0  0.230646  0  3.668656  0  0  0.166044  0  3.944616  0  0  0.181349  0  3.955876  0  0  0.144611  0.156132  0  3.936726  0
C  C33  1  0.66141882  0.66232529  0.46059192  1  0  0.23229  0  3.662139  0  0  0.168539  0  3.938372  0  0  0.183832  0  3.94962  0  0  0.145591  0.158276  0  3.930954  0
C  C34  1  0.71587570  0.16220408  0.96062807  1  0  0.230625  0  3.668778  0  0  0.166013  0  3.944726  0  0  0.181315  0  3.95598  0  0  0.144577  0.156092  0  3.936833  0
C  C35  1  0.33857940  0.33767345  0.53940745  1  0  0.232291  0  3.662132  0  0  0.168522  0  3.93836  0  0  0.18382  0  3.949604  0  0  0.145597  0.158259  0  3.930942  0
C  C36  1  0.06332583  0.82278386  0.01572016  1  0  0.213646  0  3.705798  0  0  0.210557  0  3.959353  0  0  0.217375  0  3.983853  0  0  0.097181  0.206046  0  3.94273  0
C  C37  1  0.40191721  0.67743439  0.48420190  1  0  0.21639  0  3.702876  0  0  0.213899  0  3.956043  0  0  0.220745  0  3.980377  0  0  0.0984  0.209445  0  3.939086  0
C  C38  1  0.93667474  0.17721285  0.98428036  1  0  0.21378  0  3.705814  0  0  0.210693  0  3.959368  0  0  0.217509  0  3.983862  0  0  0.097222  0.206183  0  3.942746  0
C  C39  1  0.59808050  0.32256747  0.51579830  1  0  0.216457  0  3.702922  0  0  0.213933  0  3.956135  0  0  0.220778  0  3.980472  0  0  0.098402  0.20948  0  3.939174  0
C  C40  1  0.00673069  0.86306893  0.14704554  1  0  0.073868  0  3.751434  0  0  0.066925  0  4.005429  0  0  0.062863  0  4.027617  0  0  0.079322  0.069181  0  3.991025  0
C  C41  1  0.51690350  0.63700107  0.35290489  1  0  0.070412  0  3.751267  0  0  0.062668  0  4.006831  0  0  0.058649  0  4.028974  0  0  0.077749  0.065149  0  3.991777  0
C  C42  1  0.99326635  0.13693198  0.85295757  1  0  0.07383  0  3.75141  0  0  0.066872  0  4.005403  0  0  0.06281  0  4.027591  0  0  0.079324  0.069129  0  3.991001  0
C  C43  1  0.48309478  0.36299974  0.64709433  1  0  0.070399  0  3.751278  0  0  0.06265  0  4.006864  0  0  0.058634  0  4.028999  0  0  0.07775  0.06513  0  3.991808  0
C  C44  1  0.83393479  0.89633829  0.24760234  1  0  0.025821  0  3.745174  0  0  -0.0232  0  4.021214  0  0  -0.006973  0  4.027433  0  0  0.040487  -0.034055  0  4.017228  0
C  C45  1  0.47784103  0.60362010  0.25240512  1  0  0.026306  0  3.746838  0  0  -0.022277  0  4.022228  0  0  -0.006185  0  4.028498  0  0  0.041157  -0.032678  0  4.017755  0
C  C46  1  0.16606596  0.10366457  0.75239681  1  0  0.025796  0  3.745135  0  0  -0.023244  0  4.021195  0  0  -0.007014  0  4.027408  0  0  0.04047  -0.034101  0  4.017215  0
C  C47  1  0.52215732  0.39638277  0.74759393  1  0  0.026346  0  3.74668  0  0  -0.022202  0  4.02204  0  0  -0.006109  0  4.028308  0  0  0.041169  -0.032609  0  4.017581  0
C  C48  1  0.96825022  0.79367635  0.94853215  1  0  -0.366498  0  3.719269  0  0  -0.446139  0  3.957497  0  0  -0.44968  0  3.965771  0  0  -0.246601  -0.443303  0  3.951678  0
C  C49  1  0.21060562  0.70650789  0.55133583  1  0  -0.366979  0  3.720725  0  0  -0.446401  0  3.959508  0  0  -0.449867  0  3.967683  0  0  -0.24679  -0.443704  0  3.953621  0
C  C50  1  0.03174984  0.20632343  0.05146745  1  0  -0.366515  0  3.719376  0  0  -0.446161  0  3.957585  0  0  -0.44969  0  3.96587  0  0  -0.246599  -0.443323  0  3.951764  0
C  C51  1  0.78939323  0.29349190  0.44866415  1  0  -0.367019  0  3.720655  0  0  -0.446431  0  3.959462  0  0  -0.449898  0  3.967637  0  0  -0.246795  -0.443737  0  3.953574  0
N  N52  1  0.23558121  0.80826575  0.95113804  1  0  -0.418228  0  3.334651  0  0  -0.331808  0  3.633133  0  0  -0.354128  0  3.647332  0  0  -0.381006  -0.316816  0  3.623209  0
N  N53  1  0.49510319  0.69196520  0.54880003  1  0  -0.421334  0  3.332146  0  0  -0.335067  0  3.630741  0  0  -0.357382  0  3.644844  0  0  -0.382305  -0.319937  0  3.620812  0
N  N54  1  0.76441998  0.19173201  0.04886309  1  0  -0.418252  0  3.334664  0  0  -0.331851  0  3.633174  0  0  -0.354161  0  3.647363  0  0  -0.381007  -0.316863  0  3.623257  0
N  N55  1  0.50489566  0.30803459  0.45119995  1  0  -0.421405  0  3.332139  0  0  -0.335122  0  3.630744  0  0  -0.35744  0  3.644849  0  0  -0.382333  -0.319993  0  3.620814  0
N  N56  1  0.15000855  0.87059831  0.15803112  1  0  -0.315973  0  3.447146  0  0  -0.253678  0  3.684801  0  0  -0.269369  0  3.700519  0  0  -0.374014  -0.243136  0  3.674323  0
N  N57  1  0.67869397  0.62946287  0.34193558  1  0  -0.313974  0  3.442041  0  0  -0.252393  0  3.680184  0  0  -0.268132  0  3.695862  0  0  -0.373818  -0.241825  0  3.669596  0
N  N58  1  0.84999265  0.12939942  0.84196913  1  0  -0.315977  0  3.447316  0  0  -0.25363  0  3.684907  0  0  -0.26932  0  3.700622  0  0  -0.373985  -0.243088  0  3.674432  0
N  N59  1  0.32130552  0.37053792  0.65806325  1  0  -0.313998  0  3.442061  0  0  -0.252411  0  3.680198  0  0  -0.268153  0  3.695878  0  0  -0.373853  -0.241844  0  3.66961  0
N  N60  1  0.77554453  0.93238137  0.37082737  1  0  -0.110543  0  3.269043  0  0  -0.042578  0  3.579421  0  0  -0.054762  0  3.588986  0  0  -0.276805  -0.034779  0  3.573038  0
N  N61  1  0.57869623  0.56750251  0.12918775  1  0  -0.107446  0  3.270152  0  0  -0.039279  0  3.580276  0  0  -0.051476  0  3.589915  0  0  -0.275738  -0.03161  0  3.573509  0
N  N62  1  0.22445615  0.06761947  0.62917283  1  0  -0.110493  0  3.269063  0  0  -0.04252  0  3.579441  0  0  -0.054701  0  3.589004  0  0  -0.276796  -0.034721  0  3.57306  0
N  N63  1  0.42130324  0.43249833  0.87081284  1  0  -0.107517  0  3.270082  0  0  -0.039365  0  3.580217  0  0  -0.05156  0  3.589852  0  0  -0.275741  -0.031697  0  3.573451  0
Cl  Cl64  1  0.66234151  0.94571175  0.75544863  1  0  0.995541  0  4.553277  0  0  0.934561  0  5.071954  0  0  0.975062  0  5.051743  0  0  0.563389  0.906445  0  5.08436  0
Cl  Cl65  1  0.86355741  0.55441053  0.74457320  1  0  0.992908  0  4.554278  0  0  0.932173  0  5.073122  0  0  0.972603  0  5.052979  0  0  0.562108  0.904002  0  5.085627  0
Cl  Cl66  1  0.33766151  0.05428705  0.24455272  1  0  0.995435  0  4.553496  0  0  0.934473  0  5.072135  0  0  0.974979  0  5.051922  0  0  0.563349  0.906356  0  5.084537  0
Cl  Cl67  1  0.13644632  0.44559130  0.25542595  1  0  0.992908  0  4.554156  0  0  0.932181  0  5.073018  0  0  0.972613  0  5.05287  0  0  0.562084  0.904011  0  5.085524  0
O  O68  1  0.90119278  0.93566609  0.40873737  1  0  -0.397128  0  2.066115  0  0  -0.340751  0  2.275257  0  0  -0.360305  0  2.272471  0  0  -0.261793  -0.326791  0  2.276828  0
O  O69  1  0.74549396  0.56421015  0.09131306  1  0  -0.39903  0  2.067897  0  0  -0.342612  0  2.276658  0  0  -0.362187  0  2.273789  0  0  -0.262446  -0.328657  0  2.278411  0
O  O70  1  0.09880906  0.06433265  0.59126172  1  0  -0.397114  0  2.066155  0  0  -0.340745  0  2.275304  0  0  -0.360304  0  2.272518  0  0  -0.261797  -0.326785  0  2.276874  0
O  O71  1  0.25450552  0.43579069  0.90868752  1  0  -0.399008  0  2.067938  0  0  -0.342595  0  2.276707  0  0  -0.362166  0  2.273827  0  0  -0.262445  -0.32864  0  2.278461  0
O  O72  1  0.77417605  0.01311929  0.66213302  1  0  -0.600809  0  1.84201  0  0  -0.554643  0  2.100137  0  0  -0.572044  0  2.085517  0  0  -0.338124  -0.542132  0  2.109306  0
O  O73  1  0.94954899  0.48710468  0.83794881  1  0  -0.598191  0  1.841445  0  0  -0.552697  0  2.099907  0  0  -0.570058  0  2.085286  0  0  -0.336841  -0.540276  0  2.109429  0
O  O74  1  0.22582164  0.98688260  0.33786806  1  0  -0.600759  0  1.842072  0  0  -0.554632  0  2.100209  0  0  -0.572038  0  2.085594  0  0  -0.338124  -0.542123  0  2.109376  0
O  O75  1  0.05045279  0.51289200  0.16205045  1  0  -0.598121  0  1.841409  0  0  -0.552648  0  2.099885  0  0  -0.57001  0  2.085262  0  0  -0.336815  -0.540228  0  2.109407  0
O  O76  1  0.62667797  0.86947718  0.67129511  1  0  -0.591723  0  1.965751  0  0  -0.543258  0  2.275637  0  0  -0.56358  0  2.257418  0  0  -0.338872  -0.528964  0  2.287585  0
O  O77  1  0.66749208  0.63048055  0.82868782  1  0  -0.592409  0  1.965732  0  0  -0.543766  0  2.27534  0  0  -0.564161  0  2.257282  0  0  -0.339648  -0.529431  0  2.287333  0
O  O78  1  0.37332326  0.13052269  0.32870762  1  0  -0.5917  0  1.965845  0  0  -0.543214  0  2.275697  0  0  -0.563537  0  2.257476  0  0  -0.338829  -0.528921  0  2.287641  0
O  O79  1  0.33251150  0.36951503  0.17130918  1  0  -0.592437  0  1.96566  0  0  -0.543799  0  2.275268  0  0  -0.564196  0  2.257209  0  0  -0.339635  -0.529457  0  2.287241  0
O  O80  1  0.49056367  0.06031792  0.84354930  1  0  -0.538112  0  1.817803  0  0  -0.501904  0  2.076118  0  0  -0.521329  0  2.063934  0  0  -0.325851  -0.488214  0  2.083735  0
O  O81  1  0.89472527  0.43975228  0.65641541  1  0  -0.53717  0  1.81814  0  0  -0.500886  0  2.076173  0  0  -0.52031  0  2.064098  0  0  -0.325342  -0.487152  0  2.083704  0
O  O82  1  0.50943806  0.93967889  0.15645436  1  0  -0.538077  0  1.817841  0  0  -0.501854  0  2.076133  0  0  -0.521278  0  2.063944  0  0  -0.325846  -0.488164  0  2.083749  0
O  O83  1  0.10528647  0.56025242  0.34357571  1  0  -0.537177  0  1.818129  0  0  -0.500886  0  2.07614  0  0  -0.520309  0  2.064061  0  0  -0.325349  -0.487155  0  2.083673  0
