# generated using pymatgen
data_ZnH22C29N2O9
_symmetry_space_group_name_H-M   'P 1'
_cell_length_a   10.05213333
_cell_length_b   12.12375577
_cell_length_c   12.56600000
_cell_angle_alpha   60.20644209
_cell_angle_beta   87.53790484
_cell_angle_gamma   85.56726424
_symmetry_Int_Tables_number   1
_chemical_formula_structural   ZnH22C29N2O9
_chemical_formula_sum   'Zn2 H44 C58 N4 O18'
_cell_volume   1324.99959516
_cell_formula_units_Z   2
loop_
 _symmetry_equiv_pos_site_id
 _symmetry_equiv_pos_as_xyz
  1  'x, y, z'
loop_
 _atom_site_type_symbol
 _atom_site_label
 _atom_site_symmetry_multiplicity
 _atom_site_fract_x
 _atom_site_fract_y
 _atom_site_fract_z
 _atom_site_occupancy
 _atom_site_hle17_bader_spin_density
 _atom_site_hle17_ddec_charge
 _atom_site_hle17_ddec_spin_density
 _atom_site_hle17_ddec_sum_bond_order
 _atom_site_hle17_magmom
 _atom_site_hse06_10hf_bader_spin_density
 _atom_site_hse06_10hf_ddec_charge
 _atom_site_hse06_10hf_ddec_spin_density
 _atom_site_hse06_10hf_ddec_sum_bond_order
 _atom_site_hse06_10hf_magmom
 _atom_site_hse06_bader_spin_density
 _atom_site_hse06_ddec_charge
 _atom_site_hse06_ddec_spin_density
 _atom_site_hse06_ddec_sum_bond_order
 _atom_site_hse06_magmom
 _atom_site_pbe_bader_charge
 _atom_site_pbe_bader_spin_density
 _atom_site_pbe_cm5_charge
 _atom_site_pbe_ddec_charge
 _atom_site_pbe_ddec_spin_density
 _atom_site_pbe_ddec_sum_bond_order
 _atom_site_pbe_magmom
Zn  Zn0  1  0.34040530  0.68059682  0.35960482  1  0  1.009413  0  1.83929  0  0  0.810109  0  2.316291  0  0  0.857812  0  2.261065  0  1.252896  0  0.71287  0.777201  0  2.353625  0
Zn  Zn1  1  0.65959487  0.31940422  0.64039134  1  0  1.009333  0  1.839403  0  0  0.810037  0  2.316404  0  0  0.857733  0  2.261177  0  1.252899  0  0.712823  0.777127  0  2.353735  0
H  H2  1  0.30208719  0.43783178  0.81153425  1  0  0.409224  0  0.877775  0  0  0.377162  0  0.957963  0  0  0.390701  0  0.941947  0  0.647167  0  0.300381  0.36766  0  0.968339  0
H  H3  1  0.69791305  0.56216830  0.18846634  1  0  0.409249  0  0.877725  0  0  0.37718  0  0.957926  0  0  0.390719  0  0.941919  0  0.647153  0  0.300385  0.367678  0  0.9683  0
H  H4  1  0.84093010  0.08101946  0.40068950  1  0  0.410066  0  0.790524  0  0  0.39217  0  0.849025  0  0  0.402021  0  0.838165  0  0.625867  0  0.345391  0.385108  0  0.856957  0
H  H5  1  0.15907200  0.91898253  0.59931329  1  0  0.410036  0  0.790495  0  0  0.392149  0  0.848976  0  0  0.401997  0  0.838121  0  0.625859  0  0.345389  0.385089  0  0.856906  0
H  H6  1  0.65992010  0.66676451  0.93795448  1  0  0.120258  0  0.960828  0  0  0.129604  0  1.023235  0  0  0.133799  0  1.019937  0  0.108733  0  0.106382  0.126622  0  1.025621  0
H  H7  1  0.34008052  0.33322986  0.06204884  1  0  0.120253  0  0.960871  0  0  0.129615  0  1.023255  0  0  0.13381  0  1.019954  0  0.108687  0  0.10636  0.126631  0  1.025643  0
H  H8  1  0.58573535  0.89129314  0.77962107  1  0  0.085377  0  0.974558  0  0  0.09503  0  1.038837  0  0  0.097595  0  1.038072  0  0.041698  0  0.09857  0.093195  0  1.039607  0
H  H9  1  0.41426534  0.10870028  0.22038588  1  0  0.085334  0  0.974538  0  0  0.094985  0  1.038804  0  0  0.097544  0  1.03806  0  0.041776  0  0.098549  0.093151  0  1.039574  0
H  H10  1  0.46887486  0.93040611  0.59268301  1  0  0.104963  0  0.956002  0  0  0.113315  0  1.020712  0  0  0.117025  0  1.017902  0  0.108213  0  0.104822  0.110654  0  1.022794  0
H  H11  1  0.53113453  0.06959111  0.40731943  1  0  0.104966  0  0.955857  0  0  0.113346  0  1.020548  0  0  0.117058  0  1.017738  0  0.108212  0  0.10484  0.110685  0  1.022632  0
H  H12  1  0.69109397  0.29151863  0.13768650  1  0  0.127637  0  0.948847  0  0  0.133985  0  1.016831  0  0  0.136912  0  1.015825  0  0.133945  0  0.11256  0.131648  0  1.018038  0
H  H13  1  0.30890932  0.70848051  0.86231842  1  0  0.127619  0  0.948796  0  0  0.13398  0  1.016788  0  0  0.136901  0  1.0158  0  0.133705  0  0.112556  0.131643  0  1.017995  0
H  H14  1  0.11556740  0.28362193  0.07326074  1  0  0.105419  0  0.967481  0  0  0.110896  0  1.040578  0  0  0.114691  0  1.037234  0  0.104774  0  0.106012  0.108016  0  1.043294  0
H  H15  1  0.88443258  0.71638196  0.92674281  1  0  0.105446  0  0.967407  0  0  0.110912  0  1.040529  0  0  0.114707  0  1.037186  0  0.104784  0  0.106017  0.10803  0  1.043246  0
H  H16  1  0.85164073  0.55154095  0.78307528  1  0  0.130379  0  0.934545  0  0  0.13793  0  0.997526  0  0  0.142241  0  0.994441  0  0.126796  0  0.115363  0.134803  0  0.999827  0
H  H17  1  0.14835970  0.44845627  0.21692508  1  0  0.13041  0  0.93457  0  0  0.137981  0  0.997521  0  0  0.142292  0  0.994438  0  0.126783  0  0.115386  0.134855  0  0.999823  0
H  H18  1  0.16153760  0.80480571  0.46732438  1  0  0.080166  0  0.974178  0  0  0.088692  0  1.03855  0  0  0.091095  0  1.035983  0  0.15059  0  0.115848  0.086571  0  1.040648  0
H  H19  1  0.83846315  0.19518676  0.53268303  1  0  0.080177  0  0.974131  0  0  0.088721  0  1.038488  0  0  0.091125  0  1.035916  0  0.150748  0  0.115824  0.086582  0  1.040607  0
H  H20  1  0.91610584  0.84049942  0.48935845  1  0  0.105986  0  0.944258  0  0  0.117184  0  1.003218  0  0  0.120607  0  1.001744  0  0.074604  0  0.107453  0.114809  0  1.004235  0
H  H21  1  0.08389504  0.15949114  0.51064986  1  0  0.105973  0  0.944245  0  0  0.117163  0  1.003218  0  0  0.120584  0  1.001744  0  0.074445  0  0.107444  0.11479  0  1.004235  0
H  H22  1  0.85675006  0.58532883  0.35115464  1  0  0.121696  0  0.950695  0  0  0.132117  0  1.008353  0  0  0.135175  0  1.008001  0  0.111197  0  0.111968  0.12989  0  1.008869  0
H  H23  1  0.14324812  0.41467221  0.64884477  1  0  0.121706  0  0.950666  0  0  0.132132  0  1.008318  0  0  0.13519  0  1.007965  0  0.111085  0  0.111972  0.129905  0  1.008833  0
H  H24  1  0.10414659  0.56088631  0.33387978  1  0  0.082768  0  0.950072  0  0  0.090554  0  1.017733  0  0  0.092844  0  1.015757  0  0.11194  0  0.116108  0.088851  0  1.019264  0
H  H25  1  0.89584953  0.43911568  0.66611765  1  0  0.082772  0  0.950037  0  0  0.090563  0  1.017684  0  0  0.092853  0  1.015709  0  0.111993  0  0.11613  0.08886  0  1.019217  0
H  H26  1  0.68847098  0.77293700  0.48426572  1  0  0.083975  0  0.941603  0  0  0.102016  0  0.998727  0  0  0.102129  0  1.000199  0  0.030111  0  0.095738  0.101985  0  0.997545  0
H  H27  1  0.31152907  0.22706594  0.51573351  1  0  0.083961  0  0.941684  0  0  0.102012  0  0.998781  0  0  0.102123  0  1.000253  0  0.03045  0  0.095729  0.10198  0  0.997597  0
H  H28  1  0.66321921  0.67327159  0.42230882  1  0  0.102895  0  0.933582  0  0  0.117242  0  0.995678  0  0  0.119371  0  0.994471  0  0.079559  0  0.099534  0.115725  0  0.996332  0
H  H29  1  0.33678064  0.32673421  0.57768825  1  0  0.102932  0  0.933556  0  0  0.117259  0  0.995665  0  0  0.119388  0  0.994463  0  0.079529  0  0.099533  0.115742  0  0.996317  0
H  H30  1  0.57272127  0.89715351  0.28841041  1  0  0.069156  0  0.946038  0  0  0.087091  0  1.009985  0  0  0.08699  0  1.011837  0  0.054856  0  0.090749  0.087007  0  1.00892  0
H  H31  1  0.42727572  0.10285038  0.71159005  1  0  0.069193  0  0.946035  0  0  0.087141  0  1.009952  0  0  0.087038  0  1.011806  0  0.054888  0  0.090768  0.087053  0  1.008892  0
H  H32  1  0.73274594  0.95371141  0.27592134  1  0  0.060911  0  0.94423  0  0  0.079152  0  1.00588  0  0  0.079766  0  1.00648  0  0.031708  0  0.085194  0.078651  0  1.005538  0
H  H33  1  0.26725105  0.04629248  0.72407753  1  0  0.060899  0  0.944252  0  0  0.079159  0  1.005876  0  0  0.079775  0  1.006473  0  0.031586  0  0.085178  0.078658  0  1.005534  0
H  H34  1  0.81767972  0.81597214  0.18160143  1  0  0.082555  0  0.939634  0  0  0.103444  0  0.993966  0  0  0.104  0  0.995106  0  0.042126  0  0.09713  0.103183  0  0.993043  0
H  H35  1  0.18231341  0.18402985  0.81839530  1  0  0.082547  0  0.93973  0  0  0.103436  0  0.994045  0  0  0.103991  0  0.995192  0  0.042086  0  0.097113  0.103176  0  0.99312  0
H  H36  1  0.65561800  0.77134262  0.18799812  1  0  0.101658  0  0.9449  0  0  0.117843  0  1.008992  0  0  0.119096  0  1.00871  0  0.108634  0  0.101194  0.116893  0  1.009294  0
H  H37  1  0.34437421  0.22865842  0.81200229  1  0  0.101661  0  0.944947  0  0  0.117874  0  1.008984  0  0  0.119129  0  1.008704  0  0.076288  0  0.101206  0.116923  0  1.009286  0
H  H38  1  0.60939663  0.09951588  0.10516978  1  0  0.105618  0  0.970726  0  0  0.11461  0  1.036675  0  0  0.116849  0  1.037451  0  0.064213  0  0.106734  0.113  0  1.036314  0
H  H39  1  0.39059937  0.90048801  0.89482276  1  0  0.105647  0  0.970803  0  0  0.114634  0  1.036734  0  0  0.116868  0  1.037523  0  0.06435  0  0.106761  0.113024  0  1.036373  0
H  H40  1  0.57939836  0.27453849  0.89112286  1  0  0.082784  0  0.971215  0  0  0.087249  0  1.040487  0  0  0.089952  0  1.037975  0  0.121764  0  0.11646  0.085214  0  1.042254  0
H  H41  1  0.42060673  0.72546350  0.10886949  1  0  0.082838  0  0.971151  0  0  0.087299  0  1.040432  0  0  0.090001  0  1.03792  0  0.121772  0  0.116496  0.085264  0  1.042201  0
H  H42  1  0.72734095  0.04405996  0.75018615  1  0  0.092461  0  0.953106  0  0  0.09882  0  1.020834  0  0  0.101785  0  1.017334  0  0.138661  0  0.119705  0.096545  0  1.023549  0
H  H43  1  0.27266346  0.95593727  0.24981009  1  0  0.092421  0  0.953182  0  0  0.098785  0  1.02091  0  0  0.10175  0  1.017409  0  0.138773  0  0.119721  0.096509  0  1.023625  0
H  H44  1  0.76336282  0.85710905  0.96118891  1  0  0.1138  0  0.95388  0  0  0.125404  0  1.012367  0  0  0.128123  0  1.012058  0  0.071797  0  0.109638  0.123374  0  1.012905  0
H  H45  1  0.23663643  0.14289103  0.03880773  1  0  0.113782  0  0.953879  0  0  0.125388  0  1.012367  0  0  0.128108  0  1.012053  0  0.071869  0  0.109631  0.123354  0  1.012915  0
C  C46  1  0.42039899  0.76302018  0.52059860  1  0  0.642283  0  3.915526  0  0  0.589808  0  4.213951  0  0  0.623808  0  4.206931  0  1.57426  0  0.20801  0.566796  0  4.217404  0
C  C47  1  0.57960523  0.23697990  0.47940106  1  0  0.642304  0  3.915694  0  0  0.589777  0  4.214186  0  0  0.623776  0  4.207168  0  1.574131  0  0.207994  0.566769  0  4.217633  0
C  C48  1  0.48580734  0.73436025  0.63789151  1  0  -0.064467  0  3.739742  0  0  -0.048864  0  3.975056  0  0  -0.05526  0  3.997211  0  0.007862  0  -0.013629  -0.045004  0  3.960411  0
C  C49  1  0.51419781  0.26564078  0.36210607  1  0  -0.064379  0  3.73962  0  0  -0.048763  0  3.974937  0  0  -0.055152  0  3.997078  0  0.008348  0  -0.013535  -0.044909  0  3.960296  0
C  C50  1  0.53272593  0.60959990  0.72329313  1  0  -0.144582  0  3.692038  0  0  -0.140119  0  3.933827  0  0  -0.144649  0  3.951476  0  -0.071053  0  -0.010561  -0.13719  0  3.922245  0
C  C51  1  0.46727922  0.39040113  0.27670445  1  0  -0.14468  0  3.691929  0  0  -0.140248  0  3.933763  0  0  -0.144777  0  3.951403  0  -0.071443  0  -0.010639  -0.137316  0  3.922182  0
C  C52  1  0.59372755  0.58868237  0.83034274  1  0  0.241891  0  3.767512  0  0  0.226892  0  4.032986  0  0  0.235131  0  4.049331  0  0.480993  0  0.08153  0.221269  0  4.021728  0
C  C53  1  0.40626996  0.41131390  0.16965738  1  0  0.242108  0  3.767228  0  0  0.227102  0  4.032706  0  0  0.235339  0  4.049056  0  0.480952  0  0.081611  0.221479  0  4.021448  0
C  C54  1  0.61282576  0.68806682  0.85265216  1  0  -0.156478  0  3.728501  0  0  -0.182847  0  3.985902  0  0  -0.184821  0  4.00245  0  -0.080757  0  -0.094265  -0.18159  0  3.975059  0
C  C55  1  0.38717287  0.31192755  0.14735122  1  0  -0.156606  0  3.728599  0  0  -0.182983  0  3.985979  0  0  -0.184957  0  4.002528  0  -0.080697  0  -0.094285  -0.181725  0  3.975136  0
C  C56  1  0.56928126  0.81175853  0.76556667  1  0  -0.052985  0  3.772632  0  0  -0.063869  0  4.025023  0  0  -0.065162  0  4.044717  0  -0.01348  0  -0.090894  -0.063005  0  4.012204  0
C  C57  1  0.43071818  0.18823869  0.23443691  1  0  -0.052856  0  3.772643  0  0  -0.063724  0  4.02503  0  0  -0.06502  0  4.044725  0  -0.013694  0  -0.090842  -0.062861  0  4.012209  0
C  C58  1  0.50445298  0.83435617  0.66014379  1  0  -0.067779  0  3.731207  0  0  -0.099762  0  3.989072  0  0  -0.099138  0  4.007019  0  0.018557  0  -0.085458  -0.100045  0  3.977254  0
C  C59  1  0.49555018  0.16564487  0.33985465  1  0  -0.067884  0  3.73113  0  0  -0.099892  0  3.989006  0  0  -0.099274  0  4.006954  0  0.018652  0  -0.085558  -0.100173  0  3.977188  0
C  C60  1  0.52676736  0.49703271  0.70370207  1  0  0.713164  0  3.874427  0  0  0.648979  0  4.189665  0  0  0.686136  0  4.176206  0  1.630912  0  0.22233  0.623637  0  4.198238  0
C  C61  1  0.47323394  0.50296642  0.29629576  1  0  0.713236  0  3.874226  0  0  0.649072  0  4.189416  0  0  0.686229  0  4.175959  0  1.630788  0  0.22241  0.623729  0  4.197988  0
C  C62  1  0.75761774  0.42388708  0.95591543  1  0  0.273925  0  3.780895  0  0  0.266449  0  4.05046  0  0  0.27414  0  4.066191  0  0.434844  0  0.08907  0.260798  0  4.039811  0
C  C63  1  0.24238057  0.57611205  0.04408568  1  0  0.273889  0  3.780902  0  0  0.266453  0  4.050441  0  0  0.274145  0  4.06617  0  0.435141  0  0.089112  0.260802  0  4.03979  0
C  C64  1  0.77692546  0.32579129  0.07678144  1  0  -0.142665  0  3.651423  0  0  -0.183247  0  3.907426  0  0  -0.18212  0  3.923667  0  0.006851  0  -0.0827  -0.183754  0  3.896782  0
C  C65  1  0.22307378  0.67420879  0.92322077  1  0  -0.142576  0  3.651495  0  0  -0.18323  0  3.907503  0  0  -0.182106  0  3.923743  0  0.007187  0  -0.082727  -0.183737  0  3.896861  0
C  C66  1  0.90649841  0.27542522  0.11845922  1  0  -0.057672  0  3.780168  0  0  -0.029096  0  4.009576  0  0  -0.037942  0  4.032997  0  -0.080474  0  -0.01685  -0.02342  0  3.993841  0
C  C67  1  0.09350176  0.72457582  0.88154410  1  0  -0.0578  0  3.780372  0  0  -0.029131  0  4.009698  0  0  -0.037975  0  4.033117  0  -0.080888  0  -0.016797  -0.023457  0  3.993965  0
C  C68  1  0.01549009  0.32230631  0.03891654  1  0  -0.082003  0  3.707043  0  0  -0.125509  0  3.959693  0  0  -0.12328  0  3.979242  0  -0.01453  0  -0.081333  -0.126621  0  3.946513  0
C  C69  1  0.98451095  0.67769663  0.96108583  1  0  -0.081988  0  3.707107  0  0  -0.125528  0  3.959763  0  0  -0.123302  0  3.979314  0  -0.014612  0  -0.081355  -0.126639  0  3.946586  0
C  C70  1  0.99529367  0.42100785  0.91840312  1  0  -0.058844  0  3.782228  0  0  -0.032695  0  4.017819  0  0  -0.041124  0  4.042568  0  0.014769  0  -0.018183  -0.027413  0  4.001159  0
C  C71  1  0.00470843  0.57899414  0.08159728  1  0  -0.058793  0  3.782253  0  0  -0.032643  0  4.017842  0  0  -0.041068  0  4.042588  0  0.014838  0  -0.018203  -0.027364  0  4.001188  0
C  C72  1  0.86589667  0.47332262  0.87668914  1  0  -0.163828  0  3.683966  0  0  -0.202491  0  3.940659  0  0  -0.203488  0  3.958632  0  0.007109  0  -0.082863  -0.201383  0  3.928339  0
C  C73  1  0.13410263  0.52667651  0.12331273  1  0  -0.163886  0  3.68408  0  0  -0.202579  0  3.940766  0  0  -0.203573  0  3.958729  0  0.007061  0  -0.082901  -0.201469  0  3.928446  0
C  C74  1  0.10932957  0.47344454  0.83040627  1  0  0.637234  0  3.841245  0  0  0.589483  0  4.141077  0  0  0.621485  0  4.133931  0  1.555342  0  0.224076  0.567787  0  4.145428  0
C  C75  1  0.89066861  0.52655650  0.16959393  1  0  0.637288  0  3.841309  0  0  0.589546  0  4.141125  0  0  0.621548  0  4.133979  0  1.55492  0  0.224108  0.567852  0  4.145475  0
C  C76  1  0.93250910  0.17597886  0.24843642  1  0  0.649093  0  3.810385  0  0  0.601936  0  4.107813  0  0  0.634812  0  4.098677  0  1.491821  0  0.232414  0.579622  0  4.113359  0
C  C77  1  0.06748776  0.82402694  0.75156472  1  0  0.649121  0  3.810604  0  0  0.601936  0  4.108037  0  0  0.634811  0  4.098897  0  1.492267  0  0.23237  0.579623  0  4.113589  0
C  C78  1  0.08955485  0.75935137  0.44186450  1  0  0.149744  0  3.70135  0  0  0.11617  0  3.952258  0  0  0.124646  0  3.969987  0  0.402922  0  0.049146  0.111169  0  3.939623  0
C  C79  1  0.91044571  0.24064395  0.55814154  1  0  0.149713  0  3.701362  0  0  0.116144  0  3.952282  0  0  0.124616  0  3.970005  0  0.402699  0  0.049153  0.111158  0  3.939652  0
C  C80  1  0.95319040  0.77953838  0.45213068  1  0  -0.165047  0  3.695735  0  0  -0.182153  0  3.939854  0  0  -0.191356  0  3.96158  0  0.018597  0  -0.081731  -0.175993  0  3.92476  0
C  C81  1  0.04680910  0.22045790  0.54787256  1  0  -0.165046  0  3.695816  0  0  -0.182154  0  3.939957  0  0  -0.191355  0  3.961684  0  0.018791  0  -0.081707  -0.175994  0  3.924857  0
C  C82  1  0.86504297  0.72129751  0.41514417  1  0  0.169872  0  3.711258  0  0  0.186842  0  3.944776  0  0  0.193082  0  3.966256  0  0.011342  0  0.019722  0.182827  0  3.930191  0
C  C83  1  0.13495621  0.27870352  0.58485361  1  0  0.169979  0  3.711298  0  0  0.186956  0  3.944791  0  0  0.193195  0  3.966274  0  0.011219  0  0.019753  0.182939  0  3.930203  0
C  C84  1  0.92034975  0.63844270  0.37504512  1  0  -0.17735  0  3.709165  0  0  -0.193842  0  3.954029  0  0  -0.202856  0  3.975949  0  -0.010616  0  -0.085654  -0.188497  0  3.939831  0
C  C85  1  0.07964750  0.36155739  0.62495318  1  0  -0.177426  0  3.709148  0  0  -0.193926  0  3.954006  0  0  -0.20294  0  3.975929  0  -0.010436  0  -0.085677  -0.188579  0  3.939811  0
C  C86  1  0.05779456  0.62327887  0.36617667  1  0  0.129491  0  3.719995  0  0  0.097177  0  3.969908  0  0  0.104833  0  3.989264  0  0.423828  0  0.043586  0.092329  0  3.956966  0
C  C87  1  0.94220176  0.37672026  0.63382292  1  0  0.129494  0  3.719936  0  0  0.097204  0  3.969865  0  0  0.104852  0  3.989217  0  0.423905  0  0.043574  0.092353  0  3.956925  0
C  C88  1  0.71821713  0.75369006  0.40967067  1  0  -0.171474  0  3.686334  0  0  -0.215139  0  3.936951  0  0  -0.217043  0  3.948796  0  -0.009656  0  -0.161896  -0.213671  0  3.928232  0
C  C89  1  0.28178285  0.24631383  0.59032492  1  0  -0.171531  0  3.686479  0  0  -0.215182  0  3.937051  0  0  -0.217088  0  3.948897  0  -0.00989  0  -0.161877  -0.213724  0  3.928365  0
C  C90  1  0.68013441  0.87266528  0.28580049  1  0  -0.090608  0  3.665176  0  0  -0.128732  0  3.922253  0  0  -0.129617  0  3.936677  0  -0.043305  0  -0.163151  -0.127917  0  3.91224  0
C  C91  1  0.31986364  0.12733766  0.71420039  1  0  -0.090657  0  3.665293  0  0  -0.128797  0  3.922347  0  0  -0.129665  0  3.936744  0  -0.043384  0  -0.163149  -0.127977  0  3.912327  0
C  C92  1  0.71223694  0.85025909  0.17815546  1  0  -0.178747  0  3.713245  0  0  -0.219217  0  3.958525  0  0  -0.221424  0  3.970731  0  -0.039102  0  -0.163263  -0.217598  0  3.949832  0
C  C93  1  0.28775614  0.14974385  0.82184321  1  0  -0.178736  0  3.713294  0  0  -0.219273  0  3.958645  0  0  -0.221485  0  3.970857  0  -0.006462  0  -0.163263  -0.217649  0  3.949944  0
C  C94  1  0.68913171  0.96174145  0.05227584  1  0  0.176321  0  3.704709  0  0  0.190196  0  3.940098  0  0  0.197348  0  3.961071  0  -0.084435  0  0.020923  0.185754  0  3.925629  0
C  C95  1  0.31086554  0.03825863  0.94772008  1  0  0.176315  0  3.704773  0  0  0.190226  0  3.940091  0  0  0.19738  0  3.961064  0  -0.0841  0  0.020887  0.185782  0  3.925622  0
C  C96  1  0.63683564  0.08152140  0.03015148  1  0  -0.17833  0  3.706339  0  0  -0.194991  0  3.950447  0  0  -0.204832  0  3.973808  0  0.023412  0  -0.08722  -0.188783  0  3.934924  0
C  C97  1  0.36316247  0.91848059  0.96984190  1  0  -0.178367  0  3.706602  0  0  -0.195007  0  3.950677  0  0  -0.204851  0  3.974037  0  0.022863  0  -0.087247  -0.188798  0  3.935154  0
C  C98  1  0.62004987  0.18057820  0.91041326  1  0  0.141676  0  3.697101  0  0  0.110487  0  3.945757  0  0  0.119032  0  3.963487  0  0.475504  0  0.047384  0.104985  0  3.933825  0
C  C99  1  0.37995329  0.81942283  0.08958120  1  0  0.141726  0  3.697028  0  0  0.110536  0  3.945676  0  0  0.119084  0  3.963401  0  0.475493  0  0.047395  0.105033  0  3.933744  0
C  C100  1  0.70310248  0.05107660  0.83222964  1  0  0.118675  0  3.720777  0  0  0.084456  0  3.974946  0  0  0.092206  0  3.993205  0  0.419573  0  0.042332  0.079608  0  3.962482  0
C  C101  1  0.29690174  0.94892349  0.16776683  1  0  0.118821  0  3.720771  0  0  0.084613  0  3.974949  0  0  0.092366  0  3.993204  0  0.419764  0  0.042349  0.079766  0  3.962485  0
C  C102  1  0.72206863  0.94836536  0.94924741  1  0  -0.173821  0  3.699012  0  0  -0.188311  0  3.940985  0  0  -0.19769  0  3.963229  0  0.033047  0  -0.083784  -0.182373  0  3.926014  0
C  C103  1  0.27793062  0.05163473  0.05074923  1  0  -0.173871  0  3.698951  0  0  -0.188383  0  3.940939  0  0  -0.197762  0  3.963181  0  0.032832  0  -0.083796  -0.182445  0  3.925964  0
N  N104  1  0.14131404  0.68462470  0.39692206  1  0  -0.352586  0  3.320512  0  0  -0.266339  0  3.598375  0  0  -0.287041  0  3.613372  0  -1.264385  0  -0.340529  -0.252712  0  3.587681  0
N  N105  1  0.85868838  0.31537253  0.60307983  1  0  -0.352546  0  3.320565  0  0  -0.266356  0  3.598492  0  0  -0.287037  0  3.613467  0  -1.264577  0  -0.340552  -0.252726  0  3.587792  0
N  N106  1  0.65239783  0.16634015  0.81257557  1  0  -0.351249  0  3.326796  0  0  -0.265037  0  3.610292  0  0  -0.285563  0  3.624137  0  -1.265882  0  -0.338943  -0.251448  0  3.601004  0
N  N107  1  0.34760931  0.83366088  0.18741955  1  0  -0.351393  0  3.326795  0  0  -0.265214  0  3.61035  0  0  -0.285741  0  3.62419  0  -1.265971  0  -0.338985  -0.251625  0  3.601062  0
O  O108  1  0.36478698  0.87057086  0.45243119  1  0  -0.615673  0  1.90339  0  0  -0.571363  0  2.126487  0  0  -0.593534  0  2.117148  0  -1.192832  0  -0.322859  -0.555734  0  2.132424  0
O  O109  1  0.63521718  0.12943017  0.54756880  1  0  -0.615716  0  1.903526  0  0  -0.571394  0  2.126658  0  0  -0.593568  0  2.117319  0  -1.192887  0  -0.322897  -0.555759  0  2.13259  0
O  O110  1  0.42974171  0.66857319  0.49876627  1  0  -0.635111  0  2.101933  0  0  -0.549842  0  2.378132  0  0  -0.579474  0  2.362024  0  -1.150986  0  -0.319287  -0.528985  0  2.387644  0
O  O111  1  0.57025547  0.33142784  0.50123158  1  0  -0.635122  0  2.102092  0  0  -0.5498  0  2.378267  0  0  -0.579435  0  2.362163  0  -1.150901  0  -0.31923  -0.528941  0  2.387775  0
O  O112  1  0.42670238  0.43081705  0.73689514  1  0  -0.616207  0  1.985439  0  0  -0.565471  0  2.221399  0  0  -0.5899  0  2.207875  0  -1.19161  0  -0.303684  -0.548265  0  2.229767  0
O  O113  1  0.57329680  0.56918399  0.26310423  1  0  -0.616237  0  1.985392  0  0  -0.565512  0  2.221359  0  0  -0.589934  0  2.207822  0  -1.19159  0  -0.3037  -0.548307  0  2.229727  0
O  O114  1  0.63591523  0.47006718  0.66192329  1  0  -0.631317  0  2.035535  0  0  -0.552805  0  2.31266  0  0  -0.581838  0  2.295917  0  -1.163856  0  -0.318818  -0.532531  0  2.323496  0
O  O115  1  0.36408295  0.52993386  0.33807213  1  0  -0.63136  0  2.035361  0  0  -0.552847  0  2.312479  0  0  -0.581881  0  2.295739  0  -1.163808  0  -0.318884  -0.532573  0  2.323313  0
O  O116  1  0.09462188  0.56439987  0.72590249  1  0  -0.546277  0  1.911305  0  0  -0.510969  0  2.125844  0  0  -0.530261  0  2.11982  0  -1.152011  0  -0.295179  -0.497884  0  2.129681  0
O  O117  1  0.90537630  0.43560117  0.27409533  1  0  -0.546349  0  1.911447  0  0  -0.511042  0  2.12598  0  0  -0.530334  0  2.119952  0  -1.151988  0  -0.29523  -0.497958  0  2.129815  0
O  O118  1  0.22635512  0.40939663  0.87630557  1  0  -0.571566  0  2.109107  0  0  -0.51982  0  2.336354  0  0  -0.542804  0  2.321208  0  -1.176838  0  -0.335549  -0.503591  0  2.345594  0
O  O119  1  0.77364493  0.59060631  0.12369286  1  0  -0.571595  0  2.109061  0  0  -0.519831  0  2.336287  0  0  -0.542814  0  2.321147  0  -1.176425  0  -0.335533  -0.503602  0  2.345524  0
O  O120  1  0.04323005  0.13043214  0.29228617  1  0  -0.543991  0  1.87274  0  0  -0.507168  0  2.067525  0  0  -0.526063  0  2.059659  0  -1.139467  0  -0.297313  -0.49419  0  2.072887  0
O  O121  1  0.95677472  0.86957461  0.70771744  1  0  -0.543888  0  1.873007  0  0  -0.507082  0  2.067822  0  0  -0.525972  0  2.059955  0  -1.139829  0  -0.297274  -0.494103  0  2.073183  0
O  O122  1  0.81787626  0.14058327  0.31486843  1  0  -0.537254  0  2.0789  0  0  -0.494649  0  2.295031  0  0  -0.514902  0  2.281025  0  -1.124425  0  -0.325045  -0.480281  0  2.304341  0
O  O123  1  0.18212491  0.85941777  0.68513406  1  0  -0.537296  0  2.078842  0  0  -0.494666  0  2.294962  0  0  -0.514921  0  2.280958  0  -1.124405  0  -0.325038  -0.480289  0  2.304248  0
O  O124  1  0.62659635  0.46281719  0.91974584  1  0  -0.304563  0  2.357933  0  0  -0.23611  0  2.585244  0  0  -0.254019  0  2.589088  0  -1.103664  0  -0.155671  -0.223277  0  2.581804  0
O  O125  1  0.37340315  0.53717908  0.08025581  1  0  -0.304624  0  2.357894  0  0  -0.236165  0  2.58519  0  0  -0.254076  0  2.589037  0  -1.103617  0  -0.155662  -0.22333  0  2.581746  0
