# generated using pymatgen
data_Zn2H21C23BrN2O9
_symmetry_space_group_name_H-M   'P 1'
_cell_length_a   9.77227027
_cell_length_b   11.15314796
_cell_length_c   16.08880339
_cell_angle_alpha   88.77951545
_cell_angle_beta   90.39079779
_cell_angle_gamma   87.75172006
_symmetry_Int_Tables_number   1
_chemical_formula_structural   Zn2H21C23BrN2O9
_chemical_formula_sum   'Zn2 H21 C23 Br1 N2 O9'
_cell_volume   1751.74522423
_cell_formula_units_Z   1
loop_
 _symmetry_equiv_pos_site_id
 _symmetry_equiv_pos_as_xyz
  1  'x, y, z'
loop_
 _atom_site_type_symbol
 _atom_site_label
 _atom_site_symmetry_multiplicity
 _atom_site_fract_x
 _atom_site_fract_y
 _atom_site_fract_z
 _atom_site_occupancy
 _atom_site_pbe_bader_charge
 _atom_site_pbe_bader_spin_density
 _atom_site_pbe_cm5_charge
 _atom_site_pbe_ddec_charge
 _atom_site_pbe_ddec_spin_density
 _atom_site_pbe_ddec_sum_bond_order
 _atom_site_pbe_magmom
Zn  Zn0  1  0.63540581  0.49410957  0.50047682  1  1.301105  0  0.663155  0.87536  0  2.406682  0
Zn  Zn1  1  0.35240541  0.50722138  0.49903813  1  1.295587  0  0.660846  0.841952  0  2.433876  0
H  H2  1  0.67501781  0.61562855  0.93677158  1  0.02362  0  0.094574  0.094882  0  0.975268  0
H  H3  1  0.13812973  0.35180234  0.56389364  1  0.157786  0  0.144731  0.127158  0  0.956623  0
H  H4  1  0.68100478  0.58890719  0.08186743  1  0.021508  0  0.099829  0.103931  0  0.968197  0
H  H5  1  0.08292196  0.59190977  0.49197998  1  0.438472  0  0.324618  0.292178  0  0.897629  0
H  H6  1  0.29791204  0.58786105  0.07188903  1  0.05986  0  0.089276  0.095633  0  0.999389  0
H  H7  1  0.44066849  0.68029216  0.07021555  1  0.045823  0  0.096627  0.100474  0  0.968048  0
H  H8  1  0.42428089  0.68414390  0.92453778  1  0.02664  0  0.094946  0.095294  0  0.9749  0
H  H9  1  0.29739427  0.57555181  0.92704201  1  0.040799  0  0.092509  0.093236  0  0.979122  0
H  H10  1  0.51427721  0.29798528  0.07333267  1  0.081587  0  0.105025  0.089386  0  0.958525  0
H  H11  1  0.53752715  0.30657188  0.92946739  1  0.043833  0  0.09879  0.107589  0  0.965589  0
H  H12  1  0.93557519  0.47954973  0.72401874  1  0.09383  0  0.117553  0.125376  0  0.962278  0
H  H13  1  0.70866180  0.43268707  0.07312187  1  0.033788  0  0.095393  0.095346  0  0.975986  0
H  H14  1  0.05576020  0.36277409  0.69255630  1  0.066828  0  0.111698  0.111705  0  0.996252  0
H  H15  1  0.89667631  0.32494357  0.74025495  1  0.087267  0  0.125007  0.137285  0  0.953359  0
H  H16  1  0.72347374  0.46218097  0.92867557  1  0.019789  0  0.091303  0.088245  0  0.983639  0
H  H17  1  0.36355617  0.35473871  0.92086388  1  0.073171  0  0.09415  0.106883  0  0.995137  0
H  H18  1  0.28336051  0.11235327  0.47726901  1  0.096948  0  0.104175  0.100941  0  0.988092  0
H  H19  1  0.58229267  0.09524449  0.53943373  1  0.080433  0  0.106175  0.124096  0  0.991824  0
H  H20  1  0.28964286  0.89113503  0.50514743  1  0.102329  0  0.104356  0.102422  0  0.989757  0
H  H21  1  0.59777510  0.90339938  0.46970176  1  0.083179  0  0.10634  0.123904  0  0.991767  0
H  H22  1  0.89036249  0.49921334  0.44117472  1  0.441435  0  0.323605  0.31484  0  0.906913  0
C  C23  1  0.49661288  0.73308341  0.48852263  1  1.559994  0  0.205098  0.633374  0  4.183808  0
C  C24  1  0.48443893  0.13522608  0.51779979  1  -0.084635  0  -0.092576  -0.224933  0  3.892376  0
C  C25  1  0.38581639  0.93639464  0.49589802  1  -0.090221  0  -0.076054  -0.029061  0  4.000275  0
C  C26  1  0.49289924  0.48892346  0.33761068  1  1.639885  0  0.216697  0.676705  0  4.229505  0
C  C27  1  0.49907165  0.86588297  0.48409561  1  -0.052076  0  -0.091976  -0.224557  0  3.880538  0
C  C28  1  0.92585151  0.43431139  0.55288903  1  1.336073  0  0.261735  0.429758  0  4.073896  0
C  C29  1  0.07774787  0.43210489  0.54317448  1  0.716135  0  0.121476  0.095899  0  3.854102  0
C  C30  1  0.47663615  0.26810752  0.51335189  1  1.518078  0  0.205338  0.630997  0  4.189909  0
C  C31  1  0.49669057  0.50951412  0.66250805  1  1.653625  0  0.212946  0.675697  0  4.23962  0
C  C32  1  0.64320060  0.50948524  0.05121942  1  -0.014367  0  -0.150958  -0.18472  0  3.839318  0
C  C33  1  0.40125731  0.59643712  0.04678920  1  -0.080411  0  -0.158082  -0.188419  0  3.85095  0
C  C34  1  0.64688734  0.52459225  0.95555108  1  0.010124  0  -0.15549  -0.190291  0  3.864019  0
C  C35  1  0.39932629  0.59602746  0.95081105  1  0.006067  0  -0.154154  -0.184448  0  3.845703  0
C  C36  1  0.50114866  0.50717869  0.75263678  1  0.169863  0  -0.064914  -0.21662  0  4.002282  0
C  C37  1  0.49420305  0.49150471  0.08176538  1  0.165161  0  -0.002677  0.140476  0  3.906142  0
C  C38  1  0.94679561  0.38878724  0.69915144  1  0.354753  0  -0.114724  -0.178434  0  3.837667  0
C  C39  1  0.50440090  0.50047460  0.91851418  1  0.141561  0  -0.000387  0.180192  0  3.898721  0
C  C40  1  0.46165175  0.37505205  0.94973653  1  -0.054022  0  -0.157827  -0.234276  0  3.849594  0
C  C41  1  0.45115047  0.37152772  0.04517151  1  -0.004772  0  -0.056257  0.041451  0  3.657624  0
C  C42  1  0.50515560  0.50411267  0.82823010  1  -0.487642  0  -0.036942  -0.061151  0  4.05364  0
C  C43  1  0.49183907  0.48757077  0.17205984  1  -0.468422  0  -0.039171  -0.060903  0  4.064115  0
C  C44  1  0.49282187  0.48751475  0.24756955  1  0.167712  0  -0.056765  -0.197872  0  3.9805  0
C  C45  1  0.38029951  0.06653791  0.49554547  1  0.050729  0  -0.076483  -0.031481  0  4.008323  0
Br  Br46  1  0.26351952  0.33108729  0.08036043  1  -0.168745  0  -0.05335  -0.167531  0  1.218425  0
N  N47  1  0.84363232  0.47505597  0.49528529  1  -1.21785  0  -0.471199  -0.53958  0  3.228139  0
N  N48  1  0.14221507  0.51725620  0.50926570  1  -1.184354  0  -0.426987  -0.350487  0  3.257702  0
O  O49  1  0.61022565  0.67607007  0.47593654  1  -1.159375  0  -0.327287  -0.557826  0  2.254635  0
O  O50  1  0.38267756  0.68556774  0.50495436  1  -1.171612  0  -0.329304  -0.56426  0  2.306581  0
O  O51  1  0.60729889  0.46611854  0.37413307  1  -1.143218  0  -0.321058  -0.552558  0  2.23192  0
O  O52  1  0.37834551  0.51351522  0.37197177  1  -1.138544  0  -0.319321  -0.545515  0  2.237836  0
O  O53  1  0.58973175  0.31878665  0.52541344  1  -1.154545  0  -0.321922  -0.556782  0  2.295419  0
O  O54  1  0.36128513  0.32219484  0.49755180  1  -1.17946  0  -0.326639  -0.567528  0  2.296939  0
O  O55  1  0.60817561  0.53107140  0.62563978  1  -1.146323  0  -0.317015  -0.551005  0  2.259722  0
O  O56  1  0.38189646  0.48924934  0.62853073  1  -1.156329  0  -0.32487  -0.565359  0  2.246073  0
O  O57  1  0.87284367  0.38540802  0.62100210  1  -1.048462  0  -0.143585  -0.127069  0  2.548351  0
