# generated using pymatgen
data_CoH8(CN)10
_symmetry_space_group_name_H-M   'P 1'
_cell_length_a   6.35039523
_cell_length_b   7.26824493
_cell_length_c   13.55123524
_cell_angle_alpha   90.00083042
_cell_angle_beta   89.99986939
_cell_angle_gamma   96.07910512
_symmetry_Int_Tables_number   1
_chemical_formula_structural   CoH8(CN)10
_chemical_formula_sum   'Co2 H16 C20 N20'
_cell_volume   621.95663168
_cell_formula_units_Z   2
loop_
 _symmetry_equiv_pos_site_id
 _symmetry_equiv_pos_as_xyz
  1  'x, y, z'
loop_
 _atom_site_type_symbol
 _atom_site_label
 _atom_site_symmetry_multiplicity
 _atom_site_fract_x
 _atom_site_fract_y
 _atom_site_fract_z
 _atom_site_occupancy
 _atom_site_hle17_ddec_charge
 _atom_site_hle17_ddec_spin_density
 _atom_site_hle17_ddec_sum_bond_order
 _atom_site_hle17_magmom
 _atom_site_hse06_10hf_ddec_charge
 _atom_site_hse06_10hf_ddec_spin_density
 _atom_site_hse06_10hf_ddec_sum_bond_order
 _atom_site_hse06_10hf_magmom
 _atom_site_hse06_ddec_charge
 _atom_site_hse06_ddec_spin_density
 _atom_site_hse06_ddec_sum_bond_order
 _atom_site_hse06_magmom
 _atom_site_pbe_cm5_charge
 _atom_site_pbe_ddec_charge
 _atom_site_pbe_ddec_spin_density
 _atom_site_pbe_ddec_sum_bond_order
 _atom_site_pbe_magmom
Co  Co0  1  0.00000843  0.49999883  0.00000013  1  0.789779  -1.073997  2.721753  -0.982  0.791965  -1.000624  3.154025  -0.928  0.843911  -1.009201  3.086097  -0.946  0.752459  0.762228  -0.984763  3.196143  -0.903
Co  Co1  1  0.99999586  0.00000741  0.50000019  1  0.789766  -1.073999  2.721768  -0.982  0.791892  -1.00061  3.154071  -0.928  0.843859  -1.009198  3.086136  -0.946  0.752425  0.762178  -0.984748  3.196185  -0.903
H  H2  1  0.51962068  0.54667653  0.70821252  1  0.287722  0.000156  0.936377  0.0  0.266628  3.2e-05  0.999625  0.0  0.273715  2.7e-05  0.994809  0.0  0.310756  0.261647  2.7e-05  1.003039  0.0
H  H3  1  0.48036746  0.95332344  0.20820957  1  0.287746  0.000156  0.936305  0.0  0.266624  3.2e-05  0.99955  0.0  0.273714  2.7e-05  0.994725  0.0  0.310761  0.26165  2.7e-05  1.002974  0.0
H  H4  1  0.48038120  0.45332528  0.29178888  1  0.287662  0.000156  0.936391  0.0  0.266536  3.2e-05  0.999645  0.0  0.27362  2.7e-05  0.994834  0.0  0.310718  0.261574  2.7e-05  1.003049  0.0
H  H5  1  0.51963284  0.04667835  0.79179553  1  0.287739  0.000156  0.93628  0.0  0.266618  3.1e-05  0.999532  0.0  0.273704  2.7e-05  0.994714  0.0  0.310748  0.261648  2.7e-05  1.00294  0.0
H  H6  1  0.55772390  0.56755313  0.89856128  1  0.102189  2.8e-05  0.967523  0.0  0.107307  5.6e-05  1.036224  0.0  0.108811  8.7e-05  1.034173  0.0  0.13287  0.106101  2e-05  1.037885  0.0
H  H7  1  0.44227897  0.93244233  0.39855895  1  0.102205  2.7e-05  0.967468  0.0  0.107319  5.6e-05  1.036178  0.0  0.108825  8.8e-05  1.034125  0.0  0.132842  0.106111  2e-05  1.03784  0.0
H  H8  1  0.44229781  0.43242815  0.10143865  1  0.102199  2.8e-05  0.967536  0.0  0.107286  5.6e-05  1.036266  0.0  0.10879  8.7e-05  1.034216  0.0  0.132874  0.106085  2e-05  1.037914  0.0
H  H9  1  0.55771188  0.06755937  0.60144393  1  0.102244  2.8e-05  0.967478  0.0  0.107384  5.6e-05  1.036146  0.0  0.108889  8.7e-05  1.034094  0.0  0.132917  0.106178  2e-05  1.037803  0.0
H  H10  1  0.85002331  0.45351651  0.62745839  1  0.104523  0.000415  0.966161  0.0  0.114031  0.00021  1.027462  0.0  0.114761  0.000169  1.028239  0.0  0.119464  0.113415  0.000233  1.02713  0.0
H  H11  1  0.14996851  0.04648118  0.12745635  1  0.104487  0.000415  0.965935  0.0  0.113993  0.00021  1.027257  0.0  0.114724  0.000168  1.028031  0.0  0.119448  0.113378  0.000233  1.026926  0.0
H  H12  1  0.14997961  0.54649498  0.37253416  1  0.104406  0.000416  0.96607  0.0  0.113913  0.00021  1.027397  0.0  0.11464  0.000168  1.028179  0.0  0.119469  0.113298  0.000233  1.027063  0.0
H  H13  1  0.85003766  0.95351653  0.87254136  1  0.104473  0.000416  0.966053  0.0  0.113983  0.00021  1.027363  0.0  0.114714  0.000168  1.028137  0.0  0.119454  0.113367  0.000233  1.027033  0.0
H  H14  1  0.13369107  0.42002607  0.78137758  1  0.102694  3.7e-05  0.962305  0.0  0.109953  8.4e-05  1.02501  0.0  0.111316  7e-05  1.024933  0.0  0.116198  0.108953  9.1e-05  1.025213  0.0
H  H15  1  0.86629641  0.07996458  0.28138511  1  0.102764  3.8e-05  0.962156  0.0  0.110012  8.4e-05  1.024868  0.0  0.111381  7e-05  1.024795  0.0  0.116216  0.109009  9.1e-05  1.025076  0.0
H  H16  1  0.86631328  0.57998406  0.21861423  1  0.102737  3.8e-05  0.962139  0.0  0.109978  8.4e-05  1.02486  0.0  0.111355  6.9e-05  1.024776  0.0  0.116217  0.108975  9.1e-05  1.025068  0.0
H  H17  1  0.13369783  0.92002472  0.71861703  1  0.102803  3.8e-05  0.96217  0.0  0.110058  8.4e-05  1.024859  0.0  0.111428  6.9e-05  1.024788  0.0  0.116242  0.109059  9e-05  1.025059  0.0
C  C18  1  0.67781646  0.53115418  0.84729856  1  0.203527  0.009748  3.627372  0.007  0.147962  0.004086  3.901845  0.003  0.163549  0.003261  3.914751  0.002  0.139701  0.137522  0.004676  3.893196  0.003
C  C19  1  0.32218716  0.96884685  0.34729743  1  0.203381  0.009752  3.627309  0.007  0.147756  0.004087  3.90174  0.003  0.163341  0.003262  3.914647  0.002  0.139618  0.137339  0.004678  3.893097  0.003
C  C20  1  0.32219354  0.46883528  0.15270211  1  0.203514  0.009762  3.627303  0.007  0.147919  0.004093  3.901761  0.003  0.16351  0.003265  3.914659  0.002  0.13964  0.137495  0.004681  3.893129  0.003
C  C21  1  0.67780039  0.03115343  0.65270545  1  0.203393  0.009746  3.627288  0.007  0.147788  0.004089  3.901746  0.003  0.163371  0.003262  3.914653  0.002  0.139586  0.13737  0.004677  3.893104  0.003
C  C22  1  0.83477281  0.47267580  0.70615684  1  -0.002434  -0.000563  3.694824  -0.001  -0.043076  0.000149  3.96579  0.0  -0.041893  7.7e-05  3.986751  0.0  -4.3e-05  -0.043757  0.00017  3.951605  0.0
C  C23  1  0.16521841  0.02731843  0.20616717  1  -0.002344  -0.000563  3.695084  -0.001  -0.043046  0.000148  3.966013  0.0  -0.041856  7.6e-05  3.986971  0.0  -3e-05  -0.043711  0.00017  3.95184  0.0
C  C24  1  0.16523912  0.52733164  0.29382981  1  -0.002156  -0.000567  3.695179  -0.001  -0.042849  0.000148  3.966123  0.0  -0.041657  7.6e-05  3.987082  0.0  5.7e-05  -0.043513  0.000169  3.951949  0.0
C  C25  1  0.83478588  0.97267649  0.79383350  1  -0.002261  -0.000559  3.695406  -0.001  -0.042939  0.000149  3.966341  0.0  -0.041752  7.7e-05  3.987303  0.0  -1.4e-05  -0.043611  0.00017  3.952166  0.0
C  C26  1  0.97301582  0.45615959  0.78270910  1  -0.012251  0.004816  3.732364  0.004  -0.045255  0.002248  4.008578  0.002  -0.042586  0.001896  4.030841  0.001  -0.003478  -0.047198  0.002445  3.993782  0.002
C  C27  1  0.02697811  0.04383253  0.28270870  1  -0.012412  0.004808  3.732656  0.004  -0.045419  0.002248  4.008888  0.002  -0.042766  0.001896  4.031164  0.001  -0.003505  -0.047356  0.002445  3.994087  0.002
C  C28  1  0.02700956  0.54384108  0.21728640  1  -0.012246  0.004815  3.732675  0.004  -0.045223  0.00225  4.008873  0.002  -0.042575  0.001898  4.031154  0.001  -0.00347  -0.047162  0.002445  3.994068  0.002
C  C29  1  0.97300785  0.95616773  0.71728975  1  -0.012638  0.004802  3.733268  0.004  -0.045627  0.002247  4.009524  0.002  -0.042977  0.001897  4.031811  0.001  -0.003569  -0.047559  0.002444  3.994725  0.002
C  C30  1  0.28807070  0.86827083  0.92867137  1  0.464704  -0.009506  3.946835  -0.016  0.433017  -0.011092  4.239818  -0.018  0.456156  -0.009581  4.249895  -0.015  0.291849  0.417417  -0.012743  4.232776  -0.02
C  C31  1  0.71192272  0.63172533  0.42866920  1  0.464633  -0.009515  3.947378  -0.016  0.432927  -0.011091  4.240343  -0.018  0.456066  -0.009589  4.250429  -0.015  0.291793  0.417333  -0.012749  4.2333  -0.02
C  C32  1  0.71191027  0.13169760  0.07132414  1  0.464587  -0.009506  3.946749  -0.016  0.432901  -0.011079  4.239755  -0.018  0.456036  -0.009578  4.249832  -0.015  0.291742  0.417305  -0.012739  4.232713  -0.02
C  C33  1  0.28807022  0.36829574  0.57133368  1  0.464625  -0.009517  3.94694  -0.016  0.432933  -0.011081  4.23992  -0.018  0.45607  -0.009583  4.250003  -0.015  0.29174  0.417331  -0.012744  4.232878  -0.02
C  C34  1  0.23349676  0.17482125  0.93733279  1  0.476409  0.023292  3.948593  0.015  0.442307  0.00818  4.238715  0.005  0.470359  0.007087  4.245217  0.004  0.307579  0.422989  0.008427  4.234633  0.005
C  C35  1  0.76649941  0.32519570  0.43733874  1  0.47637  0.023328  3.948206  0.015  0.442253  0.008192  4.238297  0.005  0.470307  0.007094  4.244806  0.004  0.307534  0.422939  0.008434  4.234213  0.005
C  C36  1  0.76647998  0.82516648  0.06267083  1  0.476086  0.023334  3.948272  0.015  0.441995  0.008195  4.238446  0.005  0.470051  0.007095  4.244955  0.004  0.307524  0.422671  0.00844  4.234353  0.005
C  C37  1  0.23349338  0.67482398  0.56266341  1  0.475837  0.023308  3.948074  0.015  0.441716  0.008195  4.238256  0.005  0.469773  0.007097  4.244771  0.004  0.307313  0.422388  0.008438  4.234169  0.005
N  N38  1  0.87349967  0.49331809  0.87003051  1  -0.303492  0.020509  3.380054  0.014  -0.265312  0.010505  3.679384  0.007  -0.295558  0.010374  3.701105  0.008  -0.353326  -0.245624  0.009399  3.664412  0.006
N  N39  1  0.12649757  0.00667775  0.37002967  1  -0.303439  0.020514  3.38001  0.014  -0.265248  0.010504  3.679337  0.007  -0.295497  0.010374  3.701068  0.008  -0.353309  -0.24556  0.009399  3.664355  0.006
N  N40  1  0.12651393  0.50667555  0.12995909  1  -0.30368  0.020502  3.380392  0.014  -0.265516  0.010501  3.679767  0.007  -0.295759  0.010372  3.701485  0.008  -0.353464  -0.24582  0.009397  3.664785  0.006
N  N41  1  0.87349485  0.99332396  0.62997247  1  -0.303333  0.020518  3.379969  0.014  -0.265199  0.010505  3.679369  0.007  -0.295448  0.010374  3.701107  0.008  -0.353387  -0.245533  0.0094  3.664408  0.006
N  N42  1  0.65052034  0.51922093  0.74829575  1  -0.281703  0.001414  3.484483  0.001  -0.21658  0.000952  3.725898  0.001  -0.23255  0.000715  3.741792  0.0  -0.384666  -0.205843  0.001101  3.714938  0.001
N  N43  1  0.34946638  0.98078146  0.24829247  1  -0.281648  0.001416  3.484666  0.001  -0.216342  0.000952  3.725849  0.001  -0.23231  0.000715  3.741741  0.0  -0.384589  -0.205664  0.001102  3.714944  0.001
N  N44  1  0.34948425  0.48077676  0.25171082  1  -0.281711  0.001415  3.484558  0.001  -0.216454  0.000952  3.725844  0.001  -0.23242  0.000715  3.74173  0.0  -0.384622  -0.205782  0.001102  3.714945  0.001
N  N45  1  0.65052717  0.01921611  0.75170894  1  -0.281638  0.001414  3.484573  0.001  -0.216396  0.000952  3.72587  0.001  -0.23236  0.000715  3.741764  0.0  -0.384546  -0.205697  0.001102  3.71494  0.001
N  N46  1  0.26283079  0.70884692  0.94720559  1  -0.536084  -0.013004  2.808036  -0.022  -0.521838  -0.015123  3.085529  -0.022  -0.538865  -0.010512  3.089013  -0.016  -0.354267  -0.510476  -0.019919  3.083019  -0.027
N  N47  1  0.73717215  0.79116502  0.44721426  1  -0.536153  -0.012999  2.807802  -0.022  -0.521902  -0.015128  3.085306  -0.022  -0.538937  -0.01051  3.088801  -0.016  -0.354217  -0.51054  -0.019915  3.082789  -0.027
N  N48  1  0.73717359  0.29113419  0.05278991  1  -0.536115  -0.013  2.807342  -0.022  -0.521867  -0.015138  3.084842  -0.022  -0.538889  -0.010518  3.088329  -0.016  -0.354196  -0.510512  -0.019918  3.082334  -0.027
N  N49  1  0.26282754  0.20886026  0.55279306  1  -0.536171  -0.012992  2.807535  -0.022  -0.521917  -0.015139  3.085036  -0.022  -0.538945  -0.010517  3.088524  -0.016  -0.354203  -0.510561  -0.019915  3.08253  -0.027
N  N50  1  0.33009794  0.04058643  0.90121445  1  -0.479918  -6.9e-05  3.314754  -0.002  -0.422857  -0.001002  3.570337  -0.002  -0.4445  -0.000523  3.570901  -0.001  -0.315127  -0.40771  -0.001529  3.569767  -0.003
N  N51  1  0.66991414  0.45943111  0.40121127  1  -0.47985  -6e-05  3.315571  -0.002  -0.422719  -0.000994  3.571083  -0.002  -0.444353  -0.000507  3.571636  -0.001  -0.315198  -0.407592  -0.001531  3.570525  -0.003
N  N52  1  0.66989456  0.95940146  0.09879065  1  -0.47963  -6e-05  3.315446  -0.002  -0.422572  -0.000988  3.570986  -0.002  -0.44422  -0.000507  3.571572  -0.001  -0.315089  -0.407421  -0.001528  3.570409  -0.003
N  N53  1  0.33008772  0.54059972  0.59879161  1  -0.479558  -5.6e-05  3.315358  -0.002  -0.422473  -0.000983  3.570919  -0.002  -0.444101  -0.000496  3.571464  -0.001  -0.315051  -0.407329  -0.001529  3.570356  -0.003
N  N54  1  0.15542539  0.30530224  0.96441061  1  -0.520706  -0.000296  3.168121  -0.008  -0.50223  0.001013  3.485289  -0.001  -0.52464  0.001443  3.484818  -0.001  -0.383684  -0.488501  -3e-05  3.485658  -0.003
N  N55  1  0.84458423  0.19470865  0.46442278  1  -0.520685  -0.000316  3.167614  -0.008  -0.502224  0.001002  3.484855  -0.001  -0.524638  0.001432  3.484398  -0.001  -0.383567  -0.488499  -3.3e-05  3.485212  -0.003
N  N56  1  0.84457809  0.69467057  0.03559301  1  -0.520582  -0.000314  3.167603  -0.008  -0.502044  0.001003  3.484668  -0.001  -0.524455  0.001433  3.484205  -0.001  -0.383648  -0.488319  -3.1e-05  3.48504  -0.003
N  N57  1  0.15540817  0.80532208  0.53558306  1  -0.520366  -0.000303  3.167359  -0.008  -0.501823  0.000998  3.484452  -0.001  -0.524239  0.001428  3.484  -0.001  -0.38349  -0.488101  -3.2e-05  3.484822  -0.003
