# generated using pymatgen
data_NiH34C40(NO2)4
_symmetry_space_group_name_H-M   'P 1'
_cell_length_a   10.57480374
_cell_length_b   12.13312863
_cell_length_c   17.44571028
_cell_angle_alpha   110.69833922
_cell_angle_beta   89.33787898
_cell_angle_gamma   102.05820939
_symmetry_Int_Tables_number   1
_chemical_formula_structural   NiH34C40(NO2)4
_chemical_formula_sum   'Ni2 H68 C80 N8 O16'
_cell_volume   2042.95076969
_cell_formula_units_Z   2
loop_
 _symmetry_equiv_pos_site_id
 _symmetry_equiv_pos_as_xyz
  1  'x, y, z'
loop_
 _atom_site_type_symbol
 _atom_site_label
 _atom_site_symmetry_multiplicity
 _atom_site_fract_x
 _atom_site_fract_y
 _atom_site_fract_z
 _atom_site_occupancy
 _atom_site_pbe_bader_charge
 _atom_site_pbe_bader_spin_density
 _atom_site_pbe_cm5_charge
 _atom_site_pbe_ddec_charge
 _atom_site_pbe_ddec_spin_density
 _atom_site_pbe_ddec_sum_bond_order
 _atom_site_pbe_magmom
Ni  Ni0  1  0.50000338  0.50000286  0.99999816  1  1.050726  0.013505  0.61782  0.687902  0.015344  2.590118  0.016
Ni  Ni1  1  0.00000107  0.50000288  0.99999911  1  1.061275  0.014428  0.615822  0.702067  0.014866  2.558214  0.017
H  H2  1  0.40411393  0.36258213  0.06757955  1  0.639045  0.000199  0.2829  0.372839  0.000433  0.977547  0.0
H  H3  1  0.59589030  0.63743082  0.93242447  1  0.638977  0.000198  0.282882  0.372804  0.000432  0.977607  0.0
H  H4  1  0.28786151  0.42844587  0.05717287  1  0.639358  0.00014  0.291529  0.381204  0.000298  0.962086  0.0
H  H5  1  0.71213656  0.57156421  0.94282699  1  0.63936  0.00014  0.291583  0.381275  0.000298  0.961975  0.0
H  H6  1  0.90736367  0.35340814  0.06120224  1  0.657298  0.000187  0.282878  0.374809  0.000477  0.97344  0.0
H  H7  1  0.09263205  0.64659460  0.93879072  1  0.657236  0.000187  0.282835  0.374748  0.000477  0.973509  0.0
H  H8  1  0.78624308  0.41502612  0.05254451  1  0.640752  0.000214  0.288547  0.381058  0.000392  0.964966  0.0
H  H9  1  0.21375423  0.58497581  0.94745172  1  0.640709  0.000214  0.288535  0.381116  0.000391  0.964924  0.0
H  H10  1  0.87127486  0.87375959  0.21199154  1  0.109854  -0.000367  0.125581  0.126726  -0.000231  1.00233  0.0
H  H11  1  0.12872834  0.12625136  0.78800282  1  0.109952  -0.000367  0.125545  0.126657  -0.000231  1.002445  0.0
H  H12  1  0.62490385  0.14665399  0.76775066  1  0.114477  -0.000307  0.122399  0.122053  -0.000192  1.022481  0.0
H  H13  1  0.37511033  0.85335184  0.23224774  1  0.11484  -0.000306  0.122429  0.12204  -0.000192  1.022704  0.0
H  H14  1  0.15924422  0.47110425  0.81572950  1  0.106232  -2e-05  0.098049  0.086367  -3.3e-05  1.071452  0.0
H  H15  1  0.84076365  0.52890989  0.18428572  1  0.106294  -2e-05  0.098109  0.086417  -3.3e-05  1.07153  0.0
H  H16  1  0.35030318  0.37064452  0.83215993  1  0.186726  -0.000389  0.138359  0.10153  -0.000234  1.063478  0.0
H  H17  1  0.64970863  0.62935850  0.16783435  1  0.186804  -0.000388  0.138377  0.101569  -0.000234  1.063409  0.0
H  H18  1  0.68202737  0.30833559  0.92732054  1  0.174242  -0.000433  0.130726  0.139678  -0.000232  1.012965  0.0
H  H19  1  0.31797112  0.69166376  0.07267909  1  0.174176  -0.000432  0.130767  0.13971  -0.000232  1.012919  0.0
H  H20  1  0.99138072  0.33799506  0.55538675  1  0.073479  -1e-06  0.10009  0.110209  -0.0  1.034114  0.0
H  H21  1  0.00861630  0.66199555  0.44462460  1  0.073304  -1e-06  0.100107  0.110213  -0.0  1.034277  0.0
H  H22  1  0.81431260  0.69301228  0.05829980  1  0.204733  -0.000405  0.127928  0.139153  -0.000203  1.027209  0.0
H  H23  1  0.18569235  0.30699427  0.94169698  1  0.204861  -0.000405  0.127924  0.139151  -0.000203  1.027064  0.0
H  H24  1  0.02325073  0.43796151  0.69191284  1  0.052467  -1.5e-05  0.091322  0.084801  -1.1e-05  1.06065  0.0
H  H25  1  0.97676652  0.56204279  0.30809554  1  0.052344  -1.5e-05  0.091315  0.084794  -1.1e-05  1.06063  0.0
H  H26  1  0.34056321  0.63917435  0.60726265  1  0.07862  -1.2e-05  0.091782  0.08479  -7e-06  1.090875  0.0
H  H27  1  0.65945145  0.36081722  0.39273815  1  0.078775  -1.2e-05  0.091733  0.084752  -7e-06  1.090869  0.0
H  H28  1  0.54687833  0.39979744  0.67060007  1  0.038652  -1.2e-05  0.090014  0.087357  -6e-06  1.040525  0.0
H  H29  1  0.45311046  0.60019427  0.32938510  1  0.039288  -1.2e-05  0.090062  0.087402  -6e-06  1.040654  0.0
H  H30  1  0.82725922  0.67594950  0.62203843  1  0.06902  -1.9e-05  0.093486  0.089026  -1.1e-05  1.043214  0.0
H  H31  1  0.17274333  0.32404173  0.37795533  1  0.0689  -1.9e-05  0.093437  0.088931  -1.1e-05  1.043223  0.0
H  H32  1  0.47645970  0.67569426  0.73373721  1  0.117477  -1e-05  0.105079  0.113837  -1.2e-05  1.002631  0.0
H  H33  1  0.52355404  0.32431535  0.26627067  1  0.117886  -1e-05  0.10508  0.113762  -1.2e-05  1.002648  0.0
H  H34  1  0.67916420  0.43541060  0.79723812  1  0.065614  2e-06  0.092443  0.07792  5e-06  1.092827  0.0
H  H35  1  0.32082708  0.56458838  0.20274992  1  0.065573  2e-06  0.092419  0.077821  5e-06  1.092713  0.0
H  H36  1  0.51353508  0.03996557  0.65975710  1  0.066601  -3.4e-05  0.105515  0.107541  -2.8e-05  1.0453  0.0
H  H37  1  0.48647305  0.96004739  0.34024407  1  0.066538  -3.4e-05  0.105502  0.107487  -2.8e-05  1.045338  0.0
H  H38  1  0.23879999  0.80827254  0.45129502  1  0.094969  -0.0  0.105153  0.110092  -1e-06  1.024406  0.0
H  H39  1  0.76120159  0.19172772  0.54870313  1  0.094898  -0.0  0.105207  0.110149  -1e-06  1.024432  0.0
H  H40  1  0.95831678  0.71031088  0.75001876  1  0.086674  -1.3e-05  0.099105  0.097637  -1.3e-05  1.026702  0.0
H  H41  1  0.04168090  0.28966679  0.24997236  1  0.086481  -1.3e-05  0.099078  0.097594  -1.3e-05  1.026616  0.0
H  H42  1  0.15591864  0.18925610  0.57594076  1  0.066518  -1e-06  0.104765  0.108576  -1e-06  1.000954  0.0
H  H43  1  0.84407856  0.81073891  0.42406703  1  0.066802  -1e-06  0.104817  0.10864  -1e-06  1.00093  0.0
H  H44  1  0.54284218  0.32676240  0.53037912  1  0.068132  -0.0  0.101482  0.112011  0.0  1.029476  0.0
H  H45  1  0.45716220  0.67323342  0.46961858  1  0.068161  -0.0  0.101427  0.111957  0.0  1.029659  0.0
H  H46  1  0.39864541  0.93004963  0.52490100  1  0.103149  -1e-05  0.101725  0.097511  -6e-06  1.033525  0.0
H  H47  1  0.60136253  0.06994989  0.47509990  1  0.103259  -1e-05  0.101744  0.097537  -6e-06  1.033562  0.0
H  H48  1  0.14335387  0.69498443  0.31159270  1  0.071912  -2.3e-05  0.106775  0.11266  -1.6e-05  1.038107  0.0
H  H49  1  0.85664546  0.30502301  0.68840827  1  0.071862  -2.3e-05  0.106753  0.112677  -1.6e-05  1.038158  0.0
H  H50  1  0.13819448  0.13000021  0.44070751  1  0.02963  -1.7e-05  0.105288  0.103252  -1e-05  1.012468  0.0
H  H51  1  0.86178850  0.86999456  0.55929955  1  0.029736  -1.7e-05  0.105289  0.103311  -1e-05  1.012318  0.0
H  H52  1  0.27527533  0.30318568  0.70809484  1  0.100722  -2.3e-05  0.104184  0.10859  -1.6e-05  1.05303  0.0
H  H53  1  0.72473361  0.69681382  0.29190433  1  0.100647  -2.3e-05  0.104163  0.108589  -1.6e-05  1.052962  0.0
H  H54  1  0.13472997  0.64054930  0.17241887  1  0.17872  -0.000394  0.137299  0.103171  -0.000233  1.057761  0.0
H  H55  1  0.86527279  0.35945637  0.82758056  1  0.178879  -0.000393  0.13727  0.103119  -0.000233  1.057903  0.0
H  H56  1  0.03698166  0.01454258  0.30150826  1  0.068068  -3e-05  0.110717  0.117517  -2.3e-05  1.005066  0.0
H  H57  1  0.96301380  0.98546134  0.69849874  1  0.067811  -3e-05  0.110675  0.11745  -2.3e-05  1.005121  0.0
H  H58  1  0.57591630  0.84960532  0.54605427  1  0.042566  1e-06  0.087962  0.081856  1e-06  1.047278  0.0
H  H59  1  0.42408475  0.15037762  0.45392950  1  0.042806  1e-06  0.087973  0.081787  1e-06  1.047267  0.0
H  H60  1  0.61849679  0.90498973  0.65392635  1  0.032877  -8e-06  0.102011  0.106948  -6e-06  0.995273  0.0
H  H61  1  0.38148668  0.09501173  0.34605763  1  0.032481  -8e-06  0.102069  0.106992  -6e-06  0.995305  0.0
H  H62  1  0.46343174  0.80572481  0.61356311  1  0.066934  -1e-06  0.099763  0.101899  -0.0  1.013364  0.0
H  H63  1  0.53656062  0.19427410  0.38642090  1  0.066764  -1e-06  0.099784  0.101925  -0.0  1.013272  0.0
H  H64  1  0.04434616  0.81833647  0.62821319  1  0.028134  -2e-06  0.090319  0.085869  -1e-06  1.02196  0.0
H  H65  1  0.95565002  0.18165755  0.37179034  1  0.028153  -2e-06  0.090312  0.085925  -1e-06  1.021928  0.0
H  H66  1  0.21341386  0.88783923  0.65274748  1  0.061268  -5e-06  0.095747  0.102896  -4e-06  1.01496  0.0
H  H67  1  0.78658908  0.11215483  0.34725267  1  0.061471  -5e-06  0.095742  0.102895  -4e-06  1.01495  0.0
H  H68  1  0.14096099  0.76859795  0.68834399  1  0.073353  -1e-06  0.098943  0.103858  -2e-06  1.010058  0.0
H  H69  1  0.85904145  0.23140792  0.31166523  1  0.073838  -1e-06  0.098946  0.103895  -2e-06  1.010008  0.0
C  C70  1  0.91736009  0.79987890  0.18070681  1  0.268403  -0.001317  0.000105  -0.113579  -0.001049  3.919198  -0.001
C  C71  1  0.08264532  0.20013044  0.81929464  1  0.26803  -0.001317  0.000146  -0.113488  -0.001049  3.919397  -0.001
C  C72  1  0.57616352  0.21562819  0.80426995  1  0.260299  -0.001195  -0.001772  -0.116165  -0.000946  3.916039  -0.001
C  C73  1  0.42383235  0.78437753  0.19573690  1  0.259645  -0.001195  -0.001814  -0.116106  -0.000946  3.915969  -0.001
C  C74  1  0.19941862  0.50692397  0.76942185  1  -0.095177  -2.5e-05  -0.09414  -0.097145  -2.3e-05  4.00911  0.0
C  C75  1  0.80058602  0.49309181  0.23058856  1  -0.095376  -2.5e-05  -0.094286  -0.097275  -2.3e-05  4.009082  0.0
C  C76  1  0.90213510  0.60054024  0.86080070  1  1.58568  5.7e-05  0.203467  0.561378  -7e-05  4.20844  0.0
C  C77  1  0.09785634  0.39945165  0.13919026  1  1.585564  5.8e-05  0.20332  0.561025  -7e-05  4.208456  0.0
C  C78  1  0.59143690  0.51906807  0.56579724  1  -0.025551  -1.7e-05  -0.012593  -0.005732  -1.4e-05  3.990193  0.0
C  C79  1  0.40856274  0.48092561  0.43418789  1  -0.025425  -1.7e-05  -0.012757  -0.005892  -1.4e-05  3.990399  0.0
C  C80  1  0.43270259  0.33223812  0.83558333  1  0.948805  -2.4e-05  0.152661  0.100943  -0.000336  3.84889  0.0
C  C81  1  0.56729881  0.66776575  0.16441624  1  0.948925  -2.4e-05  0.15259  0.100829  -0.000336  3.84871  0.0
C  C82  1  0.60424953  0.29643956  0.88317084  1  0.434531  -0.000549  0.018984  -0.00909  -0.000784  3.924034  0.0
C  C83  1  0.39574275  0.70356247  0.11683398  1  0.434645  -0.000549  0.018908  -0.009235  -0.000784  3.92391  0.0
C  C84  1  0.08782476  0.51980664  0.56842621  1  0.018823  -2.3e-05  -0.01069  -0.005891  -1.9e-05  3.986935  0.0
C  C85  1  0.91216941  0.48017592  0.43158724  1  0.01874  -2.3e-05  -0.010821  -0.006173  -1.9e-05  3.986883  0.0
C  C86  1  0.99576479  0.41117324  0.53228050  1  0.016933  -2.8e-05  -0.099623  -0.22847  -2.4e-05  3.992814  0.0
C  C87  1  0.00423117  0.58881743  0.46773429  1  0.017155  -2.8e-05  -0.099807  -0.228643  -2.4e-05  3.992861  0.0
C  C88  1  0.40114446  0.17761822  0.69515753  1  0.246963  -0.000278  0.098478  0.171379  -0.000265  4.015385  0.0
C  C89  1  0.59885088  0.82238475  0.30484695  1  0.247017  -0.000279  0.098382  0.171223  -0.000265  4.015579  0.0
C  C90  1  0.08134596  0.84665864  0.29730709  1  0.321045  -0.000326  0.094798  0.168545  -0.000312  4.026086  0.0
C  C91  1  0.91865311  0.15334793  0.70269539  1  0.321133  -0.000326  0.094915  0.168511  -0.000312  4.025991  0.0
C  C92  1  0.09012384  0.60899905  0.53356347  1  0.425694  -1.5e-05  0.076844  0.198405  -1.1e-05  4.017004  0.0
C  C93  1  0.90986866  0.39098887  0.46645123  1  0.425786  -1.5e-05  0.076848  0.1984  -1.1e-05  4.017004  0.0
C  C94  1  0.88971038  0.70953342  0.10511500  1  0.400037  -0.000694  0.014134  -0.015685  -0.00092  3.923835  -0.001
C  C95  1  0.11029061  0.29046763  0.89487875  1  0.400108  -0.000695  0.014155  -0.01562  -0.000921  3.923896  -0.001
C  C96  1  0.67681547  0.53611777  0.63728682  1  0.022894  -0.000183  -0.004908  0.087135  -0.000149  3.978619  0.0
C  C97  1  0.32318194  0.46387506  0.36270211  1  0.022695  -0.000183  -0.005063  0.086852  -0.000149  3.97863  0.0
C  C98  1  0.12364242  0.48714150  0.69927259  1  -0.045215  -3.1e-05  -0.09567  -0.131757  -3.4e-05  3.977578  0.0
C  C99  1  0.87636361  0.51286354  0.30073704  1  -0.044786  -3.1e-05  -0.095602  -0.13172  -3.4e-05  3.977587  0.0
C  C100  1  0.26553561  0.04827571  0.53931629  1  -0.015267  3.9e-05  -0.010687  0.050259  3e-05  4.010964  0.0
C  C101  1  0.73445961  0.95172282  0.46069002  1  -0.014674  3.9e-05  -0.010701  0.050119  3e-05  4.010786  0.0
C  C102  1  0.30085516  0.60368776  0.65356094  1  -0.099659  -2.3e-05  -0.096933  -0.135721  -2.4e-05  3.984511  0.0
C  C103  1  0.69914894  0.39631625  0.34644326  1  -0.099706  -2.3e-05  -0.096936  -0.135818  -2.4e-05  3.984448  0.0
C  C104  1  0.63866161  0.46627526  0.68645933  1  -0.090398  -3e-05  -0.095841  -0.128236  -3.1e-05  3.966826  0.0
C  C105  1  0.36134169  0.53371754  0.31352390  1  -0.090423  -3e-05  -0.095805  -0.128172  -3.1e-05  3.966359  0.0
C  C106  1  0.79421806  0.62333946  0.66050341  1  -0.002017  -3.3e-05  -0.092913  -0.1285  -3.3e-05  3.98082  0.0
C  C107  1  0.20579214  0.37665185  0.33948870  1  -0.001782  -3.3e-05  -0.092828  -0.128223  -3.3e-05  3.980916  0.0
C  C108  1  0.32598233  0.57720513  0.78338466  1  -0.048272  -0.001002  -0.022641  -0.042694  -0.000837  3.973588  -0.001
C  C109  1  0.67402199  0.42280078  0.21662516  1  -0.047596  -0.001001  -0.022668  -0.042745  -0.000837  3.973378  -0.001
C  C110  1  0.19759107  0.97904753  0.45756758  1  -0.049094  5.9e-05  -0.011821  0.049249  4.5e-05  4.005476  0.0
C  C111  1  0.80240574  0.02095369  0.54243765  1  -0.048919  5.9e-05  -0.011873  0.04923  4.5e-05  4.005445  0.0
C  C112  1  0.17208238  0.53685430  0.64046206  1  -0.031164  -0.00017  -0.008407  0.080518  -0.000138  3.989426  0.0
C  C113  1  0.82793043  0.46313371  0.35954133  1  -0.031623  -0.00017  -0.008309  0.080787  -0.000138  3.989272  0.0
C  C114  1  0.82613280  0.57621379  0.78197707  1  -0.046525  -0.001127  -0.023832  -0.039635  -0.00094  3.969552  -0.001
C  C115  1  0.17386885  0.42377184  0.21800677  1  -0.046797  -0.001128  -0.02369  -0.039206  -0.00094  3.969022  -0.001
C  C116  1  0.37673019  0.62368990  0.72373711  1  -0.008378  -0.000157  -0.083401  -0.084268  -0.00013  3.963882  0.0
C  C117  1  0.62327577  0.37632772  0.27627432  1  -0.008783  -0.000156  -0.083359  -0.084101  -0.000129  3.963919  0.0
C  C118  1  0.71177245  0.48657809  0.75780554  1  -0.025575  -4.2e-05  -0.096521  -0.102743  -4e-05  4.022789  0.0
C  C119  1  0.28822363  0.51340388  0.24217854  1  -0.02562  -4.2e-05  -0.096446  -0.102611  -4e-05  4.022212  0.0
C  C120  1  0.43507802  0.07295533  0.64181045  1  0.043586  -7.1e-05  -0.097834  -0.178605  -8.1e-05  4.004199  0.0
C  C121  1  0.56492517  0.92704863  0.35819260  1  0.043317  -7.1e-05  -0.097727  -0.178338  -8.1e-05  4.004192  0.0
C  C122  1  0.19788490  0.85575465  0.41853957  1  0.012844  -4.1e-05  -0.086987  -0.110756  -3.4e-05  3.96704  0.0
C  C123  1  0.80210852  0.14424728  0.58145949  1  0.012773  -4.1e-05  -0.086974  -0.110657  -3.4e-05  3.967061  0.0
C  C124  1  0.86770936  0.64264067  0.73147544  1  -0.084719  -0.000177  -0.085357  -0.086797  -0.000145  3.982662  0.0
C  C125  1  0.13229768  0.35734977  0.26851988  1  -0.084607  -0.000177  -0.085432  -0.087054  -0.000145  3.982518  0.0
C  C126  1  0.23465752  0.15524900  0.59309775  1  -0.012592  -1.4e-05  -0.08378  -0.102198  -1.3e-05  3.955115  0.0
C  C127  1  0.76533972  0.84474948  0.40690455  1  -0.013055  -1.4e-05  -0.083806  -0.102206  -1.3e-05  3.954962  0.0
C  C128  1  0.52273842  0.40310050  0.51745981  1  -0.033139  -2.8e-05  -0.107946  -0.247947  -2.3e-05  4.018609  0.0
C  C129  1  0.47725480  0.59688945  0.48252268  1  -0.033549  -2.8e-05  -0.107843  -0.247858  -2.3e-05  4.018321  0.0
C  C130  1  0.56648976  0.61688474  0.54685766  1  0.500865  -1.1e-05  0.075429  0.192613  -8e-06  4.036157  0.0
C  C131  1  0.43350959  0.38312166  0.45313618  1  0.500615  -1.1e-05  0.07558  0.192901  -8e-06  4.036057  0.0
C  C132  1  0.36865048  0.01020914  0.56543482  1  -0.109247  -6.4e-05  -0.08623  -0.113322  -4.8e-05  3.995154  0.0
C  C133  1  0.63134798  0.98979125  0.43457194  1  -0.109698  -6.4e-05  -0.086247  -0.113326  -4.8e-05  3.995188  0.0
C  C134  1  0.14144551  0.79034564  0.33956566  1  -0.035086  3.9e-05  -0.093596  -0.17894  3.6e-05  4.003801  0.0
C  C135  1  0.85854492  0.20965531  0.66043143  1  -0.034954  3.9e-05  -0.093652  -0.17908  3.6e-05  4.00392  0.0
C  C136  1  0.40540481  0.60277892  0.86110719  1  1.564157  7.9e-05  0.204105  0.562046  -2.5e-05  4.218912  0.0
C  C137  1  0.59461145  0.39723793  0.13890240  1  1.563989  7.9e-05  0.204082  0.561973  -2.5e-05  4.218951  0.0
C  C138  1  0.13630313  0.03368816  0.41409285  1  0.057286  -8.9e-05  -0.082629  -0.104136  -6.9e-05  3.977716  0.0
C  C139  1  0.86368564  0.96631117  0.58591360  1  0.05004  -8.9e-05  -0.08264  -0.104264  -6.9e-05  3.977678  0.0
C  C140  1  0.30153100  0.21980769  0.66942504  1  -0.018507  3.4e-05  -0.090575  -0.168818  3e-05  3.984801  0.0
C  C141  1  0.69846840  0.78019621  0.33057796  1  -0.018591  3.4e-05  -0.090554  -0.168853  3e-05  3.984677  0.0
C  C142  1  0.05452866  0.67828409  0.16297651  1  0.965285  -0.000152  0.149071  0.096132  -0.00048  3.849722  0.0
C  C143  1  0.94546581  0.32171327  0.83701748  1  0.964916  -0.000152  0.149068  0.096112  -0.000479  3.849419  0.0
C  C144  1  0.07942600  0.96901673  0.33501430  1  -0.072963  -7.3e-05  -0.091302  -0.172382  -8.2e-05  3.995123  0.0
C  C145  1  0.92057044  0.03098267  0.66498993  1  -0.065578  -7.3e-05  -0.091255  -0.172223  -8.2e-05  3.994976  0.0
C  C146  1  0.56665772  0.82728798  0.60209196  1  0.400494  -3e-06  -0.144844  -0.179076  -2e-06  3.9317  0.0
C  C147  1  0.43333205  0.17270826  0.39789428  1  0.401205  -3e-06  -0.144907  -0.17911  -2e-06  3.932012  0.0
C  C148  1  0.14102626  0.80289316  0.63780056  1  0.371412  -7e-06  -0.141317  -0.167805  -8e-06  3.898582  0.0
C  C149  1  0.85897079  0.19710544  0.36220750  1  0.370784  -7e-06  -0.141413  -0.168042  -8e-06  3.898833  0.0
N  N150  1  0.97579681  0.63462722  0.09534919  1  -1.180316  -0.02381  -0.347209  -0.212897  -0.01957  3.61816  -0.017
N  N151  1  0.02421046  0.36537765  0.90465123  1  -1.180154  -0.02381  -0.347182  -0.213009  -0.019573  3.617478  -0.017
N  N152  1  0.51423277  0.36851613  0.90127447  1  -1.164977  -0.020649  -0.348223  -0.208775  -0.016831  3.626389  -0.014
N  N153  1  0.48576389  0.63148765  0.09872505  1  -1.164819  -0.020649  -0.348147  -0.208688  -0.016831  3.626213  -0.014
N  N154  1  0.02193060  0.77939558  0.21732102  1  -1.269211  -0.001476  -0.226245  0.007246  -0.001138  3.796633  -0.001
N  N155  1  0.97806602  0.22060823  0.78267966  1  -1.269042  -0.001475  -0.226317  0.007367  -0.001137  3.796751  -0.001
N  N156  1  0.46698845  0.23888106  0.77400917  1  -1.263707  -0.001284  -0.223263  0.009985  -0.000993  3.780297  -0.001
N  N157  1  0.53300819  0.76111473  0.22599307  1  -1.263728  -0.001284  -0.223251  0.010041  -0.000993  3.780182  -0.001
O  O158  1  0.35087635  0.56310338  0.91527686  1  -1.196354  -0.004955  -0.323831  -0.590436  -0.00414  2.27107  -0.004
O  O159  1  0.64912628  0.43689888  0.08473095  1  -1.196583  -0.00495  -0.323857  -0.590414  -0.004136  2.271208  -0.004
O  O160  1  0.52260600  0.65851967  0.86764261  1  -1.162802  -0.000716  -0.319884  -0.526771  -0.000669  2.160401  -0.001
O  O161  1  0.47740518  0.34149875  0.13236043  1  -1.162767  -0.000716  -0.31986  -0.526739  -0.000668  2.160504  -0.001
O  O162  1  0.35930787  0.39086986  0.02699128  1  -1.192142  0.025518  -0.557167  -0.709783  0.019388  2.239132  0.019
O  O163  1  0.64069803  0.60914225  0.97301370  1  -1.192169  0.02552  -0.557214  -0.709809  0.019389  2.239139  0.019
O  O164  1  0.86142611  0.38341450  0.02279313  1  -1.217902  0.02976  -0.563311  -0.721481  0.022515  2.231431  0.023
O  O165  1  0.13857355  0.61658923  0.97720181  1  -1.217861  0.029759  -0.563202  -0.721438  0.022515  2.231495  0.023
O  O166  1  0.01365573  0.66966218  0.87459526  1  -1.175197  -0.000843  -0.32211  -0.531398  -0.000769  2.1531  -0.001
O  O167  1  0.98632289  0.33033330  0.12540620  1  -1.175161  -0.000844  -0.322004  -0.53127  -0.00077  2.15292  -0.001
O  O168  1  0.84995558  0.54633811  0.90860882  1  -1.198499  -0.005973  -0.324616  -0.59419  -0.004953  2.272088  -0.005
O  O169  1  0.15004092  0.45366023  0.09138713  1  -1.19851  -0.005978  -0.324626  -0.594141  -0.004958  2.272129  -0.005
O  O170  1  0.62782094  0.73124585  0.59738667  1  -1.077592  -1e-05  -0.190721  -0.165051  -7e-06  2.595396  0.0
O  O171  1  0.37217212  0.26874624  0.40261295  1  -1.078022  -1e-05  -0.190915  -0.165259  -7e-06  2.595381  0.0
O  O172  1  0.17683508  0.72057235  0.56315173  1  -1.082652  -8e-06  -0.213183  -0.20897  -5e-06  2.551111  0.0
O  O173  1  0.82316025  0.27941009  0.43685540  1  -1.083003  -8e-06  -0.213119  -0.208857  -5e-06  2.55119  0.0
