# generated using pymatgen
data_ZnH28C30(BrN2)2
_symmetry_space_group_name_H-M   'P 1'
_cell_length_a   9.97599896
_cell_length_b   14.62285398
_cell_length_c   22.64171729
_cell_angle_alpha   90.00004806
_cell_angle_beta   89.99992562
_cell_angle_gamma   90.00000701
_symmetry_Int_Tables_number   1
_chemical_formula_structural   ZnH28C30(BrN2)2
_chemical_formula_sum   'Zn4 H112 C120 Br8 N16'
_cell_volume   3302.91883652
_cell_formula_units_Z   4
loop_
 _symmetry_equiv_pos_site_id
 _symmetry_equiv_pos_as_xyz
  1  'x, y, z'
loop_
 _atom_site_type_symbol
 _atom_site_label
 _atom_site_symmetry_multiplicity
 _atom_site_fract_x
 _atom_site_fract_y
 _atom_site_fract_z
 _atom_site_occupancy
 _atom_site_pbe_bader_charge
 _atom_site_pbe_bader_spin_density
 _atom_site_pbe_cm5_charge
 _atom_site_pbe_ddec_charge
 _atom_site_pbe_ddec_spin_density
 _atom_site_pbe_ddec_sum_bond_order
 _atom_site_pbe_magmom
Zn  Zn0  1  0.24999871  0.67413397  0.25000014  1  1.026974  0  0.504708  0.537387  0  2.715876  0
Zn  Zn1  1  0.24999899  0.82586596  0.75000024  1  1.027005  0  0.504746  0.537435  0  2.715848  0
Zn  Zn2  1  0.75000000  0.32586509  0.74999996  1  1.026925  0  0.50469  0.537351  0  2.715923  0
Zn  Zn3  1  0.75000073  0.17413378  0.24999986  1  1.027012  0  0.504708  0.537412  0  2.715912  0
H  H4  1  0.14194955  0.74548726  0.13763460  1  0.102123  0  0.106785  0.076337  0  1.051942  0
H  H5  1  0.14195149  0.75451402  0.86236585  1  0.102232  0  0.106796  0.076343  0  1.051951  0
H  H6  1  0.35804747  0.75451457  0.63763416  1  0.102092  0  0.106809  0.076359  0  1.051939  0
H  H7  1  0.35804688  0.74548742  0.36236528  1  0.102092  0  0.106796  0.076342  0  1.051972  0
H  H8  1  0.85804816  0.25451384  0.86236507  1  0.102116  0  0.106799  0.076329  0  1.05192  0
H  H9  1  0.85804822  0.24548572  0.13763426  1  0.10209  0  0.106791  0.076304  0  1.051984  0
H  H10  1  0.64195224  0.24548654  0.36236595  1  0.102085  0  0.106771  0.076258  0  1.052022  0
H  H11  1  0.64195183  0.25451300  0.63763482  1  0.102123  0  0.106796  0.076311  0  1.051978  0
H  H12  1  0.85434634  0.95715189  0.17927661  1  0.122913  0  0.094361  0.096382  0  1.060522  0
H  H13  1  0.85435137  0.54284809  0.82072343  1  0.122895  0  0.094352  0.096396  0  1.060527  0
H  H14  1  0.64564867  0.54284867  0.67927662  1  0.122915  0  0.094364  0.096413  0  1.060494  0
H  H15  1  0.64565124  0.95715129  0.32072310  1  0.122905  0  0.094355  0.096405  0  1.06051  0
H  H16  1  0.14565238  0.04284922  0.82072305  1  0.122939  0  0.094365  0.096416  0  1.060503  0
H  H17  1  0.14564935  0.45715233  0.17927579  1  0.122888  0  0.094347  0.096402  0  1.06051  0
H  H18  1  0.35435205  0.45715312  0.32072437  1  0.122918  0  0.094361  0.096388  0  1.060494  0
H  H19  1  0.35434747  0.04284846  0.67927701  1  0.12293  0  0.094377  0.096412  0  1.060483  0
H  H20  1  0.05576645  0.79746834  0.31323704  1  0.079128  0  0.117738  0.08906  0  0.985183  0
H  H21  1  0.05576790  0.70253226  0.68676301  1  0.0791  0  0.117723  0.089021  0  0.985181  0
H  H22  1  0.44423206  0.70253304  0.81323696  1  0.0791  0  0.117725  0.089034  0  0.985189  0
H  H23  1  0.44422999  0.79746827  0.18676242  1  0.079098  0  0.117699  0.089014  0  0.985153  0
H  H24  1  0.94423326  0.20253209  0.68676262  1  0.079108  0  0.117737  0.089046  0  0.985188  0
H  H25  1  0.94423182  0.29746817  0.31323665  1  0.079093  0  0.117721  0.089034  0  0.985184  0
H  H26  1  0.55576865  0.29746739  0.18676314  1  0.079121  0  0.117723  0.089053  0  0.985142  0
H  H27  1  0.55576772  0.20253147  0.81323724  1  0.079103  0  0.117722  0.089043  0  0.985149  0
H  H28  1  0.89494361  0.92371184  0.28594032  1  0.0883  0  0.100025  0.11013  0  1.028275  0
H  H29  1  0.89494496  0.57628746  0.71406014  1  0.088324  0  0.100018  0.110159  0  1.028216  0
H  H30  1  0.60505408  0.57628818  0.78593993  1  0.088339  0  0.100028  0.110166  0  1.028204  0
H  H31  1  0.60505295  0.92371178  0.21405981  1  0.08832  0  0.100036  0.110144  0  1.028258  0
H  H32  1  0.10505610  0.07628790  0.71405979  1  0.088307  0  0.100038  0.110155  0  1.028236  0
H  H33  1  0.10505375  0.42371296  0.28593953  1  0.088355  0  0.10003  0.110176  0  1.028182  0
H  H34  1  0.39494764  0.42371225  0.21406062  1  0.088349  0  0.100041  0.110168  0  1.028227  0
H  H35  1  0.39494476  0.07628796  0.78594029  1  0.088316  0  0.100031  0.110137  0  1.028276  0
H  H36  1  0.15839783  0.88213144  0.95765547  1  0.082678  0  0.095303  0.097437  0  1.023168  0
H  H37  1  0.15840117  0.61786848  0.04234497  1  0.082661  0  0.095258  0.097395  0  1.023092  0
H  H38  1  0.34160025  0.61786670  0.45765484  1  0.082656  0  0.095272  0.097438  0  1.02313  0
H  H39  1  0.34160015  0.88213049  0.54234504  1  0.082667  0  0.095274  0.097418  0  1.023114  0
H  H40  1  0.84159787  0.11786762  0.04234596  1  0.08266  0  0.095252  0.097422  0  1.023025  0
H  H41  1  0.84159955  0.38213127  0.95765470  1  0.082646  0  0.095274  0.09741  0  1.023171  0
H  H42  1  0.65839946  0.38213167  0.54234614  1  0.082633  0  0.095267  0.097412  0  1.023173  0
H  H43  1  0.65840458  0.11786651  0.45765418  1  0.082625  0  0.095273  0.097436  0  1.023  0
H  H44  1  0.76053330  0.87921629  0.08998259  1  0.074422  0  0.101089  0.104793  0  0.997016  0
H  H45  1  0.76053508  0.62078574  0.91001750  1  0.074454  0  0.101094  0.104819  0  0.997029  0
H  H46  1  0.73946397  0.62078621  0.58998259  1  0.074463  0  0.10107  0.104771  0  0.997042  0
H  H47  1  0.73946526  0.87921513  0.41001707  1  0.074449  0  0.101086  0.104794  0  0.997047  0
H  H48  1  0.23946441  0.12078482  0.91001795  1  0.074463  0  0.101064  0.104753  0  0.997112  0
H  H49  1  0.23946464  0.37921332  0.08998172  1  0.074462  0  0.101099  0.104828  0  0.997045  0
H  H50  1  0.26053574  0.37921421  0.41001796  1  0.074473  0  0.101061  0.104751  0  0.997102  0
H  H51  1  0.26053646  0.12078393  0.58998127  1  0.074491  0  0.101081  0.104758  0  0.997103  0
H  H52  1  0.73148527  0.89831300  0.98108374  1  0.100702  0  0.106553  0.108539  0  0.996651  0
H  H53  1  0.73148667  0.60168765  0.01891592  1  0.100736  0  0.106521  0.10851  0  0.996604  0
H  H54  1  0.76851486  0.60168932  0.48108403  1  0.100712  0  0.106522  0.108515  0  0.996582  0
H  H55  1  0.76851382  0.89831133  0.51891561  1  0.100727  0  0.106524  0.108472  0  0.996621  0
H  H56  1  0.26851444  0.10168811  0.01891592  1  0.100708  0  0.106512  0.1085  0  0.996563  0
H  H57  1  0.26851205  0.39831141  0.98108374  1  0.100731  0  0.106559  0.108546  0  0.996663  0
H  H58  1  0.23148586  0.39831179  0.51891651  1  0.100774  0  0.106552  0.108545  0  0.996675  0
H  H59  1  0.23148890  0.10168772  0.48108273  1  0.100812  0  0.106527  0.108495  0  0.996604  0
H  H60  1  0.18856154  0.86277554  0.06586709  1  0.067915  0  0.104091  0.10699  0  0.988635  0
H  H61  1  0.18856425  0.63722506  0.93413244  1  0.067877  0  0.104086  0.107011  0  0.988629  0
H  H62  1  0.31143570  0.63722346  0.56586705  1  0.067901  0  0.104096  0.107012  0  0.988604  0
H  H63  1  0.31143591  0.86277510  0.43413285  1  0.067888  0  0.104094  0.107012  0  0.988595  0
H  H64  1  0.81143416  0.13722283  0.93413301  1  0.067834  0  0.104105  0.107021  0  0.988554  0
H  H65  1  0.81143546  0.36277605  0.06586722  1  0.067887  0  0.104085  0.106991  0  0.988618  0
H  H66  1  0.68856402  0.36277628  0.43413393  1  0.067901  0  0.104097  0.107019  0  0.988616  0
H  H67  1  0.68856481  0.13722259  0.56586770  1  0.067899  0  0.104096  0.107001  0  0.988584  0
H  H68  1  0.02628588  0.90028857  0.87391451  1  0.044093  0  0.089322  0.039106  0  1.056551  0
H  H69  1  0.02628896  0.59971133  0.12608511  1  0.044067  0  0.089324  0.039094  0  1.05653  0
H  H70  1  0.47371246  0.59971151  0.37391469  1  0.04408  0  0.08932  0.039062  0  1.056551  0
H  H71  1  0.47371211  0.90028843  0.62608513  1  0.044078  0  0.089338  0.039131  0  1.056524  0
H  H72  1  0.97371484  0.09971185  0.12608647  1  0.044108  0  0.089313  0.039074  0  1.056553  0
H  H73  1  0.97371176  0.40028773  0.87391411  1  0.044081  0  0.089332  0.039107  0  1.056512  0
H  H74  1  0.52628926  0.40028686  0.62608586  1  0.044069  0  0.089306  0.039071  0  1.056535  0
H  H75  1  0.52629161  0.09971199  0.37391365  1  0.044031  0  0.089304  0.039078  0  1.056512  0
H  H76  1  0.92641340  0.90841420  0.79114713  1  0.01831  0  0.086754  0.02683  0  0.989174  0
H  H77  1  0.92641423  0.59158510  0.20885331  1  0.018277  0  0.086777  0.026878  0  0.989246  0
H  H78  1  0.57358629  0.59158446  0.29114664  1  0.018289  0  0.08679  0.026898  0  0.98923  0
H  H79  1  0.57358570  0.90841413  0.70885312  1  0.018284  0  0.086776  0.026845  0  0.989219  0
H  H80  1  0.07358932  0.09158623  0.20885298  1  0.018337  0  0.086764  0.026833  0  0.989199  0
H  H81  1  0.07358648  0.40841532  0.79114679  1  0.018289  0  0.086777  0.026849  0  0.98922  0
H  H82  1  0.42641443  0.40841528  0.70885391  1  0.018258  0  0.086797  0.0269  0  0.989251  0
H  H83  1  0.42641602  0.09158561  0.29114611  1  0.01824  0  0.086794  0.026904  0  0.989246  0
H  H84  1  0.80191557  0.76076587  0.80042734  1  0.023665  0  0.079894  0.074686  0  1.040373  0
H  H85  1  0.80191545  0.73923274  0.19957361  1  0.023689  0  0.079919  0.074732  0  1.040342  0
H  H86  1  0.69808409  0.73923349  0.30042642  1  0.023665  0  0.079903  0.074697  0  1.040362  0
H  H87  1  0.69808551  0.76076511  0.69957415  1  0.02384  0  0.079917  0.074716  0  1.040311  0
H  H88  1  0.19808515  0.23923593  0.19957277  1  0.023825  0  0.079899  0.074687  0  1.040332  0
H  H89  1  0.19808427  0.26076632  0.80042649  1  0.023679  0  0.079907  0.074697  0  1.040371  0
H  H90  1  0.30191763  0.26076694  0.69957369  1  0.023667  0  0.079902  0.074676  0  1.040362  0
H  H91  1  0.30191721  0.23923531  0.30042640  1  0.023646  0  0.079915  0.074685  0  1.040322  0
H  H92  1  0.64864270  0.82115968  0.80163888  1  0.039205  0  0.083835  0.081717  0  1.014547  0
H  H93  1  0.64864057  0.67883755  0.19836128  1  0.039208  0  0.083842  0.081743  0  1.014512  0
H  H94  1  0.85135696  0.67883899  0.30163784  1  0.039236  0  0.083848  0.08174  0  1.014549  0
H  H95  1  0.85136039  0.82116099  0.69836264  1  0.039224  0  0.083837  0.081715  0  1.01454  0
H  H96  1  0.35136002  0.17884006  0.19836123  1  0.039174  0  0.083844  0.08171  0  1.014529  0
H  H97  1  0.35135714  0.32116151  0.80163839  1  0.039227  0  0.083841  0.081728  0  1.014563  0
H  H98  1  0.14864376  0.32116212  0.69836182  1  0.039248  0  0.083824  0.081692  0  1.014574  0
H  H99  1  0.14864534  0.17883944  0.30163702  1  0.039261  0  0.083835  0.081698  0  1.014565  0
H  H100  1  0.64636725  0.99267476  0.80077371  1  0.025617  0  0.084359  0.084611  0  1.00933  0
H  H101  1  0.64637010  0.50732246  0.19922601  1  0.025657  0  0.08438  0.084619  0  1.00931  0
H  H102  1  0.85363140  0.50732391  0.30077434  1  0.025626  0  0.084375  0.084619  0  1.009314  0
H  H103  1  0.85363186  0.99267470  0.69922614  1  0.025639  0  0.084365  0.084634  0  1.009284  0
H  H104  1  0.35363346  0.00732361  0.19922596  1  0.0256  0  0.084367  0.084598  0  1.009302  0
H  H105  1  0.35363161  0.49267659  0.80077454  1  0.025632  0  0.084388  0.084639  0  1.009287  0
H  H106  1  0.14637032  0.49267720  0.69922621  1  0.025665  0  0.084392  0.084659  0  1.009289  0
H  H107  1  0.14636886  0.00732572  0.30077308  1  0.025661  0  0.084368  0.084637  0  1.009315  0
H  H108  1  0.79833291  0.05479082  0.80095184  1  -0.014836  0  0.078782  0.072248  0  1.048601  0
H  H109  1  0.79833583  0.44520806  0.19904884  1  -0.014894  0  0.078779  0.072232  0  1.048681  0
H  H110  1  0.70166566  0.44520812  0.30095192  1  -0.014865  0  0.078778  0.072238  0  1.048604  0
H  H111  1  0.70166605  0.05479075  0.69904794  1  -0.014851  0  0.078777  0.072241  0  1.048593  0
H  H112  1  0.20166580  0.94520960  0.19904738  1  -0.014842  0  0.078776  0.072238  0  1.048657  0
H  H113  1  0.20166589  0.55479237  0.80095259  1  -0.014889  0  0.078784  0.072247  0  1.048631  0
H  H114  1  0.29833605  0.55479231  0.69904863  1  -0.014891  0  0.078773  0.07225  0  1.048647  0
H  H115  1  0.29833367  0.94520899  0.30095172  1  -0.014853  0  0.07878  0.072252  0  1.04859  0
C  C116  1  0.08442645  0.78688481  0.16872326  1  0.484058  0  0.047819  0.032904  0  3.907509  0
C  C117  1  0.08442847  0.71311578  0.83127590  1  0.483913  0  0.047748  0.032705  0  3.907803  0
C  C118  1  0.41557049  0.71311501  0.66872364  1  0.484023  0  0.047716  0.032607  0  3.907871  0
C  C119  1  0.41556999  0.78688493  0.33127709  1  0.48405  0  0.047767  0.032713  0  3.907612  0
C  C120  1  0.91557226  0.21311493  0.83127641  1  0.484044  0  0.047769  0.032789  0  3.9077  0
C  C121  1  0.91557024  0.28688464  0.16872333  1  0.484049  0  0.047814  0.032863  0  3.907691  0
C  C122  1  0.58442923  0.28688405  0.33127779  1  0.484035  0  0.047838  0.032995  0  3.907637  0
C  C123  1  0.58442772  0.21311481  0.66872346  1  0.484067  0  0.047862  0.033047  0  3.907551  0
C  C124  1  0.92388722  0.90300310  0.19223981  1  -0.050267  0  -0.058164  -0.068791  0  3.890971  0
C  C125  1  0.92389130  0.59699552  0.80776062  1  -0.050484  0  -0.058154  -0.068784  0  3.890883  0
C  C126  1  0.57610775  0.59699543  0.69223945  1  -0.050459  0  -0.058145  -0.068747  0  3.890773  0
C  C127  1  0.57610934  0.90300316  0.30776075  1  -0.050478  0  -0.058164  -0.068805  0  3.890881  0
C  C128  1  0.07611149  0.09699596  0.80776073  1  -0.05053  0  -0.058169  -0.068804  0  3.8908  0
C  C129  1  0.07610742  0.40300491  0.19223904  1  -0.05048  0  -0.05816  -0.068801  0  3.890898  0
C  C130  1  0.42389197  0.40300431  0.30776154  1  -0.050502  0  -0.058175  -0.068792  0  3.89084  0
C  C131  1  0.42388837  0.09699727  0.69223936  1  -0.050543  0  -0.05819  -0.068801  0  3.890912  0
C  C132  1  0.99422209  0.85359753  0.14899306  1  -0.043198  0  0.007051  0.038257  0  3.982256  0
C  C133  1  0.99422605  0.64640383  0.85100689  1  -0.042881  0  0.007072  0.038326  0  3.982301  0
C  C134  1  0.50577200  0.64640367  0.64899276  1  -0.042872  0  0.007037  0.038312  0  3.982225  0
C  C135  1  0.50577547  0.85359764  0.35100703  1  -0.042895  0  0.007057  0.038304  0  3.982314  0
C  C136  1  0.00577562  0.14640358  0.85100704  1  -0.042911  0  0.007066  0.038264  0  3.982376  0
C  C137  1  0.00577367  0.35359660  0.14899233  1  -0.042857  0  0.007094  0.03834  0  3.982161  0
C  C138  1  0.49422571  0.35359744  0.35100778  1  -0.042882  0  0.007084  0.038293  0  3.982243  0
C  C139  1  0.49422425  0.14640210  0.64899263  1  -0.042889  0  0.007051  0.038218  0  3.982292  0
C  C140  1  0.03623665  0.81589768  0.26734566  1  0.479932  0  0.052224  0.091437  0  3.907486  0
C  C141  1  0.03623795  0.68410223  0.73265396  1  0.479896  0  0.052224  0.09151  0  3.907513  0
C  C142  1  0.46376100  0.68410159  0.76734600  1  0.479872  0  0.05219  0.091442  0  3.907629  0
C  C143  1  0.46375980  0.81589836  0.23265470  1  0.479931  0  0.052202  0.091406  0  3.907617  0
C  C144  1  0.96376307  0.18410070  0.73265445  1  0.47993  0  0.052223  0.091466  0  3.907547  0
C  C145  1  0.96376176  0.31589888  0.26734526  1  0.479843  0  0.052163  0.091395  0  3.9076  0
C  C146  1  0.53623971  0.31589747  0.23265543  1  0.479925  0  0.052157  0.091374  0  3.90761  0
C  C147  1  0.53623791  0.18410207  0.76734584  1  0.479919  0  0.052189  0.091428  0  3.907486  0
C  C148  1  0.94580172  0.88422842  0.25179712  1  -0.000454  0  -0.072747  -0.09639  0  3.941623  0
C  C149  1  0.94580598  0.61577294  0.74820286  1  -0.000451  0  -0.07272  -0.096468  0  3.941664  0
C  C150  1  0.55419206  0.61577361  0.75179722  1  -0.000349  0  -0.07273  -0.096482  0  3.941701  0
C  C151  1  0.55419383  0.88422840  0.24820210  1  -0.000365  0  -0.072723  -0.096393  0  3.94157  0
C  C152  1  0.05419498  0.11577338  0.74820210  1  -0.000368  0  -0.072781  -0.096474  0  3.941671  0
C  C153  1  0.05419273  0.38422749  0.25179636  1  -0.00033  0  -0.072705  -0.096429  0  3.941691  0
C  C154  1  0.44580665  0.38422750  0.24820288  1  -0.000446  0  -0.072714  -0.096412  0  3.9416  0
C  C155  1  0.44580388  0.11577203  0.75179712  1  -0.000486  0  -0.072724  -0.096394  0  3.941642  0
C  C156  1  0.97648461  0.86851729  0.08516708  1  0.022033  0  -0.008098  0.063208  0  4.009788  0
C  C157  1  0.97648738  0.63148407  0.91483244  1  0.022029  0  -0.008049  0.063348  0  4.00972  0
C  C158  1  0.52351268  0.63148247  0.58516721  1  0.022023  0  -0.008056  0.063273  0  4.009736  0
C  C159  1  0.52351295  0.86851680  0.41483213  1  0.02204  0  -0.008085  0.063302  0  4.009682  0
C  C160  1  0.02351009  0.13148314  0.91483214  1  0.022609  0  -0.008033  0.063315  0  4.009615  0
C  C161  1  0.02351234  0.36851704  0.08516678  1  0.022021  0  -0.008047  0.063342  0  4.009729  0
C  C162  1  0.47648604  0.36851727  0.41483334  1  0.022725  0  -0.008087  0.063229  0  4.009771  0
C  C163  1  0.47648777  0.13148226  0.58516709  1  0.022586  0  -0.008081  0.063226  0  4.009724  0
C  C164  1  0.94282052  0.89070504  0.96263720  1  -0.041169  0  -0.008186  0.071281  0  4.009991  0
C  C165  1  0.94282487  0.60929494  0.03736323  1  -0.041172  0  -0.008198  0.0712  0  4.010053  0
C  C166  1  0.55717765  0.60929520  0.46263629  1  -0.041148  0  -0.008206  0.07119  0  4.009956  0
C  C167  1  0.55717656  0.89070407  0.53736347  1  -0.041145  0  -0.00822  0.071173  0  4.00992  0
C  C168  1  0.05717618  0.10929538  0.03736423  1  -0.041138  0  -0.008131  0.071289  0  4.009884  0
C  C169  1  0.05717584  0.39070411  0.96263732  1  -0.041165  0  -0.008238  0.071233  0  4.00982  0
C  C170  1  0.44282407  0.39070385  0.53736425  1  -0.041089  0  -0.008185  0.071297  0  4.009721  0
C  C171  1  0.44282716  0.10929773  0.46263619  1  -0.04111  0  -0.008158  0.071298  0  4.009758  0
C  C172  1  0.07135989  0.88042591  0.98687545  1  -0.027051  0  -0.083094  -0.111082  0  3.972725  0
C  C173  1  0.07136030  0.61957469  0.01312327  1  -0.02722  0  -0.083127  -0.111089  0  3.972942  0
C  C174  1  0.42863911  0.61957364  0.48687610  1  -0.027061  0  -0.083115  -0.11114  0  3.972827  0
C  C175  1  0.42864010  0.88042493  0.51312374  1  -0.027228  0  -0.083124  -0.111122  0  3.97285  0
C  C176  1  0.92863882  0.11957384  0.01312156  1  -0.02725  0  -0.083116  -0.111156  0  3.972922  0
C  C177  1  0.92863841  0.38042642  0.98687595  1  -0.027071  0  -0.083112  -0.111116  0  3.972831  0
C  C178  1  0.57136160  0.38042541  0.51312489  1  -0.027288  0  -0.083103  -0.111128  0  3.972839  0
C  C179  1  0.57136162  0.11957413  0.48687725  1  -0.027109  0  -0.083127  -0.111155  0  3.972855  0
C  C180  1  0.84770055  0.88036652  0.06090748  1  -0.013747  0  -0.085559  -0.120438  0  3.969928  0
C  C181  1  0.84770425  0.61963551  0.93909300  1  -0.01394  0  -0.085515  -0.1205  0  3.970171  0
C  C182  1  0.65229681  0.61963525  0.56090664  1  -0.013952  0  -0.085503  -0.120374  0  3.970058  0
C  C183  1  0.65229701  0.88036471  0.43909351  1  -0.013959  0  -0.085544  -0.120545  0  3.970194  0
C  C184  1  0.15229916  0.11963390  0.93909439  1  -0.014691  0  -0.085565  -0.120427  0  3.970089  0
C  C185  1  0.15229647  0.38036424  0.06090666  1  -0.013924  0  -0.085548  -0.120569  0  3.970128  0
C  C186  1  0.34770391  0.38036449  0.43909435  1  -0.014619  0  -0.085531  -0.1204  0  3.970236  0
C  C187  1  0.34770271  0.11963366  0.56090527  1  -0.014669  0  -0.085579  -0.120448  0  3.970148  0
C  C188  1  0.83091034  0.89065175  0.00041340  1  -0.042792  0  -0.076406  -0.094841  0  3.94424  0
C  C189  1  0.83091085  0.60934891  0.99958444  1  -0.042665  0  -0.076387  -0.094783  0  3.944259  0
C  C190  1  0.66909020  0.60934994  0.50041520  1  -0.042591  0  -0.076389  -0.094846  0  3.944235  0
C  C191  1  0.66909022  0.89064934  0.49958406  1  -0.042682  0  -0.076332  -0.094621  0  3.944194  0
C  C192  1  0.16908736  0.10935004  0.99958361  1  -0.042568  0  -0.076388  -0.094822  0  3.944336  0
C  C193  1  0.16908986  0.39065015  0.00041434  1  -0.042704  0  -0.076431  -0.094831  0  3.944238  0
C  C194  1  0.33090851  0.39064912  0.49958579  1  -0.042774  0  -0.076412  -0.094866  0  3.944271  0
C  C195  1  0.33091149  0.10935040  0.50041427  1  -0.042711  0  -0.076369  -0.094758  0  3.944155  0
C  C196  1  0.08803730  0.86894053  0.04739414  1  -0.086864  0  -0.086805  -0.121041  0  3.978616  0
C  C197  1  0.08803996  0.63106006  0.95260677  1  -0.086907  0  -0.086803  -0.121092  0  3.978695  0
C  C198  1  0.41196200  0.63105776  0.54739272  1  -0.086883  0  -0.086814  -0.121052  0  3.978692  0
C  C199  1  0.41196116  0.86894013  0.45260713  1  -0.086886  0  -0.086801  -0.121056  0  3.97863  0
C  C200  1  0.91196241  0.13105784  0.95260905  1  -0.08665  0  -0.086831  -0.121075  0  3.97882  0
C  C201  1  0.91196076  0.36894173  0.04739289  1  -0.086898  0  -0.086805  -0.121048  0  3.978679  0
C  C202  1  0.58803972  0.36894130  0.45260783  1  -0.086868  0  -0.086789  -0.121038  0  3.978645  0
C  C203  1  0.58803856  0.13105756  0.54739121  1  -0.086687  0  -0.086798  -0.121031  0  3.97876  0
C  C204  1  0.93014219  0.89988994  0.89846760  1  0.683316  0  0.063085  0.062213  0  4.010124  0
C  C205  1  0.93014234  0.60010799  0.10153283  1  0.683341  0  0.063059  0.06224  0  4.010248  0
C  C206  1  0.56985918  0.60010954  0.39846668  1  0.683368  0  0.063089  0.062355  0  4.010253  0
C  C207  1  0.56985791  0.89989041  0.60153263  1  0.683356  0  0.063049  0.062196  0  4.010222  0
C  C208  1  0.06986053  0.10010912  0.10153338  1  0.683389  0  0.063069  0.06223  0  4.0104  0
C  C209  1  0.06985838  0.39989106  0.89846639  1  0.683396  0  0.063083  0.062234  0  4.010162  0
C  C210  1  0.43013852  0.39989020  0.60153430  1  0.683414  0  0.063072  0.062194  0  4.010336  0
C  C211  1  0.43014080  0.10011001  0.39846526  1  0.683771  0  0.063078  0.062192  0  4.01034  0
C  C212  1  0.82134520  0.90789310  0.80760395  1  0.370844  0  0.000496  0.139809  0  3.898648  0
C  C213  1  0.82134708  0.59210619  0.19239655  1  0.370994  0  0.000463  0.139712  0  3.898858  0
C  C214  1  0.67865343  0.59210626  0.30760340  1  0.37099  0  0.000454  0.139723  0  3.898851  0
C  C215  1  0.67865390  0.90789234  0.69239674  1  0.37086  0  0.000509  0.139871  0  3.898725  0
C  C216  1  0.17865652  0.09210801  0.19239616  1  0.370869  0  0.000522  0.139866  0  3.898707  0
C  C217  1  0.17865363  0.40789423  0.80760355  1  0.370999  0  0.00049  0.139839  0  3.898727  0
C  C218  1  0.32134828  0.40789417  0.69239759  1  0.37099  0  0.000489  0.139767  0  3.898859  0
C  C219  1  0.32134883  0.09210741  0.30760248  1  0.370855  0  0.000494  0.139766  0  3.898767  0
C  C220  1  0.75127906  0.82216221  0.78368173  1  0.019528  0  -0.169364  -0.190659  0  3.914618  0
C  C221  1  0.75128189  0.67783776  0.21631837  1  0.01941  0  -0.169386  -0.190704  0  3.914665  0
C  C222  1  0.74871864  0.67783780  0.28368119  1  -0.091264  0  -0.169379  -0.190672  0  3.914691  0
C  C223  1  0.74871801  0.82216012  0.71631935  1  -0.091315  0  -0.169384  -0.190681  0  3.91464  0
C  C224  1  0.24872266  0.17783890  0.21631793  1  0.019321  0  -0.169377  -0.19068  0  3.914555  0
C  C225  1  0.24871882  0.32216198  0.78368174  1  0.01939  0  -0.16937  -0.190686  0  3.914675  0
C  C226  1  0.25128208  0.32216194  0.71631891  1  -0.091265  0  -0.16934  -0.190557  0  3.914667  0
C  C227  1  0.25128070  0.17783757  0.28368031  1  -0.091124  0  -0.169374  -0.190574  0  3.914646  0
C  C228  1  0.74983661  0.99291342  0.78376834  1  0.062237  0  -0.170436  -0.194729  0  3.920207  0
C  C229  1  0.74983942  0.50708450  0.21623175  1  0.062241  0  -0.170433  -0.194697  0  3.920263  0
C  C230  1  0.75016309  0.50708523  0.28376815  1  -0.052525  0  -0.170438  -0.194704  0  3.920166  0
C  C231  1  0.75016149  0.99291338  0.71623194  1  -0.052505  0  -0.170453  -0.1948  0  3.920214  0
C  C232  1  0.25016410  0.00708632  0.21623132  1  0.06224  0  -0.17037  -0.194623  0  3.920251  0
C  C233  1  0.25016130  0.49291524  0.78376879  1  0.062234  0  -0.170438  -0.194743  0  3.92016  0
C  C234  1  0.24983963  0.49291520  0.71623239  1  -0.052515  0  -0.170497  -0.194846  0  3.920332  0
C  C235  1  0.24983922  0.00708636  0.28376728  1  -0.052506  0  -0.17049  -0.194847  0  3.920351  0
Br  Br236  1  0.17347190  0.59809004  0.33633812  1  -0.60589  0  -0.274332  -0.455243  0  1.223902  0
Br  Br237  1  0.17347345  0.90190919  0.66366187  1  -0.605886  0  -0.274329  -0.45524  0  1.223896  0
Br  Br238  1  0.32652654  0.90190931  0.83633821  1  -0.605894  0  -0.274333  -0.455247  0  1.223895  0
Br  Br239  1  0.32652651  0.59808993  0.16366212  1  -0.605877  0  -0.274318  -0.455238  0  1.223913  0
Br  Br240  1  0.82652681  0.40190970  0.66366243  1  -0.605889  0  -0.274322  -0.455235  0  1.223925  0
Br  Br241  1  0.82652726  0.09808986  0.33633779  1  -0.605903  0  -0.274324  -0.45524  0  1.223914  0
Br  Br242  1  0.67347317  0.09809043  0.16366189  1  -0.605886  0  -0.274323  -0.455233  0  1.223907  0
Br  Br243  1  0.67347321  0.40190981  0.83633754  1  -0.605875  0  -0.274313  -0.455219  0  1.223915  0
N  N244  1  0.10424493  0.76822912  0.22614601  1  -1.267901  0  -0.334007  -0.201142  0  3.610058  0
N  N245  1  0.10424713  0.73177216  0.77385446  1  -1.267952  0  -0.333971  -0.201026  0  3.610019  0
N  N246  1  0.39575184  0.73177214  0.72614553  1  -1.267922  0  -0.333923  -0.200916  0  3.609976  0
N  N247  1  0.39575151  0.76822916  0.27385388  1  -1.267926  0  -0.333934  -0.200928  0  3.60996  0
N  N248  1  0.89575378  0.23177131  0.77385365  1  -1.267906  0  -0.333944  -0.200986  0  3.609901  0
N  N249  1  0.89575259  0.26822826  0.22614521  1  -1.267889  0  -0.333993  -0.201075  0  3.610124  0
N  N250  1  0.60424687  0.26822897  0.27385501  1  -1.267937  0  -0.333978  -0.20112  0  3.610249  0
N  N251  1  0.60424620  0.23177058  0.72614534  1  -1.267879  0  -0.334017  -0.201195  0  3.610237  0
N  N252  1  0.81763320  0.90553109  0.87160263  1  -1.197564  0  -0.324714  -0.282307  0  3.2624  0
N  N253  1  0.81763727  0.59446752  0.12839743  1  -1.19753  0  -0.324731  -0.282336  0  3.262647  0
N  N254  1  0.68236324  0.59446904  0.37160252  1  -1.197616  0  -0.324734  -0.282388  0  3.262674  0
N  N255  1  0.68236389  0.90552955  0.62839761  1  -1.197573  0  -0.324737  -0.282354  0  3.262584  0
N  N256  1  0.18236551  0.09446934  0.12839659  1  -1.197679  0  -0.32474  -0.282334  0  3.262701  0
N  N257  1  0.18236244  0.40553085  0.87160311  1  -1.197614  0  -0.324728  -0.282337  0  3.262619  0
N  N258  1  0.31763948  0.40553070  0.62839758  1  -1.197617  0  -0.324761  -0.282339  0  3.262793  0
N  N259  1  0.31764183  0.09447087  0.37160249  1  -1.197931  0  -0.324763  -0.282347  0  3.262815  0
