# generated using pymatgen
data_ZnH18C22(N2O)6
_symmetry_space_group_name_H-M   'P 1'
_cell_length_a   8.49243533
_cell_length_b   10.96113021
_cell_length_c   14.29782966
_cell_angle_alpha   82.32740520
_cell_angle_beta   79.42274675
_cell_angle_gamma   88.59334165
_symmetry_Int_Tables_number   1
_chemical_formula_structural   ZnH18C22(N2O)6
_chemical_formula_sum   'Zn2 H36 C44 N24 O12'
_cell_volume   1296.60954989
_cell_formula_units_Z   2
loop_
 _symmetry_equiv_pos_site_id
 _symmetry_equiv_pos_as_xyz
  1  'x, y, z'
loop_
 _atom_site_type_symbol
 _atom_site_label
 _atom_site_symmetry_multiplicity
 _atom_site_fract_x
 _atom_site_fract_y
 _atom_site_fract_z
 _atom_site_occupancy
 _atom_site_hle17_bader_spin_density
 _atom_site_hle17_ddec_charge
 _atom_site_hle17_ddec_spin_density
 _atom_site_hle17_ddec_sum_bond_order
 _atom_site_hle17_magmom
 _atom_site_hse06_10hf_bader_spin_density
 _atom_site_hse06_10hf_ddec_charge
 _atom_site_hse06_10hf_ddec_spin_density
 _atom_site_hse06_10hf_ddec_sum_bond_order
 _atom_site_hse06_10hf_magmom
 _atom_site_hse06_bader_spin_density
 _atom_site_hse06_ddec_charge
 _atom_site_hse06_ddec_spin_density
 _atom_site_hse06_ddec_sum_bond_order
 _atom_site_hse06_magmom
 _atom_site_pbe_bader_spin_density
 _atom_site_pbe_cm5_charge
 _atom_site_pbe_ddec_charge
 _atom_site_pbe_ddec_spin_density
 _atom_site_pbe_ddec_sum_bond_order
 _atom_site_pbe_magmom
Zn  Zn0  1  0.67195899  0.99042258  0.73440009  1  0  0.990689  0  1.910875  0  0  0.810911  0  2.354319  0  0  0.851516  0  2.310854  0  0  0.685566  0.782148  0  2.384303  0
Zn  Zn1  1  0.32804182  0.00957484  0.26560095  1  0  0.99073  0  1.910792  0  0  0.81098  0  2.354231  0  0  0.851583  0  2.31077  0  0  0.685813  0.782517  0  2.384117  0
H  H2  1  0.79628304  0.01761430  0.54111992  1  0  0.426154  0  0.882974  0  0  0.394491  0  0.94857  0  0  0.405686  0  0.932298  0  0  0.284779  0.386564  0  0.960098  0
H  H3  1  0.20371775  0.98238402  0.45887822  1  0  0.42616  0  0.882957  0  0  0.3945  0  0.948549  0  0  0.405695  0  0.932277  0  0  0.284815  0.386604  0  0.960036  0
H  H4  1  0.85827762  0.88298780  0.58115924  1  0  0.420518  0  0.891561  0  0  0.386426  0  0.960569  0  0  0.398582  0  0.942974  0  0  0.279667  0.377787  0  0.9731  0
H  H5  1  0.14172558  0.11701142  0.41883784  1  0  0.420591  0  0.89146  0  0  0.3865  0  0.960457  0  0  0.398654  0  0.942866  0  0  0.279705  0.377863  0  0.972984  0
H  H6  1  0.50165588  0.96117998  0.91785690  1  0  0.414725  0  0.832323  0  0  0.397586  0  0.888179  0  0  0.406376  0  0.877931  0  0  0.312275  0.391226  0  0.895847  0
H  H7  1  0.49834858  0.03881927  0.08214843  1  0  0.414902  0  0.832106  0  0  0.397699  0  0.888053  0  0  0.406487  0  0.877807  0  0  0.312332  0.391356  0  0.895701  0
H  H8  1  0.49942591  0.10703153  0.88315762  1  0  0.4138  0  0.908139  0  0  0.377137  0  0.981245  0  0  0.390353  0  0.962416  0  0  0.271051  0.367881  0  0.994442  0
H  H9  1  0.50057245  0.89296497  0.11684029  1  0  0.413794  0  0.908147  0  0  0.377128  0  0.98126  0  0  0.390343  0  0.962434  0  0  0.27106  0.367879  0  0.99446  0
H  H10  1  0.08610805  0.57955758  0.47269765  1  0  0.102395  0  0.953358  0  0  0.114516  0  1.009559  0  0  0.116939  0  1.009235  0  0  0.10625  0.112603  0  1.01012  0
H  H11  1  0.91390117  0.42044801  0.52729180  1  0  0.102385  0  0.953408  0  0  0.11456  0  1.009513  0  0  0.116983  0  1.009185  0  0  0.106292  0.112639  0  1.010128  0
H  H12  1  0.21619372  0.37298601  0.48998632  1  0  0.125727  0  0.966415  0  0  0.128256  0  1.040362  0  0  0.132905  0  1.036234  0  0  0.10951  0.124744  0  1.043907  0
H  H13  1  0.78381435  0.62701961  0.51000884  1  0  0.125671  0  0.966397  0  0  0.128136  0  1.040415  0  0  0.132782  0  1.036295  0  0  0.10944  0.124648  0  1.043897  0
H  H14  1  0.47732365  0.49775244  0.69196855  1  0  0.115043  0  0.941462  0  0  0.127549  0  0.999657  0  0  0.130611  0  0.998117  0  0  0.111489  0.125271  0  1.000709  0
H  H15  1  0.52266649  0.50225153  0.30803649  1  0  0.115  0  0.941458  0  0  0.127543  0  0.999623  0  0  0.130608  0  0.998083  0  0  0.111462  0.125251  0  1.000699  0
H  H16  1  0.44945763  0.02772025  0.56292450  1  0  0.097501  0  0.936507  0  0  0.107807  0  0.995844  0  0  0.109599  0  0.993723  0  0  0.139506  0.106286  0  0.997507  0
H  H17  1  0.55053370  0.97228279  0.43708051  1  0  0.097488  0  0.93649  0  0  0.107799  0  0.995816  0  0  0.10959  0  0.993696  0  0  0.139512  0.106302  0  0.997489  0
H  H18  1  0.54198629  0.30014952  0.72502938  1  0  0.103738  0  0.94906  0  0  0.111145  0  1.015694  0  0  0.114268  0  1.010466  0  0  0.13866  0.108617  0  1.019198  0
H  H19  1  0.45801580  0.69985250  0.27497313  1  0  0.103719  0  0.949132  0  0  0.11112  0  1.01577  0  0  0.114241  0  1.01054  0  0  0.1386  0.108561  0  1.019283  0
H  H20  1  0.60742021  0.75292281  0.62817907  1  0  0.115414  0  0.948349  0  0  0.119877  0  1.021434  0  0  0.123146  0  1.015961  0  0  0.143044  0.117139  0  1.025141  0
H  H21  1  0.39258296  0.24707366  0.37182041  1  0  0.115407  0  0.94823  0  0  0.119849  0  1.021363  0  0  0.123122  0  1.015882  0  0  0.14317  0.117257  0  1.02512  0
H  H22  1  0.26952176  0.93027444  0.81928004  1  0  0.115617  0  0.934034  0  0  0.120319  0  1.000077  0  0  0.123606  0  0.996415  0  0  0.137223  0.117689  0  1.002608  0
H  H23  1  0.73048386  0.06972387  0.18072176  1  0  0.115646  0  0.934011  0  0  0.120347  0  1.000054  0  0  0.123636  0  0.996393  0  0  0.137195  0.117662  0  1.002564  0
H  H24  1  0.33374504  0.42516771  0.93937836  1  0  0.10489  0  0.931929  0  0  0.115548  0  0.987281  0  0  0.119313  0  0.984765  0  0  0.105076  0.1127  0  0.989409  0
H  H25  1  0.66624615  0.57482247  0.06063222  1  0  0.104891  0  0.931908  0  0  0.115523  0  0.987285  0  0  0.119287  0  0.98477  0  0  0.105132  0.112715  0  0.989424  0
H  H26  1  0.18191103  0.62512550  0.93584147  1  0  0.117259  0  0.937819  0  0  0.125774  0  0.997677  0  0  0.129285  0  0.995802  0  0  0.113016  0.123177  0  0.999511  0
H  H27  1  0.81809100  0.37487101  0.06416442  1  0  0.117345  0  0.937927  0  0  0.125869  0  0.997737  0  0  0.129378  0  0.995865  0  0  0.113065  0.123236  0  0.99955  0
H  H28  1  0.86626262  0.47874975  0.77460385  1  0  0.115959  0  0.94077  0  0  0.127882  0  0.998833  0  0  0.131191  0  0.99697  0  0  0.112251  0.125466  0  1.000145  0
H  H29  1  0.13374425  0.52125680  0.22538995  1  0  0.115977  0  0.94078  0  0  0.127899  0  0.998835  0  0  0.131209  0  0.996972  0  0  0.11225  0.125479  0  1.00015  0
H  H30  1  0.83885607  0.69420360  0.72115001  1  0  0.105931  0  0.948694  0  0  0.114451  0  1.014164  0  0  0.117331  0  1.009522  0  0  0.138768  0.112085  0  1.017156  0
H  H31  1  0.16114955  0.30579470  0.27885180  1  0  0.105911  0  0.948686  0  0  0.114443  0  1.014156  0  0  0.117315  0  1.009523  0  0  0.138742  0.112038  0  1.017151  0
H  H32  1  0.85004120  0.93496416  0.92544314  1  0  0.113496  0  0.912544  0  0  0.122189  0  0.969834  0  0  0.124652  0  0.967121  0  0  0.14233  0.119955  0  0.972477  0
H  H33  1  0.14996323  0.06503599  0.07455721  1  0  0.113583  0  0.912428  0  0  0.12219  0  0.969804  0  0  0.124651  0  0.967092  0  0  0.142378  0.120002  0  0.972448  0
H  H34  1  0.75518057  0.22705477  0.84775685  1  0  0.119741  0  0.912023  0  0  0.132506  0  0.968012  0  0  0.13516  0  0.963604  0  0  0.149707  0.130275  0  0.971031  0
H  H35  1  0.24482145  0.77294356  0.15224466  1  0  0.119812  0  0.911954  0  0  0.132568  0  0.967956  0  0  0.135224  0  0.963547  0  0  0.149768  0.130388  0  0.970958  0
H  H36  1  0.04722374  0.06538146  0.62612347  1  0  0.110612  0  0.926997  0  0  0.117219  0  0.989596  0  0  0.120259  0  0.986201  0  0  0.140225  0.114835  0  0.991934  0
H  H37  1  0.95276749  0.93462062  0.37387186  1  0  0.110723  0  0.927074  0  0  0.117354  0  0.989636  0  0  0.120397  0  0.986234  0  0  0.140341  0.115026  0  0.991962  0
C  C38  1  0.20424351  0.65312374  0.57251230  1  0  -0.103351  0  3.703353  0  0  -0.094768  0  3.954825  0  0  -0.101061  0  3.971119  0  0  -0.010481  -0.092172  0  3.943671  0
C  C39  1  0.79576569  0.34688092  0.42747724  1  0  -0.103459  0  3.703138  0  0  -0.094953  0  3.954712  0  0  -0.10125  0  3.971005  0  0  -0.010613  -0.092383  0  3.943594  0
C  C40  1  0.17307848  0.56039206  0.52003972  1  0  -0.065708  0  3.756384  0  0  -0.084711  0  4.002081  0  0  -0.085112  0  4.022943  0  0  -0.087838  -0.08425  0  3.989454  0
C  C41  1  0.82693434  0.43961350  0.47995142  1  0  -0.065693  0  3.756178  0  0  -0.084706  0  4.001814  0  0  -0.085106  0  4.022674  0  0  -0.087813  -0.0842  0  3.989218  0
C  C42  1  0.24759147  0.44615332  0.52787219  1  0  -0.142362  0  3.724962  0  0  -0.170688  0  3.992522  0  0  -0.173825  0  4.00766  0  0  -0.089215  -0.169778  0  3.982256  0
C  C43  1  0.75241539  0.55385231  0.47212241  1  0  -0.142262  0  3.724848  0  0  -0.17055  0  3.992485  0  0  -0.173684  0  4.00761  0  0  -0.089175  -0.169671  0  3.982146  0
C  C44  1  0.35781233  0.42315278  0.58983114  1  0  0.192612  0  3.786589  0  0  0.170053  0  4.042337  0  0  0.186855  0  4.064963  0  0  0.103768  0.165745  0  4.027835  0
C  C45  1  0.64219331  0.57684919  0.41016608  1  0  0.192545  0  3.786676  0  0  0.169974  0  4.042392  0  0  0.186802  0  4.065016  0  0  0.103705  0.165655  0  4.027852  0
C  C46  1  0.39406908  0.51446871  0.64210294  1  0  -0.218035  0  3.709208  0  0  -0.250784  0  3.979553  0  0  -0.25643  0  3.994375  0  0  -0.086993  -0.245584  0  3.964389  0
C  C47  1  0.60592700  0.48553427  0.35789734  1  0  -0.217926  0  3.709147  0  0  -0.250734  0  3.979499  0  0  -0.256384  0  3.994321  0  0  -0.086979  -0.245532  0  3.964368  0
C  C48  1  0.31753428  0.62836447  0.63251274  1  0  0.166746  0  3.76129  0  0  0.138833  0  4.015795  0  0  0.155826  0  4.03888  0  0  0.100292  0.134924  0  4.001188  0
C  C49  1  0.68246896  0.37163935  0.36748246  1  0  0.16682  0  3.761144  0  0  0.138932  0  4.015583  0  0  0.155912  0  4.038662  0  0  0.10034  0.13498  0  4.001052  0
C  C50  1  0.45822598  0.11657472  0.58679733  1  0  0.230763  0  3.663552  0  0  0.175051  0  3.958277  0  0  0.188341  0  3.96531  0  0  0.16009  0.166968  0  3.950829  0
C  C51  1  0.54177009  0.88342551  0.41320604  1  0  0.230749  0  3.663577  0  0  0.175055  0  3.958313  0  0  0.188347  0  3.965333  0  0  0.160085  0.16696  0  3.950883  0
C  C52  1  0.50893643  0.25316677  0.66957003  1  0  0.19115  0  3.620967  0  0  0.112618  0  3.89292  0  0  0.138222  0  3.906169  0  0  0.165369  0.102714  0  3.886526  0
C  C53  1  0.49105843  0.74683438  0.33043128  1  0  0.191261  0  3.620911  0  0  0.112717  0  3.89284  0  0  0.138348  0  3.906093  0  0  0.16542  0.102805  0  3.886459  0
C  C54  1  0.50089899  0.77472721  0.67768504  1  0  0.177795  0  3.63336  0  0  0.098276  0  3.899429  0  0  0.124578  0  3.91259  0  0  0.161707  0.088832  0  3.893021  0
C  C55  1  0.49910542  0.22527292  0.32231251  1  0  0.177876  0  3.633277  0  0  0.098351  0  3.89932  0  0  0.124636  0  3.912475  0  0  0.161777  0.088907  0  3.893056  0
C  C56  1  0.32445245  0.86463319  0.77205794  1  0  0.196794  0  3.65771  0  0  0.147913  0  3.944511  0  0  0.15952  0  3.95217  0  0  0.149727  0.140885  0  3.936199  0
C  C57  1  0.67555199  0.13536696  0.22794310  1  0  0.196764  0  3.657812  0  0  0.147889  0  3.944615  0  0  0.159493  0  3.95228  0  0  0.149607  0.140817  0  3.936192  0
C  C58  1  0.11562340  0.77398728  0.56140410  1  0  0.664307  0  3.936743  0  0  0.606488  0  4.250595  0  0  0.641753  0  4.23975  0  0  0.204907  0.582963  0  4.256933  0
C  C59  1  0.88438588  0.22602108  0.43858854  1  0  0.664216  0  3.9369  0  0  0.606405  0  4.250765  0  0  0.641675  0  4.23991  0  0  0.204879  0.582863  0  4.257056  0
C  C60  1  0.18412574  0.33916533  0.86256303  1  0  -0.101958  0  3.688958  0  0  -0.092973  0  3.940679  0  0  -0.099626  0  3.958022  0  0  -0.007079  -0.089675  0  3.928681  0
C  C61  1  0.81586305  0.66082944  0.13744034  1  0  -0.101806  0  3.689247  0  0  -0.092827  0  3.94088  0  0  -0.099486  0  3.958244  0  0  -0.00708  -0.089523  0  3.928894  0
C  C62  1  0.23031018  0.43844128  0.90395832  1  0  -0.050447  0  3.745263  0  0  -0.073973  0  4.001033  0  0  -0.073841  0  4.020845  0  0  -0.083014  -0.073914  0  3.988847  0
C  C63  1  0.76968463  0.56155163  0.09605086  1  0  -0.050524  0  3.745688  0  0  -0.074062  0  4.001493  0  0  -0.073928  0  4.021305  0  0  -0.083063  -0.07402  0  3.989326  0
C  C64  1  0.14709795  0.54900213  0.90241938  1  0  -0.125679  0  3.723734  0  0  -0.154224  0  3.990957  0  0  -0.157313  0  4.00749  0  0  -0.084033  -0.152734  0  3.978912  0
C  C65  1  0.85289925  0.45099257  0.09758585  1  0  -0.125784  0  3.724006  0  0  -0.154323  0  3.99122  0  0  -0.157416  0  4.007732  0  0  -0.084038  -0.152812  0  3.979115  0
C  C66  1  0.01501910  0.56385672  0.85622224  1  0  0.190922  0  3.795286  0  0  0.168926  0  4.051123  0  0  0.186176  0  4.073322  0  0  0.103171  0.164646  0  4.036828  0
C  C67  1  0.98498893  0.43614249  0.14377990  1  0  0.190982  0  3.795385  0  0  0.16892  0  4.05125  0  0  0.186231  0  4.073419  0  0  0.103039  0.164653  0  4.036916  0
C  C68  1  0.96720615  0.46826558  0.81238198  1  0  -0.22642  0  3.720018  0  0  -0.256447  0  3.982135  0  0  -0.262092  0  3.996066  0  0  -0.0898  -0.251667  0  3.967903  0
C  C69  1  0.03279461  0.53172999  0.18761786  1  0  -0.226463  0  3.720063  0  0  -0.256475  0  3.982161  0  0  -0.262128  0  3.996084  0  0  -0.089745  -0.25169  0  3.967938  0
C  C70  1  0.05151240  0.35722874  0.81656491  1  0  0.165308  0  3.759935  0  0  0.139374  0  4.010387  0  0  0.155849  0  4.03359  0  0  0.102592  0.135455  0  3.995902  0
C  C71  1  0.94848362  0.64277056  0.18343507  1  0  0.165276  0  3.759708  0  0  0.139356  0  4.010114  0  0  0.155796  0  4.033315  0  0  0.10262  0.135416  0  3.995636  0
C  C72  1  0.85228683  0.73270508  0.78528338  1  0  0.179441  0  3.63345  0  0  0.099967  0  3.903075  0  0  0.126106  0  3.916243  0  0  0.15972  0.09025  0  3.896679  0
C  C73  1  0.14771999  0.26729413  0.21471679  1  0  0.179395  0  3.633504  0  0  0.099855  0  3.903159  0  0  0.126041  0  3.91633  0  0  0.15963  0.090124  0  3.896738  0
C  C74  1  0.86703642  0.85500672  0.88751061  1  0  0.22381  0  3.647405  0  0  0.172894  0  3.932571  0  0  0.184825  0  3.941085  0  0  0.157942  0.165601  0  3.924433  0
C  C75  1  0.13296923  0.14499525  0.11248870  1  0  0.223623  0  3.64726  0  0  0.172797  0  3.932455  0  0  0.184729  0  3.940959  0  0  0.157904  0.165519  0  3.924389  0
C  C76  1  0.85335489  0.20560979  0.79224982  1  0  0.174493  0  3.62598  0  0  0.09821  0  3.884926  0  0  0.123702  0  3.89883  0  0  0.165679  0.089017  0  3.878139  0
C  C77  1  0.14664237  0.79439043  0.20775202  1  0  0.17422  0  3.626329  0  0  0.097965  0  3.885259  0  0  0.123417  0  3.899157  0  0  0.165646  0.088799  0  3.878458  0
C  C78  1  0.00546765  0.12513557  0.68035534  1  0  0.214526  0  3.649527  0  0  0.164396  0  3.936781  0  0  0.176113  0  3.944743  0  0  0.155348  0.157172  0  3.928594  0
C  C79  1  0.99452731  0.87487111  0.31964678  1  0  0.214421  0  3.649286  0  0  0.164279  0  3.936517  0  0  0.175998  0  3.944485  0  0  0.155363  0.157115  0  3.92828  0
C  C80  1  0.27191401  0.21726089  0.87625059  1  0  0.641767  0  3.953965  0  0  0.588284  0  4.269258  0  0  0.622091  0  4.261346  0  0  0.192946  0.565479  0  4.273898  0
C  C81  1  0.72805536  0.78271838  0.12375448  1  0  0.64164  0  3.953785  0  0  0.588269  0  4.268904  0  0  0.622077  0  4.260999  0  0  0.192853  0.565402  0  4.273494  0
N  N82  1  0.42687902  0.30463280  0.60142721  1  0  -0.003354  0  3.606004  0  0  0.108921  0  3.792687  0  0  0.066107  0  3.855279  0  0  -0.119926  0.116648  0  3.776436  0
N  N83  1  0.57312186  0.69536831  0.39857623  1  0  -0.003561  0  3.606029  0  0  0.108795  0  3.792652  0  0  0.065902  0  3.855329  0  0  -0.119925  0.116551  0  3.776352  0
N  N84  1  0.39425732  0.21737852  0.54778631  1  0  -0.252191  0  2.880729  0  0  -0.251042  0  3.160942  0  0  -0.249469  0  3.17903  0  0  -0.208591  -0.245269  0  3.15228  0
N  N85  1  0.60573876  0.78262263  0.45221627  1  0  -0.252037  0  2.880662  0  0  -0.250942  0  3.16087  0  0  -0.249338  0  3.178965  0  0  -0.208531  -0.245153  0  3.15217  0
N  N86  1  0.53099906  0.13414850  0.66187825  1  0  -0.385025  0  3.162054  0  0  -0.316298  0  3.452298  0  0  -0.335736  0  3.461209  0  0  -0.327172  -0.303325  0  3.443578  0
N  N87  1  0.46899703  0.86585357  0.33812423  1  0  -0.385035  0  3.16202  0  0  -0.316312  0  3.452249  0  0  -0.335748  0  3.46115  0  0  -0.327193  -0.303374  0  3.443558  0
N  N88  1  0.35695772  0.72139758  0.68522306  1  0  0.002184  0  3.604892  0  0  0.120777  0  3.785498  0  0  0.076006  0  3.851373  0  0  -0.119571  0.127899  0  3.769974  0
N  N89  1  0.64304546  0.27860255  0.31477113  1  0  0.001926  0  3.605034  0  0  0.120636  0  3.785478  0  0  0.075903  0  3.851313  0  0  -0.119565  0.12784  0  3.770001  0
N  N90  1  0.24266069  0.77851310  0.74462877  1  0  -0.236031  0  2.87332  0  0  -0.242381  0  3.148896  0  0  -0.238948  0  3.169528  0  0  -0.20771  -0.23735  0  3.138383  0
N  N91  1  0.75734129  0.22148704  0.25536626  1  0  -0.235914  0  2.873334  0  0  -0.242298  0  3.14888  0  0  -0.238877  0  3.169504  0  0  -0.20757  -0.237176  0  3.138281  0
N  N92  1  0.48428238  0.86499772  0.73256282  1  0  -0.404664  0  3.244963  0  0  -0.330859  0  3.534539  0  0  -0.350992  0  3.543413  0  0  -0.341559  -0.316956  0  3.524962  0
N  N93  1  0.51572209  0.13500245  0.26744102  1  0  -0.404628  0  3.24492  0  0  -0.330876  0  3.534546  0  0  -0.351008  0  3.543426  0  0  -0.341773  -0.317221  0  3.525055  0
N  N94  1  0.93343134  0.67783382  0.85265205  1  0  -0.00423  0  3.627581  0  0  0.109324  0  3.813022  0  0  0.065539  0  3.876093  0  0  -0.121152  0.116601  0  3.79781  0
N  N95  1  0.06657431  0.32216816  0.14734796  1  0  -0.004235  0  3.627622  0  0  0.109449  0  3.812965  0  0  0.065547  0  3.876133  0  0  -0.121147  0.116655  0  3.797749  0
N  N96  1  0.94531176  0.75606197  0.91773033  1  0  -0.247345  0  2.860618  0  0  -0.247988  0  3.129313  0  0  -0.245693  0  3.149167  0  0  -0.209524  -0.242516  0  3.119813  0
N  N97  1  0.05468787  0.24393731  0.08227134  1  0  -0.247278  0  2.860658  0  0  -0.247982  0  3.129321  0  0  -0.245646  0  3.149189  0  0  -0.20943  -0.242432  0  3.119786  0
N  N98  1  0.80755913  0.84471057  0.80591075  1  0  -0.39383  0  3.179682  0  0  -0.323961  0  3.470077  0  0  -0.343557  0  3.479293  0  0  -0.33369  -0.310704  0  3.460962  0
N  N99  1  0.19245011  0.15528863  0.19409195  1  0  -0.393659  0  3.179468  0  0  -0.323776  0  3.469823  0  0  -0.343376  0  3.47903  0  0  -0.333563  -0.310511  0  3.46072  0
N  N100  1  0.99741484  0.26171243  0.77171673  1  0  0.007933  0  3.623045  0  0  0.124256  0  3.804755  0  0  0.081237  0  3.868889  0  0  -0.118236  0.13095  0  3.789926  0
N  N101  1  0.00258368  0.73829237  0.22828379  1  0  0.008108  0  3.623089  0  0  0.124423  0  3.804786  0  0  0.081511  0  3.868799  0  0  -0.118141  0.131151  0  3.789966  0
N  N102  1  0.09595132  0.21121558  0.70061592  1  0  -0.230262  0  2.863862  0  0  -0.23614  0  3.138068  0  0  -0.233164  0  3.158886  0  0  -0.205847  -0.231007  0  3.127635  0
N  N103  1  0.90404348  0.78878371  0.29938070  1  0  -0.230362  0  2.863798  0  0  -0.236241  0  3.138011  0  0  -0.233298  0  3.15881  0  0  -0.205891  -0.231059  0  3.127518  0
N  N104  1  0.85475827  0.11876371  0.73516668  1  0  -0.39242  0  3.233533  0  0  -0.319092  0  3.524738  0  0  -0.339193  0  3.534007  0  0  -0.337305  -0.305254  0  3.515268  0
N  N105  1  0.14524007  0.88123186  0.26483063  1  0  -0.392276  0  3.233572  0  0  -0.318993  0  3.5248  0  0  -0.339096  0  3.534086  0  0  -0.337258  -0.30514  0  3.515312  0
O  O106  1  0.96543940  0.76349632  0.56516444  1  0  -0.642791  0  1.95981  0  0  -0.584959  0  2.186665  0  0  -0.612287  0  2.17675  0  0  -0.322925  -0.565361  0  2.192839  0
O  O107  1  0.03456263  0.23650933  0.43482511  1  0  -0.642716  0  1.960073  0  0  -0.58489  0  2.186951  0  0  -0.612206  0  2.17701  0  0  -0.322889  -0.565264  0  2.193084  0
O  O108  1  0.77766588  0.95021870  0.59640924  1  0  -0.864813  0  1.921266  0  0  -0.799624  0  2.139076  0  0  -0.821628  0  2.104335  0  0  -0.595061  -0.784037  0  2.163297  0
O  O109  1  0.22233848  0.04977867  0.40358861  1  0  -0.864892  0  1.9212  0  0  -0.799703  0  2.139036  0  0  -0.821702  0  2.104288  0  0  -0.59516  -0.784215  0  2.163252  0
O  O110  1  0.19618128  0.87208146  0.54797836  1  0  -0.635049  0  1.966017  0  0  -0.586163  0  2.197541  0  0  -0.611152  0  2.187685  0  0  -0.326199  -0.568233  0  2.202885  0
O  O111  1  0.80381843  0.12792333  0.45202133  1  0  -0.635013  0  1.965818  0  0  -0.586112  0  2.197319  0  0  -0.611108  0  2.187464  0  0  -0.326148  -0.568145  0  2.202638  0
O  O112  1  0.56902814  0.02690522  0.87957251  1  0  -0.839218  0  1.892248  0  0  -0.784683  0  2.106496  0  0  -0.805147  0  2.075054  0  0  -0.57925  -0.770329  0  2.128565  0
O  O113  1  0.43097391  0.97309587  0.12042800  1  0  -0.83941  0  1.892133  0  0  -0.784818  0  2.106487  0  0  -0.805278  0  2.075043  0  0  -0.579397  -0.770618  0  2.128579  0
O  O114  1  0.42045569  0.22904501  0.88284303  1  0  -0.678104  0  1.950096  0  0  -0.623088  0  2.170592  0  0  -0.650187  0  2.159012  0  0  -0.356252  -0.603843  0  2.178006  0
O  O115  1  0.57953423  0.77094788  0.11715551  1  0  -0.677955  0  1.95065  0  0  -0.622966  0  2.171087  0  0  -0.650058  0  2.159508  0  0  -0.356171  -0.603705  0  2.178473  0
O  O116  1  0.19770672  0.11858364  0.88284709  1  0  -0.60647  0  1.87637  0  0  -0.5713  0  2.096244  0  0  -0.593172  0  2.087585  0  0  -0.335402  -0.55541  0  2.101085  0
O  O117  1  0.80228341  0.88141849  0.11715954  1  0  -0.606672  0  1.875369  0  0  -0.571542  0  2.095174  0  0  -0.593424  0  2.086521  0  0  -0.335512  -0.555621  0  2.099988  0
