# generated using pymatgen
data_Zn2H24C36S5Br4(N2O3)5
_symmetry_space_group_name_H-M   'P 1'
_cell_length_a   20.01943731
_cell_length_b   20.23228928
_cell_length_c   20.28955612
_cell_angle_alpha   108.44478935
_cell_angle_beta   104.69009033
_cell_angle_gamma   113.03553233
_symmetry_Int_Tables_number   1
_chemical_formula_structural   Zn2H24C36S5Br4(N2O3)5
_chemical_formula_sum   'Zn4 H48 C72 S10 Br8 N20 O30'
_cell_volume   6469.24035239
_cell_formula_units_Z   2
loop_
 _symmetry_equiv_pos_site_id
 _symmetry_equiv_pos_as_xyz
  1  'x, y, z'
loop_
 _atom_site_type_symbol
 _atom_site_label
 _atom_site_symmetry_multiplicity
 _atom_site_fract_x
 _atom_site_fract_y
 _atom_site_fract_z
 _atom_site_occupancy
 _atom_site_pbe_bader_charge
 _atom_site_pbe_bader_spin_density
 _atom_site_pbe_cm5_charge
 _atom_site_pbe_ddec_charge
 _atom_site_pbe_ddec_spin_density
 _atom_site_pbe_ddec_sum_bond_order
 _atom_site_pbe_magmom
Zn  Zn0  1  0.61060329  0.60622288  0.49264973  1  1.238411  0  0.735327  0.674343  0  2.331632  0
Zn  Zn1  1  0.39377391  0.40355751  0.51020670  1  1.197322  0  0.760916  0.611871  0  2.490733  0
Zn  Zn2  1  0.50288469  0.60941476  0.60204685  1  1.231147  0  0.742911  0.653146  0  2.407309  0
Zn  Zn3  1  0.50373499  0.40044762  0.41869391  1  1.193486  0  0.745226  0.61053  0  2.495548  0
H  H4  1  0.76442811  0.79686848  0.60685585  1  0.118086  0  0.119821  0.109191  0  0.997401  0
H  H5  1  0.08882976  0.61233091  0.60797731  1  0.035921  0  0.092042  0.096569  0  0.986443  0
H  H6  1  0.04408387  0.52417477  0.51856678  1  0.033508  0  0.097331  0.101876  0  0.971563  0
H  H7  1  0.92498651  0.39478296  0.64095353  1  0.073965  0  0.091466  0.098679  0  1.025871  0
H  H8  1  0.87027669  0.36994200  0.54506540  1  0.073974  0  0.109351  0.130505  0  0.948754  0
H  H9  1  0.09317237  0.51298994  0.73300594  1  0.096788  0  0.097232  0.129271  0  1.007739  0
H  H10  1  0.98046287  0.39302762  0.51481760  1  0.095969  0  0.123262  0.124308  0  0.940427  0
H  H11  1  0.64428878  0.63454672  0.75010480  1  0.100381  0  0.128244  0.12061  0  0.977103  0
H  H12  1  0.49625163  0.04764717  0.52503788  1  0.183344  0  0.113522  0.132789  0  1.034107  0
H  H13  1  0.40216387  0.94096372  0.31901494  1  0.134675  0  0.113097  0.116547  0  0.970863  0
H  H14  1  0.40506348  0.83380551  0.32596036  1  0.114225  0  0.113429  0.113293  0  0.961365  0
H  H15  1  0.22212427  0.37363459  0.53581681  1  0.145936  0  0.138879  0.142571  0  0.96065  0
H  H16  1  0.26602980  0.90889267  0.41822445  1  0.107631  0  0.122875  0.13571  0  0.961597  0
H  H17  1  0.28573938  0.80710410  0.43183754  1  0.068976  0  0.111041  0.129797  0  0.94813  0
H  H18  1  0.39554935  0.90412760  0.54232021  1  0.085392  0  0.119944  0.125603  0  0.977514  0
H  H19  1  0.62112810  0.37326406  0.52909308  1  0.10981  0  0.122992  0.11619  0  0.98946  0
H  H20  1  0.28819693  0.77523185  0.34115340  1  0.072867  0  0.106054  0.114211  0  0.991301  0
H  H21  1  0.65552639  0.61131168  0.86671018  1  0.114211  0  0.113073  0.130009  0  1.008123  0
H  H22  1  0.76744830  0.60000939  0.17207400  1  0.126553  0  0.11854  0.130967  0  0.981018  0
H  H23  1  0.74075848  0.60137612  0.28529179  1  0.057995  0  0.109459  0.113103  0  0.990069  0
H  H24  1  0.60837564  0.37428423  0.72192896  1  0.094944  0  0.112768  0.130791  0  0.981107  0
H  H25  1  0.57103594  0.34255551  0.15116189  1  0.128571  0  0.096409  0.109063  0  1.067915  0
H  H26  1  0.35786660  0.61186317  0.49659914  1  0.120913  0  0.121302  0.116967  0  0.998092  0
H  H27  1  0.23594249  0.35960528  0.15651454  1  0.100332  0  0.111426  0.117421  0  0.981048  0
H  H28  1  0.49795713  0.37133963  0.62665177  1  0.076817  0  0.121573  0.111925  0  1.000731  0
H  H29  1  0.11015377  0.26379323  0.03385316  1  0.103784  0  0.117949  0.125532  0  0.976981  0
H  H30  1  0.83954101  0.04818390  0.93820576  1  0.092509  0  0.115281  0.119082  0  0.995115  0
H  H31  1  0.71879309  0.92585956  0.82520518  1  0.066703  0  0.112053  0.115692  0  0.984389  0
H  H32  1  0.85560213  0.93332480  0.69059519  1  0.079719  0  0.116851  0.128956  0  0.982975  0
H  H33  1  0.47486099  0.21555443  0.37597911  1  0.129794  0  0.121996  0.10819  0  1.006143  0
H  H34  1  0.61312604  0.80029579  0.72606056  1  0.124442  0  0.124436  0.121045  0  1.004916  0
H  H35  1  0.66927804  0.60913082  0.35506427  1  0.119399  0  0.125682  0.129964  0  0.996566  0
H  H36  1  0.53419651  0.77151350  0.35855138  1  0.626563  0  0.293757  0.336109  0  0.994057  0
H  H37  1  0.38920301  0.36665457  0.25598475  1  0.098423  0  0.122059  0.114641  0  0.991222  0
H  H38  1  0.29669247  0.69461887  0.63555165  1  0.636514  0  0.35725  0.408086  0  0.831866  0
H  H39  1  0.02784338  0.34700264  0.69956556  1  0.634785  0  0.359006  0.410826  0  0.827805  0
H  H40  1  0.48890342  0.00650644  0.67337591  1  0.635286  0  0.324495  0.392211  0  0.908809  0
H  H41  1  0.13669219  0.74140025  0.23456457  1  0.634867  0  0.364008  0.415058  0  0.822311  0
H  H42  1  0.31622333  0.05269119  0.49989891  1  0.634642  0  0.327853  0.374959  0  0.894631  0
H  H43  1  0.59172552  0.59829902  0.02490182  1  0.620695  0  0.355874  0.406087  0  0.831331  0
H  H44  1  0.58049834  0.35434094  0.94477899  1  0.622709  0  0.287428  0.288445  0  1.070996  0
H  H45  1  0.18077628  0.06193231  0.20014377  1  0.632353  0  0.359652  0.415097  0  0.819323  0
H  H46  1  0.05115045  0.15321829  0.90720738  1  0.627375  0  0.292542  0.294879  0  1.061092  0
H  H47  1  0.23212341  0.34851367  0.37068279  1  0.128625  0  0.122669  0.117531  0  0.989412  0
H  H48  1  0.13781863  0.60800784  0.73412220  1  0.079513  0  0.102506  0.13322  0  0.969987  0
H  H49  1  0.91303190  0.48466990  0.50953970  1  0.015485  0  0.100617  0.110291  0  0.957087  0
H  H50  1  0.32468437  0.21567973  0.49703714  1  0.110803  0  0.130968  0.123483  0  0.972293  0
H  H51  1  0.95682322  0.58650112  0.57897485  1  0.058983  0  0.091609  0.102832  0  1.002605  0
C  C52  1  0.71834982  0.78456082  0.62768748  1  0.433175  0  0.021287  -0.021362  0  3.98059  0
C  C53  1  0.50304635  0.66756131  0.44307033  1  0.313602  0  0.084884  -0.065179  0  3.956852  0
C  C54  1  0.57890202  0.41506787  0.30385992  1  0.447049  0  0.081952  0.130563  0  4.01721  0
C  C55  1  0.36468206  0.22914110  0.46954462  1  0.476883  0  0.026792  -0.038274  0  3.952505  0
C  C56  1  0.34658270  0.57010297  0.62470121  1  0.320087  0  0.075628  -0.097923  0  4.044888  0
C  C57  1  0.62508749  0.47601260  0.28768388  1  0.009331  0  -0.035063  -0.093882  0  4.058556  0
C  C58  1  0.26875257  0.50693248  0.60254684  1  0.105404  0  -0.012359  0.060199  0  4.17476  0
C  C59  1  0.43925307  0.67749689  0.45212394  1  0.087295  0  -0.013089  0.05423  0  4.144733  0
C  C60  1  0.28078881  0.33832810  0.28154985  1  -0.004532  0  -0.040241  -0.052459  0  4.091384  0
C  C61  1  0.00984146  0.55476078  0.70554950  1  -0.014389  0  0.023514  0.177702  0  3.533895  0
C  C62  1  0.96005521  0.53145277  0.56771343  1  0.002099  0  -0.158272  -0.188637  0  3.843565  0
C  C63  1  0.39199401  0.18113834  0.43210331  1  0.116343  0  -0.028066  0.031833  0  4.190216  0
C  C64  1  0.04385796  0.54703301  0.57529925  1  -0.018316  0  -0.157889  -0.196566  0  3.859621  0
C  C65  1  0.20419233  0.51210752  0.61339068  1  0.177532  0  -0.056293  -0.107941  0  4.187152  0
C  C66  1  0.93786985  0.49945180  0.62422772  1  0.135082  0  -0.004699  0.134421  0  3.885976  0
C  C67  1  0.60109168  0.57078105  0.70995628  1  0.417946  0  0.021344  -0.026569  0  3.925686  0
C  C68  1  0.08329734  0.54770877  0.70376319  1  -0.031313  0  -0.168375  -0.284172  0  3.832896  0
C  C69  1  0.07034591  0.50463733  0.61935521  1  0.128271  0  0.005888  0.19513  0  3.864285  0
C  C70  1  0.99800357  0.41525257  0.57709808  1  -0.116674  0  -0.064535  -0.187809  0  3.741282  0
C  C71  1  0.92779574  0.41363454  0.59613994  1  -0.042671  0  -0.155908  -0.212116  0  3.851554  0
C  C72  1  0.14408116  0.51001751  0.61773349  1  -0.471713  0  -0.042938  -0.101523  0  4.057194  0
C  C73  1  0.86335834  0.49610412  0.62146364  1  0.118667  0  -0.064733  -0.135206  0  4.098955  0
C  C74  1  0.59116356  0.50085512  0.71706604  1  0.057626  0  -0.031419  -0.041222  0  4.056956  0
C  C75  1  0.79946837  0.49399895  0.60534583  1  -0.43393  0  -0.05555  -0.077779  0  4.170825  0
C  C76  1  0.43462705  0.00069572  0.50914395  1  -0.154707  0  -0.08025  -0.227086  0  3.747905  0
C  C77  1  0.43388239  0.95777746  0.37946200  1  -0.035119  0  -0.068942  -0.030678  0  3.656913  0
C  C78  1  0.44153096  0.88561244  0.38391324  1  -0.028399  0  -0.068364  -0.031614  0  3.662689  0
C  C79  1  0.64800611  0.43682925  0.54264279  1  0.477413  0  0.016967  -0.037611  0  3.934135  0
C  C80  1  0.42010048  0.73464606  0.44262059  1  -0.286372  0  -0.04262  -0.065059  0  4.146096  0
C  C81  1  0.38408786  0.97572054  0.42332994  1  0.122017  0  0.006545  0.162601  0  3.874078  0
C  C82  1  0.43682915  0.92917926  0.51845198  1  -0.086246  0  -0.078148  -0.210714  0  3.727559  0
C  C83  1  0.40615141  0.85872223  0.43722499  1  0.123724  0  0.005125  0.170499  0  3.865007  0
C  C84  1  0.31462074  0.82801562  0.39739148  1  -0.038335  0  -0.151223  -0.21731  0  3.850164  0
C  C85  1  0.72969747  0.49836109  0.58138781  1  0.092945  0  -0.032257  -0.00094  0  4.178326  0
C  C86  1  0.30179629  0.89555940  0.38895083  1  -0.113153  0  -0.071841  -0.192848  0  3.745954  0
C  C87  1  0.41359248  0.79116852  0.44023330  1  0.04784  0  -0.058876  -0.13649  0  4.094089  0
C  C88  1  0.37502988  0.04216435  0.41911473  1  0.184914  0  -0.077416  -0.203425  0  4.158007  0
C  C89  1  0.37921418  0.10550824  0.42486586  1  -0.536504  0  -0.027158  -0.027347  0  4.131904  0
C  C90  1  0.65021872  0.47280397  0.22615076  1  0.015498  0  0.007746  0.130227  0  4.005999  0
C  C91  1  0.52691677  0.43635561  0.64637225  1  0.443922  0  0.013742  -0.041673  0  3.960601  0
C  C92  1  0.61450115  0.40008225  0.15746610  1  0.063985  0  -0.083819  -0.136089  0  3.939753  0
C  C93  1  0.63113557  0.39883292  0.09496944  1  -0.193219  0  -0.006154  -0.123835  0  3.882733  0
C  C94  1  0.68464653  0.47289285  0.09838879  1  0.415722  0  0.095925  0.147481  0  4.003952  0
C  C95  1  0.72540278  0.54417614  0.16973088  1  -0.059218  0  -0.064545  -0.10325  0  3.931338  0
C  C96  1  0.63865734  0.54716526  0.34581556  1  0.456197  0  0.022593  -0.0228  0  3.943988  0
C  C97  1  0.70910171  0.54454636  0.23204566  1  -0.00227  0  -0.085883  -0.131305  0  3.962716  0
C  C98  1  0.67096421  0.54235897  0.92355641  1  -0.178767  0  -0.010264  -0.135727  0  3.904444  0
C  C99  1  0.65318221  0.55460082  0.85906617  1  -0.005161  0  -0.083767  -0.144347  0  3.952302  0
C  C100  1  0.66105614  0.46615169  0.91576656  1  0.461678  0  0.091736  0.113836  0  3.999301  0
C  C101  1  0.62609185  0.49344302  0.78477011  1  0.048091  0  0.005064  0.124829  0  4.020727  0
C  C102  1  0.62458768  0.42148445  0.77774172  1  0.003832  0  -0.086831  -0.170175  0  3.947814  0
C  C103  1  0.72709356  0.56692378  0.58030963  1  0.458832  0  0.083267  0.133646  0  3.99757  0
C  C104  1  0.64131389  0.40851702  0.84160375  1  -0.085619  0  -0.006935  0.051377  0  3.955175  0
C  C105  1  0.77941522  0.91681916  0.75081158  1  -0.049493  0  0.017988  0.129903  0  3.995077  0
C  C106  1  0.85109201  0.95724655  0.74448654  1  0.116249  0  -0.075949  -0.129748  0  3.922997  0
C  C107  1  0.26992158  0.43667548  0.56271470  1  0.462422  0  0.03552  -0.029805  0  3.873338  0
C  C108  1  0.91854160  0.02569174  0.80773903  1  -0.194089  0  -0.005154  -0.134697  0  3.926609  0
C  C109  1  0.91605012  0.05677819  0.87957229  1  0.397109  0  0.089534  0.146275  0  4.03061  0
C  C110  1  0.84184775  0.02188385  0.88356151  1  -0.007955  0  -0.073268  -0.118728  0  3.959782  0
C  C111  1  0.77501012  0.95366594  0.82037934  1  -0.014632  0  -0.077238  -0.115956  0  3.950684  0
C  C112  1  0.12217940  0.24825372  0.08060176  1  -0.03456  0  -0.073695  -0.115424  0  3.955921  0
C  C113  1  0.19253293  0.30080582  0.14819469  1  -0.009193  0  -0.084777  -0.123916  0  3.983386  0
C  C114  1  0.06260837  0.17643742  0.07329365  1  0.418939  0  0.084863  0.117111  0  4.065193  0
C  C115  1  0.44171516  0.22932117  0.40763409  1  0.467375  0  0.027273  -0.029846  0  3.936741  0
C  C116  1  0.20890762  0.28079912  0.20832487  1  0.039276  0  0.011818  0.113235  0  3.987288  0
C  C117  1  0.15236653  0.20405940  0.19767208  1  -0.118523  0  -0.021189  -0.190203  0  3.880389  0
C  C118  1  0.40712951  0.62312747  0.48005639  1  0.477414  0  0.022134  -0.029279  0  3.89142  0
C  C119  1  0.07655089  0.15622444  0.13416739  1  -0.09455  0  -0.00273  0.047633  0  3.910959  0
C  C120  1  0.64155455  0.78644222  0.68900741  1  0.388569  0  0.022677  -0.022999  0  3.929897  0
C  C121  1  0.71552804  0.83626715  0.69111439  1  0.091963  0  -0.028826  -0.039786  0  4.054492  0
C  C122  1  0.36223962  0.37146383  0.29619614  1  0.448919  0  0.01525  -0.027976  0  3.928471  0
C  C123  1  0.28219986  0.36147072  0.35516792  1  0.418353  0  0.012572  -0.042588  0  3.970817  0
S  S124  1  0.58334847  0.73018094  0.43059485  1  3.117319  0  0.548492  1.158599  0  6.019083  0
S  S125  1  0.01070626  0.06080519  0.79736120  1  3.127431  0  0.523888  1.165845  0  6.057492  0
S  S126  1  0.39215407  0.67489140  0.67793447  1  3.086853  0  0.553723  1.160109  0  6.025173  0
S  S127  1  0.01673036  0.33773743  0.58908544  1  3.013104  0  0.536708  1.159071  0  5.916099  0
S  S128  1  0.53680699  0.96695449  0.59597001  1  3.082948  0  0.531707  1.145038  0  5.912134  0
S  S129  1  0.23951792  0.86093966  0.28844064  1  3.000938  0  0.537345  1.157913  0  5.899778  0
S  S130  1  0.41173443  0.05864279  0.58085014  1  3.021646  0  0.545526  1.168929  0  5.864069  0
S  S131  1  0.69948378  0.62824563  0.01113348  1  3.050399  0  0.541038  1.156714  0  5.984612  0
S  S132  1  0.58541935  0.29966243  0.01575745  1  3.155611  0  0.520955  1.164455  0  6.07471  0
S  S133  1  0.18418752  0.16906195  0.26470522  1  3.04594  0  0.53644  1.160781  0  5.97991  0
Br  Br134  1  0.53502701  0.30211185  0.25637341  1  -0.018829  0  0.076601  -0.017772  0  1.416317  0
Br  Br135  1  0.03603070  0.66871227  0.74100431  1  -0.090603  0  0.001  -0.103786  0  1.324697  0
Br  Br136  1  0.97981925  0.52238880  0.78114382  1  -0.101476  0  -0.013297  -0.11583  0  1.302779  0
Br  Br137  1  0.53483528  0.05826203  0.41521964  1  -0.069435  0  0.024968  -0.050685  0  1.391004  0
Br  Br138  1  0.54935191  0.90077403  0.40704603  1  -0.056289  0  0.065565  -0.024377  0  1.542415  0
Br  Br139  1  0.63764213  0.31009274  0.82851558  1  0.009639  0  0.067312  -0.000386  0  1.406848  0
Br  Br140  1  0.99030660  0.06487162  0.12582965  1  0.030678  0  0.058856  -0.009761  0  1.462571  0
Br  Br141  1  0.81570065  0.67051877  0.61928186  1  -0.009365  0  0.064111  -0.026827  0  1.440081  0
N  N142  1  0.65268125  0.71057509  0.59194817  1  -0.806858  0  -0.270575  -0.200116  0  3.55995  0
N  N143  1  0.65614648  0.43841853  0.97050094  1  -0.558442  0  -0.151469  -0.108621  0  3.450146  0
N  N144  1  0.98902610  0.11578649  0.94444136  1  -0.556709  0  -0.140243  -0.110651  0  3.398836  0
N  N145  1  0.39619597  0.29998342  0.46769566  1  -0.803433  0  -0.26644  -0.163184  0  3.564361  0
N  N146  1  0.98864817  0.12165127  0.00861696  1  -0.460973  0  -0.149207  -0.110741  0  3.307442  0
N  N147  1  0.54624730  0.54858871  0.64080275  1  -0.7735  0  -0.276955  -0.180198  0  3.618635  0
N  N148  1  0.60218048  0.46684157  0.52019120  1  -0.78521  0  -0.279415  -0.173424  0  3.604284  0
N  N149  1  0.50028575  0.46605629  0.60210047  1  -0.823227  0  -0.281612  -0.186795  0  3.655148  0
N  N150  1  0.65098224  0.54755941  0.54387786  1  -0.780222  0  -0.272839  -0.238363  0  3.562767  0
N  N151  1  0.44383598  0.30014356  0.42943778  1  -0.789437  0  -0.263148  -0.160278  0  3.553337  0
N  N152  1  0.60435634  0.71179540  0.62973288  1  -0.799803  0  -0.269986  -0.170663  0  3.530779  0
N  N153  1  0.34241178  0.45807542  0.56193569  1  -0.748219  0  -0.250345  -0.134797  0  3.548447  0
N  N154  1  0.60390970  0.52988645  0.39116210  1  -0.784233  0  -0.25807  -0.152194  0  3.508776  0
N  N155  1  0.44961986  0.58566253  0.48825113  1  -0.76242  0  -0.264374  -0.184883  0  3.50647  0
N  N156  1  0.40805915  0.40893558  0.37293509  1  -0.792246  0  -0.283337  -0.184368  0  3.57458  0
N  N157  1  0.35854865  0.40315041  0.40893608  1  -0.790188  0  -0.284335  -0.178783  0  3.630708  0
N  N158  1  0.50709281  0.61151289  0.46332829  1  -0.727879  0  -0.252477  -0.175576  0  3.570862  0
N  N159  1  0.56721813  0.44752208  0.36540637  1  -0.78748  0  -0.277381  -0.226064  0  3.5729  0
N  N160  1  0.38981814  0.54031385  0.59964966  1  -0.743201  0  -0.245109  -0.180369  0  3.522688  0
N  N161  1  0.69937843  0.49097946  0.04100122  1  -0.461673  0  -0.135625  -0.081057  0  3.302576  0
O  O162  1  0.62203908  0.81248481  0.48892706  1  -1.280193  0  -0.288212  -0.491371  0  2.174458  0
O  O163  1  0.55882233  0.90638785  0.58237584  1  -1.268897  0  -0.287525  -0.479797  0  2.186782  0
O  O164  1  0.59028869  0.04760002  0.60964493  1  -1.286693  0  -0.31527  -0.529387  0  2.13256  0
O  O165  1  0.51365593  0.97215391  0.66650025  1  -1.197678  0  -0.366106  -0.525519  0  2.150981  0
O  O166  1  0.22615268  0.92323097  0.28082438  1  -1.263485  0  -0.296313  -0.497185  0  2.12686  0
O  O167  1  0.26670845  0.82043316  0.23855368  1  -1.294952  0  -0.31958  -0.546591  0  2.097282  0
O  O168  1  0.15769724  0.79138741  0.28140558  1  -1.174814  0  -0.361213  -0.531816  0  2.096685  0
O  O169  1  0.41261702  0.02946040  0.63742038  1  -1.28523  0  -0.29786  -0.520364  0  2.149988  0
O  O170  1  0.46037438  0.14328336  0.60418759  1  -1.273913  0  -0.299924  -0.514602  0  2.133394  0
O  O171  1  0.31841240  0.02839017  0.53532567  1  -1.204433  0  -0.351563  -0.503545  0  2.145146  0
O  O172  1  0.77824422  0.65879672  0.06717353  1  -1.278216  0  -0.302263  -0.511278  0  2.14213  0
O  O173  1  0.62943115  0.69063700  0.42166884  1  -1.298722  0  -0.300396  -0.528521  0  2.235868  0
O  O174  1  0.67971863  0.68178450  0.98896981  1  -1.293169  0  -0.325719  -0.548381  0  2.108243  0
O  O175  1  0.63568961  0.58881192  0.04315449  1  -1.168372  0  -0.357708  -0.535611  0  2.16079  0
O  O176  1  0.65059326  0.29127510  0.00459635  1  -1.284713  0  -0.335879  -0.555747  0  2.103526  0
O  O177  1  0.52878248  0.24172763  0.02953479  1  -1.309064  0  -0.325033  -0.525731  0  2.10054  0
O  O178  1  0.53607616  0.30655030  0.94715333  1  -1.253873  0  -0.368115  -0.519396  0  2.234921  0
O  O179  1  0.26904700  0.19879875  0.28898124  1  -1.29354  0  -0.307716  -0.542464  0  2.213221  0
O  O180  1  0.15105378  0.18104919  0.31940281  1  -1.280873  0  -0.312404  -0.518992  0  2.107791  0
O  O181  1  0.14013052  0.07239374  0.21167775  1  -1.173755  0  -0.356084  -0.528029  0  2.198208  0
O  O182  1  0.04726238  0.01774392  0.81969372  1  -1.287914  0  -0.33652  -0.548276  0  2.067265  0
O  O183  1  0.99454025  0.05710076  0.72272086  1  -1.28762  0  -0.325001  -0.526946  0  2.074311  0
O  O184  1  0.54113363  0.72353261  0.34885270  1  -1.220197  0  -0.358509  -0.505004  0  2.187166  0
O  O185  1  0.06098191  0.15351382  0.85974813  1  -1.252936  0  -0.3758  -0.524842  0  2.211375  0
O  O186  1  0.38187112  0.69600186  0.74753100  1  -1.273709  0  -0.299309  -0.50713  0  2.092633  0
O  O187  1  0.47069521  0.70918432  0.67839331  1  -1.302448  0  -0.288696  -0.510439  0  2.223932  0
O  O188  1  0.34141168  0.69742584  0.62260358  1  -1.196093  0  -0.351983  -0.526915  0  2.128551  0
O  O189  1  0.93980102  0.26790255  0.56452689  1  -1.289331  0  -0.319568  -0.534096  0  2.082999  0
O  O190  1  0.07173157  0.33079267  0.55776407  1  -1.283716  0  -0.306826  -0.517197  0  2.130391  0
O  O191  1  0.06459784  0.37725685  0.68206188  1  -1.17869  0  -0.359035  -0.534637  0  2.132696  0
