# generated using pymatgen
data_ZnH4C8O5
_symmetry_space_group_name_H-M   'P 1'
_cell_length_a   11.82774814
_cell_length_b   15.98321836
_cell_length_c   15.54264430
_cell_angle_alpha   101.30907206
_cell_angle_beta   89.99910262
_cell_angle_gamma   90.00032008
_symmetry_Int_Tables_number   1
_chemical_formula_structural   ZnH4C8O5
_chemical_formula_sum   'Zn8 H32 C64 O40'
_cell_volume   2881.21617147
_cell_formula_units_Z   8
loop_
 _symmetry_equiv_pos_site_id
 _symmetry_equiv_pos_as_xyz
  1  'x, y, z'
loop_
 _atom_site_type_symbol
 _atom_site_label
 _atom_site_symmetry_multiplicity
 _atom_site_fract_x
 _atom_site_fract_y
 _atom_site_fract_z
 _atom_site_occupancy
 _atom_site_pbe_bader_charge
 _atom_site_pbe_bader_spin_density
 _atom_site_pbe_cm5_charge
 _atom_site_pbe_ddec_charge
 _atom_site_pbe_ddec_spin_density
 _atom_site_pbe_ddec_sum_bond_order
 _atom_site_pbe_magmom
Zn  Zn0  1  0.48515939  0.71699915  0.15255152  1  1.301316  0  0.717922  0.928627  0  2.15578  0
Zn  Zn1  1  0.53923012  0.40334198  0.66519317  1  1.332521  0  0.714976  0.940161  0  2.247524  0
Zn  Zn2  1  0.98515599  0.78300058  0.84746302  1  1.301366  0  0.717942  0.928663  0  2.155798  0
Zn  Zn3  1  0.03923269  0.09666123  0.33481301  1  1.332322  0  0.714996  0.940114  0  2.247624  0
Zn  Zn4  1  0.51485398  0.28299745  0.84744209  1  1.301513  0  0.71798  0.928673  0  2.155903  0
Zn  Zn5  1  0.46075873  0.59665712  0.33480234  1  1.332394  0  0.714964  0.940165  0  2.247382  0
Zn  Zn6  1  0.01484385  0.21699367  0.15254032  1  1.301406  0  0.717892  0.928568  0  2.155585  0
Zn  Zn7  1  0.96076207  0.90333809  0.66519222  1  1.332369  0  0.714935  0.940081  0  2.247484  0
H  H8  1  0.68238110  0.73862545  0.48015492  1  0.087263  0  0.115144  0.139581  0  0.98386  0
H  H9  1  0.95671395  0.91935000  0.49168019  1  0.138914  0  0.111119  0.139459  0  1.043309  0
H  H10  1  0.74347528  0.86689587  0.26413506  1  0.139993  0  0.113366  0.129231  0  0.994004  0
H  H11  1  0.68233139  0.75774857  0.91965739  1  0.131492  0  0.113717  0.127089  0  0.992563  0
H  H12  1  0.74820651  0.55890929  0.69361370  1  0.100542  0  0.120865  0.142116  0  0.968908  0
H  H13  1  0.57536289  0.49974718  0.91910481  1  0.155211  0  0.115966  0.149502  0  1.014761  0
H  H14  1  0.80822499  0.78052815  0.61060119  1  0.686304  0  0.307762  0.373273  0  0.962632  0
H  H15  1  0.32649115  0.61222750  0.20967729  1  0.667852  0  0.307363  0.370621  0  0.963262  0
H  H16  1  0.18237353  0.76137636  0.51984957  1  0.087392  0  0.115141  0.139581  0  0.983746  0
H  H17  1  0.45671402  0.58064541  0.50830870  1  0.139072  0  0.111133  0.139459  0  1.043257  0
H  H18  1  0.24348520  0.63310828  0.73587339  1  0.139532  0  0.11334  0.129124  0  0.99401  0
H  H19  1  0.18230826  0.74224888  0.08037372  1  0.13133  0  0.113704  0.127203  0  0.992542  0
H  H20  1  0.24820801  0.94111387  0.30638838  1  0.100639  0  0.120944  0.142215  0  0.968686  0
H  H21  1  0.07533091  0.00024254  0.08089354  1  0.155122  0  0.115977  0.149425  0  1.014938  0
H  H22  1  0.30822506  0.71947377  0.38939845  1  0.686292  0  0.307766  0.373289  0  0.962693  0
H  H23  1  0.82648826  0.88776832  0.79031859  1  0.667936  0  0.307384  0.370696  0  0.963141  0
H  H24  1  0.31762465  0.26137149  0.51984586  1  0.08734  0  0.115173  0.139595  0  0.983845  0
H  H25  1  0.04328673  0.08064516  0.50831693  1  0.139067  0  0.111107  0.139426  0  1.043283  0
H  H26  1  0.25651610  0.13310622  0.73586569  1  0.139584  0  0.113355  0.129157  0  0.994015  0
H  H27  1  0.31767859  0.24224579  0.08034340  1  0.13139  0  0.11369  0.127092  0  0.992621  0
H  H28  1  0.25180009  0.44110444  0.30637123  1  0.100549  0  0.120853  0.142077  0  0.968898  0
H  H29  1  0.42465216  0.50024298  0.08087370  1  0.155194  0  0.115967  0.149371  0  1.014798  0
H  H30  1  0.19177316  0.21947187  0.38940292  1  0.686352  0  0.30771  0.373171  0  0.962724  0
H  H31  1  0.67351884  0.38777584  0.79030960  1  0.668022  0  0.307377  0.370598  0  0.963254  0
H  H32  1  0.81763645  0.23863840  0.48015622  1  0.087755  0  0.11518  0.139606  0  0.983872  0
H  H33  1  0.54329258  0.41936372  0.49169314  1  0.139169  0  0.111125  0.139378  0  1.043325  0
H  H34  1  0.75651463  0.36689489  0.26413214  1  0.139614  0  0.113357  0.129168  0  0.994026  0
H  H35  1  0.81768482  0.25774599  0.91964523  1  0.131558  0  0.113688  0.127073  0  0.992612  0
H  H36  1  0.75179774  0.05889792  0.69361153  1  0.100516  0  0.120898  0.142231  0  0.968682  0
H  H37  1  0.92461736  0.99973927  0.91911448  1  0.154856  0  0.115959  0.149417  0  1.014758  0
H  H38  1  0.69178661  0.28053337  0.61060483  1  0.686299  0  0.307713  0.373186  0  0.962636  0
H  H39  1  0.17350566  0.11223131  0.20967963  1  0.667808  0  0.307373  0.370521  0  0.963387  0
C  C40  1  0.61168629  0.74795807  0.31702730  1  1.568038  0  0.236505  0.627354  0  4.14712  0
C  C41  1  0.70533339  0.79724871  0.36701144  1  -0.04286  0  -0.017143  -0.023731  0  4.009589  0
C  C42  1  0.73209720  0.78355296  0.45134565  1  0.024963  0  -0.089132  -0.21268  0  3.910734  0
C  C43  1  0.82187632  0.82870075  0.49646074  1  0.385413  0  0.082372  0.326522  0  4.052592  0
C  C44  1  0.88627062  0.88397653  0.45710050  1  0.018937  0  -0.088502  -0.202651  0  3.892698  0
C  C45  1  0.85793592  0.89793219  0.37386872  1  0.016999  0  -0.011532  0.003442  0  3.993939  0
C  C46  1  0.92285435  0.96303947  0.33711194  1  1.543478  0  0.199209  0.564273  0  4.199802  0
C  C47  1  0.76637116  0.85522631  0.32854620  1  -0.020956  0  -0.077187  -0.121649  0  3.928492  0
C  C48  1  0.56699926  0.66264661  0.01292161  1  1.499951  0  0.206254  0.566549  0  4.159127  0
C  C49  1  0.62418475  0.63177801  0.92759169  1  -0.044971  0  -0.005985  0.006157  0  3.974233  0
C  C50  1  0.67866759  0.69113861  0.88665172  1  -0.051662  0  -0.072328  -0.113541  0  3.920064  0
C  C51  1  0.72394642  0.66509093  0.80259006  1  0.03934  0  -0.017048  -0.036623  0  4.023064  0
C  C52  1  0.77517252  0.72982011  0.75689309  1  1.535257  0  0.232841  0.607789  0  4.11573  0
C  C53  1  0.71628875  0.57940980  0.76015175  1  0.012041  0  -0.07535  -0.180152  0  3.900421  0
C  C54  1  0.66708416  0.52048015  0.80401660  1  0.418477  0  0.080784  0.310899  0  4.022238  0
C  C55  1  0.61948115  0.54532014  0.88719063  1  0.06046  0  -0.071518  -0.180995  0  3.856886  0
C  C56  1  0.11169317  0.75205113  0.68298479  1  1.565504  0  0.23651  0.627112  0  4.14731  0
C  C57  1  0.20533446  0.70275265  0.63299380  1  -0.042723  0  -0.017189  -0.023581  0  4.009395  0
C  C58  1  0.23209057  0.71644460  0.54866397  1  0.02478  0  -0.089057  -0.21261  0  3.910826  0
C  C59  1  0.32187141  0.67129369  0.50353617  1  0.385076  0  0.082277  0.326423  0  4.053087  0
C  C60  1  0.38626494  0.61602529  0.54288867  1  0.019288  0  -0.088534  -0.2027  0  3.892704  0
C  C61  1  0.35793627  0.60205966  0.62613656  1  0.017289  0  -0.011633  0.003243  0  3.994223  0
C  C62  1  0.42286419  0.53695970  0.66287205  1  1.54194  0  0.19927  0.564415  0  4.199659  0
C  C63  1  0.26638503  0.64476954  0.67145079  1  -0.020438  0  -0.077152  -0.12151  0  3.928273  0
C  C64  1  0.06697180  0.83734629  0.98710019  1  1.499834  0  0.206069  0.565947  0  4.158962  0
C  C65  1  0.12415973  0.86821993  0.07243030  1  -0.045069  0  -0.005659  0.006642  0  3.973912  0
C  C66  1  0.17864776  0.80885999  0.11336685  1  -0.051306  0  -0.072568  -0.11398  0  3.919998  0
C  C67  1  0.22394323  0.83491951  0.19741771  1  0.039486  0  -0.016902  -0.036402  0  4.023067  0
C  C68  1  0.27517197  0.77019210  0.24311483  1  1.535359  0  0.232813  0.60785  0  4.115632  0
C  C69  1  0.21628606  0.92059815  0.23985233  1  0.011825  0  -0.075489  -0.180484  0  3.900572  0
C  C70  1  0.16707125  0.97952608  0.19598667  1  0.420302  0  0.080837  0.311176  0  4.022109  0
C  C71  1  0.11945241  0.95468216  0.11281899  1  0.058857  0  -0.071648  -0.181102  0  3.857022  0
C  C72  1  0.38831440  0.25204386  0.68297728  1  1.565171  0  0.2365  0.627189  0  4.147032  0
C  C73  1  0.29467237  0.20275064  0.63299315  1  -0.042586  0  -0.017134  -0.023738  0  4.009296  0
C  C74  1  0.26790772  0.21644454  0.54865720  1  0.024616  0  -0.08909  -0.212518  0  3.910834  0
C  C75  1  0.17812859  0.17129303  0.50353862  1  0.385239  0  0.08224  0.326197  0  4.052936  0
C  C76  1  0.11373260  0.11602185  0.54289677  1  0.019111  0  -0.088452  -0.202461  0  3.892694  0
C  C77  1  0.14205631  0.10206467  0.62613397  1  0.017512  0  -0.011565  0.003207  0  3.994127  0
C  C78  1  0.07714549  0.03695888  0.66288596  1  1.542181  0  0.199214  0.564338  0  4.199659  0
C  C79  1  0.23361515  0.14476941  0.67145300  1  -0.020549  0  -0.077176  -0.121442  0  3.928076  0
C  C80  1  0.43301918  0.33734730  0.98707456  1  1.499509  0  0.2062  0.566337  0  4.159543  0
C  C81  1  0.37582693  0.36821851  0.07240383  1  -0.04558  0  -0.006023  0.0062  0  3.974138  0
C  C82  1  0.32134239  0.30885655  0.11334540  1  -0.051124  0  -0.072323  -0.113706  0  3.919944  0
C  C83  1  0.27605173  0.33491413  0.19740176  1  0.039576  0  -0.016949  -0.036235  0  4.022865  0
C  C84  1  0.22482986  0.27019251  0.24310252  1  1.535689  0  0.232827  0.607686  0  4.115647  0
C  C85  1  0.28371447  0.42058982  0.23983165  1  0.012579  0  -0.075361  -0.180394  0  3.900806  0
C  C86  1  0.33292921  0.47951570  0.19596459  1  0.418257  0  0.08089  0.311194  0  4.022243  0
C  C87  1  0.38053222  0.45468054  0.11279819  1  0.060154  0  -0.071538  -0.180899  0  3.856883  0
C  C88  1  0.88831259  0.24795781  0.31702150  1  1.565339  0  0.236515  0.62727  0  4.146866  0
C  C89  1  0.79467467  0.29725962  0.36701009  1  -0.042689  0  -0.017037  -0.023543  0  4.009193  0
C  C90  1  0.76791942  0.28356157  0.45134680  1  0.024125  0  -0.089262  -0.212702  0  3.910708  0
C  C91  1  0.67814196  0.32871494  0.49646232  1  0.385448  0  0.0824  0.326357  0  4.053027  0
C  C92  1  0.61374166  0.38398376  0.45711508  1  0.018895  0  -0.088513  -0.202454  0  3.892835  0
C  C93  1  0.64206780  0.39794206  0.37387312  1  0.017568  0  -0.011668  0.003179  0  3.994157  0
C  C94  1  0.57713903  0.46303832  0.33711869  1  1.542272  0  0.199201  0.564281  0  4.199233  0
C  C95  1  0.73362158  0.35523333  0.32854694  1  -0.020373  0  -0.077191  -0.121597  0  3.928394  0
C  C96  1  0.93300352  0.16264210  0.01291975  1  1.499901  0  0.206097  0.566315  0  4.159654  0
C  C97  1  0.87581305  0.13177475  0.92759311  1  -0.044832  0  -0.005963  0.006202  0  3.97434  0
C  C98  1  0.82133771  0.19113513  0.88664636  1  -0.051487  0  -0.072384  -0.113573  0  3.919981  0
C  C99  1  0.77605238  0.16508693  0.80258668  1  0.039216  0  -0.017002  -0.036487  0  4.022831  0
C  C100  1  0.72483633  0.22981953  0.75688891  1  1.53506  0  0.23281  0.607621  0  4.115757  0
C  C101  1  0.78371293  0.07940575  0.76015144  1  0.011924  0  -0.075399  -0.180393  0  3.900274  0
C  C102  1  0.83291168  0.02047438  0.80402206  1  0.417995  0  0.080629  0.310857  0  4.021783  0
C  C103  1  0.88050684  0.04531537  0.88719804  1  0.060591  0  -0.071589  -0.181008  0  3.856796  0
O  O104  1  0.57558319  0.68347782  0.34505301  1  -1.18258  0  -0.311961  -0.558756  0  2.440439  0
O  O105  1  0.57588258  0.77390773  0.24899447  1  -1.165994  0  -0.31686  -0.549876  0  2.361306  0
O  O106  1  0.85128557  0.82217960  0.58084264  1  -1.218905  0  -0.353817  -0.493214  0  2.518134  0
O  O107  1  0.00728744  0.99823526  0.38588788  1  -1.150319  0  -0.336378  -0.568903  0  2.301412  0
O  O108  1  0.89647090  0.98520515  0.26699936  1  -1.154963  0  -0.322815  -0.538791  0  2.073574  0
O  O109  1  0.53606182  0.61058102  0.06184606  1  -1.141273  0  -0.312784  -0.534812  0  2.173247  0
O  O110  1  0.54811268  0.74292530  0.03834674  1  -1.135303  0  -0.31976  -0.530288  0  2.135895  0
O  O111  1  0.82818798  0.79405300  0.80836764  1  -1.188228  0  -0.33664  -0.613859  0  2.382983  0
O  O112  1  0.76461305  0.72285143  0.67609136  1  -1.164804  0  -0.280806  -0.487515  0  2.14538  0
O  O113  1  0.66077165  0.43641989  0.75775080  1  -1.202008  0  -0.358685  -0.504595  0  2.541788  0
O  O114  1  0.07559317  0.81652791  0.65495696  1  -1.182867  0  -0.3119  -0.558615  0  2.440712  0
O  O115  1  0.07589998  0.72609826  0.75102458  1  -1.16305  0  -0.316818  -0.549753  0  2.361211  0
O  O116  1  0.35127640  0.67781143  0.41915032  1  -1.218732  0  -0.353742  -0.493182  0  2.518231  0
O  O117  1  0.50729318  0.50177312  0.61410532  1  -1.150409  0  -0.336361  -0.568869  0  2.301751  0
O  O118  1  0.39646161  0.51478090  0.73299928  1  -1.154237  0  -0.322888  -0.538965  0  2.072474  0
O  O119  1  0.03601918  0.88940453  0.93817515  1  -1.140956  0  -0.312792  -0.534576  0  2.173227  0
O  O120  1  0.04810479  0.75705956  0.96166313  1  -1.135509  0  -0.319694  -0.530181  0  2.13578  0
O  O121  1  0.32819022  0.70595963  0.19164198  1  -1.188591  0  -0.336462  -0.613759  0  2.38312  0
O  O122  1  0.26462259  0.77716444  0.32391893  1  -1.164725  0  -0.280898  -0.487616  0  2.145165  0
O  O123  1  0.16075856  0.06358896  0.24224101  1  -1.201833  0  -0.358677  -0.50457  0  2.541918  0
O  O124  1  0.42441580  0.31652247  0.65494473  1  -1.182607  0  -0.311975  -0.558716  0  2.440472  0
O  O125  1  0.42410711  0.22609021  0.75101300  1  -1.163104  0  -0.3168  -0.549711  0  2.361194  0
O  O126  1  0.14871596  0.17781185  0.41915099  1  -1.21865  0  -0.353743  -0.493042  0  2.518091  0
O  O127  1  0.99270733  0.00176783  0.61410475  1  -1.150239  0  -0.336353  -0.568878  0  2.301133  0
O  O128  1  0.10353571  0.01479229  0.73300476  1  -1.154737  0  -0.322778  -0.538796  0  2.073194  0
O  O129  1  0.46396169  0.38940267  0.93814825  1  -1.141317  0  -0.312849  -0.534797  0  2.173662  0
O  O130  1  0.45189731  0.25706576  0.96164101  1  -1.135007  0  -0.319669  -0.530163  0  2.135864  0
O  O131  1  0.17181017  0.20594970  0.19163390  1  -1.1885  0  -0.336605  -0.613779  0  2.382835  0
O  O132  1  0.23537495  0.27715803  0.32390283  1  -1.165008  0  -0.280865  -0.487554  0  2.145251  0
O  O133  1  0.33924003  0.56358194  0.24222606  1  -1.201788  0  -0.358696  -0.504678  0  2.541512  0
O  O134  1  0.92441174  0.18347984  0.34504711  1  -1.182816  0  -0.311957  -0.558738  0  2.440486  0
O  O135  1  0.92411000  0.27390689  0.24898014  1  -1.163236  0  -0.316827  -0.549754  0  2.360995  0
O  O136  1  0.64872598  0.32219385  0.58085122  1  -1.218827  0  -0.35371  -0.493108  0  2.51808  0
O  O137  1  0.49270581  0.49823440  0.38588904  1  -1.150342  0  -0.336409  -0.568887  0  2.3014  0
O  O138  1  0.60353231  0.48521512  0.26699290  1  -1.154698  0  -0.322734  -0.538779  0  2.072613  0
O  O139  1  0.96393416  0.11057388  0.06183719  1  -1.141374  0  -0.312696  -0.534688  0  2.173394  0
O  O140  1  0.95188829  0.24292587  0.03833548  1  -1.135244  0  -0.319605  -0.530145  0  2.135961  0
O  O141  1  0.67181892  0.29405114  0.80836669  1  -1.188025  0  -0.336563  -0.613742  0  2.383121  0
O  O142  1  0.73540176  0.22283970  0.67607910  1  -1.164667  0  -0.280839  -0.487463  0  2.145088  0
O  O143  1  0.83922521  0.93640321  0.75775087  1  -1.201313  0  -0.358505  -0.504557  0  2.541215  0
