# generated using pymatgen
data_Cd2H5C6S(NO)5
_symmetry_space_group_name_H-M   'P 1'
_cell_length_a   6.96175724
_cell_length_b   7.15277386
_cell_length_c   11.48394050
_cell_angle_alpha   82.31494982
_cell_angle_beta   86.57482133
_cell_angle_gamma   86.30252860
_symmetry_Int_Tables_number   1
_chemical_formula_structural   Cd2H5C6S(NO)5
_chemical_formula_sum   'Cd4 H10 C12 S2 N10 O10'
_cell_volume   564.78083382
_cell_formula_units_Z   2
loop_
 _symmetry_equiv_pos_site_id
 _symmetry_equiv_pos_as_xyz
  1  'x, y, z'
loop_
 _atom_site_type_symbol
 _atom_site_label
 _atom_site_symmetry_multiplicity
 _atom_site_fract_x
 _atom_site_fract_y
 _atom_site_fract_z
 _atom_site_occupancy
 _atom_site_hle17_bader_spin_density
 _atom_site_hle17_ddec_charge
 _atom_site_hle17_ddec_spin_density
 _atom_site_hle17_ddec_sum_bond_order
 _atom_site_hle17_magmom
 _atom_site_hse06_10hf_bader_spin_density
 _atom_site_hse06_10hf_ddec_charge
 _atom_site_hse06_10hf_ddec_spin_density
 _atom_site_hse06_10hf_ddec_sum_bond_order
 _atom_site_hse06_10hf_magmom
 _atom_site_hse06_bader_spin_density
 _atom_site_hse06_ddec_charge
 _atom_site_hse06_ddec_spin_density
 _atom_site_hse06_ddec_sum_bond_order
 _atom_site_hse06_magmom
 _atom_site_pbe_bader_spin_density
 _atom_site_pbe_cm5_charge
 _atom_site_pbe_ddec_charge
 _atom_site_pbe_ddec_spin_density
 _atom_site_pbe_ddec_sum_bond_order
 _atom_site_pbe_magmom
Cd  Cd0  1  0.20567159  0.21179214  0.24846179  1  0  1.179229  0  1.689336  0  0  0.977615  0  2.156172  0  0  1.031495  0  2.103718  0  0  0.790324  0.939539  0  2.191869  0
Cd  Cd1  1  0.79433123  0.78820823  0.75153810  1  0  1.17926  0  1.689334  0  0  0.977639  0  2.15618  0  0  1.031517  0  2.103723  0  0  0.790347  0.939564  0  2.191877  0
Cd  Cd2  1  0.50000032  0.50000112  0.99999953  1  0  1.132447  0  1.827783  0  0  0.947572  0  2.298817  0  0  0.996388  0  2.246574  0  0  0.768523  0.912764  0  2.334517  0
Cd  Cd3  1  0.49999993  0.00000085  0.99999997  1  0  1.141773  0  1.790709  0  0  0.957622  0  2.257043  0  0  1.007203  0  2.205305  0  0  0.768753  0.922258  0  2.292355  0
H  H4  1  0.91733976  0.19612221  0.48565318  1  0  0.097228  0  0.937284  0  0  0.105415  0  1.001443  0  0  0.108031  0  0.999332  0  0  0.119207  0.103473  0  1.00304  0
H  H5  1  0.08266336  0.80387250  0.51434716  1  0  0.097298  0  0.937231  0  0  0.105469  0  1.001396  0  0  0.108085  0  0.999282  0  0  0.119217  0.103527  0  1.002988  0
H  H6  1  0.50299896  0.25989041  0.43299499  1  0  0.095451  0  0.971581  0  0  0.103423  0  1.033306  0  0  0.106428  0  1.030254  0  0  0.116015  0.101197  0  1.035549  0
H  H7  1  0.49700172  0.74012265  0.56700660  1  0  0.095407  0  0.971568  0  0  0.103389  0  1.033297  0  0  0.106396  0  1.030243  0  0  0.11598  0.101161  0  1.035541  0
H  H8  1  0.22254224  0.38558715  0.76204839  1  0  0.119577  0  0.946921  0  0  0.127282  0  1.010409  0  0  0.130322  0  1.007801  0  0  0.112769  0.124892  0  1.012556  0
H  H9  1  0.77745043  0.61441464  0.23795351  1  0  0.119622  0  0.946905  0  0  0.127336  0  1.010393  0  0  0.130378  0  1.007783  0  0  0.112795  0.124942  0  1.01254  0
H  H10  1  0.52313095  0.36825991  0.63080871  1  0  0.097018  0  0.979986  0  0  0.102868  0  1.046436  0  0  0.104668  0  1.048514  0  0  0.105905  0.101576  0  1.045174  0
H  H11  1  0.47686549  0.63175174  0.36919314  1  0  0.097037  0  0.980005  0  0  0.102861  0  1.046478  0  0  0.104658  0  1.048558  0  0  0.105896  0.101569  0  1.045215  0
H  H12  1  0.19820074  0.26480319  0.00359615  1  0  0.42344  0  0.83826  0  0  0.408072  0  0.884169  0  0  0.416877  0  0.87386  0  0  0.296978  0.401728  0  0.89  0
H  H13  1  0.80180055  0.73519861  0.99640195  1  0  0.423457  0  0.838252  0  0  0.408092  0  0.884154  0  0  0.416897  0  0.873833  0  0  0.296979  0.401748  0  0.889984  0
C  C14  1  0.04857923  0.23209628  0.52285739  1  0  0.10243  0  3.668711  0  0  0.060991  0  3.92213  0  0  0.068527  0  3.940439  0  0  0.051959  0.056182  0  3.90969  0
C  C15  1  0.95142224  0.76790264  0.47714528  1  0  0.102284  0  3.668655  0  0  0.060885  0  3.922083  0  0  0.068421  0  3.940393  0  0  0.051937  0.056077  0  3.909643  0
C  C16  1  0.37692935  0.27054123  0.49329440  1  0  0.122647  0  3.695995  0  0  0.091183  0  3.942802  0  0  0.099182  0  3.960378  0  0  0.044238  0.086071  0  3.930827  0
C  C17  1  0.62307165  0.72946617  0.50670849  1  0  0.122706  0  3.695815  0  0  0.091222  0  3.94264  0  0  0.099223  0  3.960207  0  0  0.044233  0.086108  0  3.930669  0
C  C18  1  0.04816031  0.28496749  0.63578477  1  0  -0.033747  0  3.763088  0  0  -0.012586  0  4.002626  0  0  -0.019741  0  4.025068  0  0  0.004506  -0.008175  0  3.987636  0
C  C19  1  0.95183690  0.71503008  0.36421469  1  0  -0.033663  0  3.762951  0  0  -0.012581  0  4.002615  0  0  -0.019736  0  4.025056  0  0  0.004477  -0.008171  0  3.987626  0
C  C20  1  0.87619788  0.28258139  0.71591973  1  0  0.301697  0  3.745282  0  0  0.274071  0  4.016602  0  0  0.286262  0  4.032218  0  0  0.233153  0.265886  0  4.006127  0
C  C21  1  0.12380077  0.71741615  0.28408142  1  0  0.301621  0  3.745217  0  0  0.27404  0  4.016535  0  0  0.286231  0  4.032151  0  0  0.233135  0.265855  0  4.006062  0
C  C22  1  0.22012510  0.33838560  0.67577347  1  0  0.000961  0  3.630617  0  0  -0.030138  0  3.880543  0  0  -0.025345  0  3.896742  0  0  -0.051858  -0.032988  0  3.869739  0
C  C23  1  0.77987182  0.66161756  0.32423078  1  0  0.000919  0  3.630699  0  0  -0.030196  0  3.880686  0  0  -0.025404  0  3.896882  0  0  -0.051848  -0.033041  0  3.869889  0
C  C24  1  0.38638090  0.32912502  0.60320153  1  0  -0.105389  0  3.73349  0  0  -0.116043  0  3.987979  0  0  -0.124242  0  4.010659  0  0  -0.081818  -0.11093  0  3.972892  0
C  C25  1  0.61361568  0.67088385  0.39679705  1  0  -0.105424  0  3.733511  0  0  -0.116029  0  3.987998  0  0  -0.124228  0  4.01068  0  0  -0.081806  -0.110918  0  3.972913  0
S  S26  1  0.73261909  0.20029791  0.19346447  1  0  1.58489  0  5.851974  0  0  1.466768  0  6.382451  0  0  1.523692  0  6.347139  0  0  0.544548  1.427221  0  6.405686  0
S  S27  1  0.26738355  0.79970531  0.80653260  1  0  1.584823  0  5.851965  0  0  1.466685  0  6.382447  0  0  1.523616  0  6.347127  0  0  0.544474  1.427137  0  6.405681  0
N  N28  1  0.21000498  0.22682029  0.45262986  1  0  -0.340595  0  3.252748  0  0  -0.261745  0  3.52357  0  0  -0.283031  0  3.542968  0  0  -0.327879  -0.247281  0  3.510036  0
N  N29  1  0.78999768  0.77318290  0.54737069  1  0  -0.340568  0  3.252731  0  0  -0.261713  0  3.523538  0  0  -0.283  0  3.54294  0  0  -0.327859  -0.24725  0  3.510003  0
N  N30  1  0.77905029  0.12798119  0.75696540  1  0  -0.298605  0  3.063515  0  0  -0.25088  0  3.344826  0  0  -0.265718  0  3.358605  0  0  -0.208547  -0.240789  0  3.335407  0
N  N31  1  0.22094820  0.87201920  0.24303379  1  0  -0.298617  0  3.063485  0  0  -0.250899  0  3.344794  0  0  -0.265736  0  3.35857  0  0  -0.208546  -0.240809  0  3.335374  0
N  N32  1  0.80460980  0.43170062  0.76920596  1  0  -0.30792  0  3.026758  0  0  -0.264847  0  3.308423  0  0  -0.279274  0  3.32225  0  0  -0.208362  -0.255013  0  3.29897  0
N  N33  1  0.19539012  0.56829977  0.23079230  1  0  -0.307855  0  3.026746  0  0  -0.264777  0  3.30839  0  0  -0.279202  0  3.322216  0  0  -0.208327  -0.254943  0  3.298937  0
N  N34  1  0.66290709  0.36431737  0.84342193  1  0  -0.09614  0  3.19802  0  0  -0.052206  0  3.484028  0  0  -0.058386  0  3.500464  0  0  -0.106359  -0.047729  0  3.472673  0
N  N35  1  0.33709133  0.63568443  0.15657715  1  0  -0.096111  0  3.197999  0  0  -0.052186  0  3.484013  0  0  -0.058365  0  3.500447  0  0  -0.106317  -0.047709  0  3.47266  0
N  N36  1  0.64781196  0.18454700  0.83641291  1  0  -0.094767  0  3.185337  0  0  -0.053382  0  3.469946  0  0  -0.059574  0  3.486822  0  0  -0.103541  -0.048862  0  3.458288  0
N  N37  1  0.35218501  0.81545482  0.16358535  1  0  -0.094763  0  3.185358  0  0  -0.053373  0  3.469965  0  0  -0.059564  0  3.486839  0  0  -0.103561  -0.048853  0  3.458307  0
O  O38  1  0.30676711  0.24763267  0.05457466  1  0  -0.966378  0  1.826541  0  0  -0.860471  0  2.092352  0  0  -0.896396  0  2.063019  0  0  -0.588021  -0.834776  0  2.110205  0
O  O39  1  0.69323418  0.75236912  0.94542431  1  0  -0.966407  0  1.826519  0  0  -0.860507  0  2.092336  0  0  -0.896433  0  2.062989  0  0  -0.588036  -0.834813  0  2.11019  0
O  O40  1  0.88551324  0.17771216  0.28097216  1  0  -0.746912  0  2.017626  0  0  -0.68027  0  2.301535  0  0  -0.706301  0  2.28256  0  0  -0.372385  -0.661818  0  2.313935  0
O  O41  1  0.11448941  0.82229106  0.71902490  1  0  -0.747004  0  2.017692  0  0  -0.680312  0  2.301536  0  0  -0.706345  0  2.282556  0  0  -0.372423  -0.661873  0  2.31397  0
O  O42  1  0.54340583  0.19642565  0.26055736  1  0  -0.760372  0  2.036082  0  0  -0.69383  0  2.313535  0  0  -0.718328  0  2.294029  0  0  -0.376088  -0.676531  0  2.326406  0
O  O43  1  0.45659795  0.80358319  0.73944182  1  0  -0.760253  0  2.03602  0  0  -0.693736  0  2.313533  0  0  -0.718224  0  2.293991  0  0  -0.375991  -0.676434  0  2.326405  0
O  O44  1  0.75557552  0.04444037  0.11863536  1  0  -0.74673  0  1.946588  0  0  -0.689926  0  2.212702  0  0  -0.713386  0  2.193898  0  0  -0.380955  -0.673242  0  2.225101  0
O  O45  1  0.24442433  0.95556141  0.88136453  1  0  -0.746745  0  1.946536  0  0  -0.689936  0  2.212656  0  0  -0.713399  0  2.193851  0  0  -0.380974  -0.673252  0  2.225066  0
O  O46  1  0.75166418  0.38642278  0.11738242  1  0  -0.764144  0  1.986099  0  0  -0.703983  0  2.257988  0  0  -0.727587  0  2.237799  0  0  -0.382445  -0.687155  0  2.271318  0
O  O47  1  0.24833990  0.61358045  0.88261371  1  0  -0.764111  0  1.986158  0  0  -0.703949  0  2.258041  0  0  -0.727554  0  2.23785  0  0  -0.382401  -0.687119  0  2.271371  0
