# generated using pymatgen
data_ZnH10C10N5O4
_symmetry_space_group_name_H-M   'P 1'
_cell_length_a   8.41414006
_cell_length_b   8.33013868
_cell_length_c   10.36584151
_cell_angle_alpha   110.64310984
_cell_angle_beta   102.57212131
_cell_angle_gamma   101.42362180
_symmetry_Int_Tables_number   1
_chemical_formula_structural   ZnH10C10N5O4
_chemical_formula_sum   'Zn2 H20 C20 N10 O8'
_cell_volume   632.85359296
_cell_formula_units_Z   2
loop_
 _symmetry_equiv_pos_site_id
 _symmetry_equiv_pos_as_xyz
  1  'x, y, z'
loop_
 _atom_site_type_symbol
 _atom_site_label
 _atom_site_symmetry_multiplicity
 _atom_site_fract_x
 _atom_site_fract_y
 _atom_site_fract_z
 _atom_site_occupancy
 _atom_site_hle17_bader_spin_density
 _atom_site_hle17_ddec_charge
 _atom_site_hle17_ddec_spin_density
 _atom_site_hle17_ddec_sum_bond_order
 _atom_site_hle17_magmom
 _atom_site_hse06_10hf_bader_spin_density
 _atom_site_hse06_10hf_ddec_charge
 _atom_site_hse06_10hf_ddec_spin_density
 _atom_site_hse06_10hf_ddec_sum_bond_order
 _atom_site_hse06_10hf_magmom
 _atom_site_hse06_bader_spin_density
 _atom_site_hse06_ddec_charge
 _atom_site_hse06_ddec_spin_density
 _atom_site_hse06_ddec_sum_bond_order
 _atom_site_hse06_magmom
 _atom_site_pbe_bader_spin_density
 _atom_site_pbe_cm5_charge
 _atom_site_pbe_ddec_charge
 _atom_site_pbe_ddec_spin_density
 _atom_site_pbe_ddec_sum_bond_order
 _atom_site_pbe_magmom
Zn  Zn0  1  0.40997409  0.40781315  0.19090729  1  0  1.063603  0  1.730374  0  0  0.875878  0  2.18719  0  0  0.922773  0  2.132672  0  0  0.71062  0.843019  0  2.224714  0
Zn  Zn1  1  0.59001748  0.59218045  0.80907562  1  0  1.063564  0  1.730186  0  0  0.875833  0  2.18703  0  0  0.922732  0  2.132508  0  0  0.71062  0.84297  0  2.224552  0
H  H2  1  0.88193592  0.91288230  0.88049988  1  0  0.085815  0  0.989818  0  0  0.08456  0  1.070479  0  0  0.088764  0  1.065474  0  0  0.117162  0.081599  0  1.073928  0
H  H3  1  0.11806671  0.08714899  0.11951502  1  0  0.085795  0  0.989742  0  0  0.084454  0  1.070491  0  0  0.088658  0  1.065486  0  0  0.11711  0.081473  0  1.07396  0
H  H4  1  0.67666690  0.24196755  0.68789296  1  0  0.113114  0  0.977499  0  0  0.122842  0  1.040101  0  0  0.126129  0  1.037115  0  0  0.109584  0.120407  0  1.042266  0
H  H5  1  0.32333270  0.75803797  0.31210228  1  0  0.113055  0  0.977575  0  0  0.122927  0  1.039989  0  0  0.126223  0  1.037005  0  0  0.109581  0.120495  0  1.04215  0
H  H6  1  0.39804542  0.00127543  0.58269599  1  0  0.098766  0  0.994711  0  0  0.10879  0  1.054856  0  0  0.110654  0  1.056536  0  0  0.104394  0.107443  0  1.053875  0
H  H7  1  0.60196447  0.99871055  0.41727157  1  0  0.0988  0  0.9946  0  0  0.108743  0  1.054851  0  0  0.110621  0  1.056511  0  0  0.104372  0.107394  0  1.053878  0
H  H8  1  0.37245079  0.72633370  0.63499997  1  0  0.096912  0  0.973672  0  0  0.10513  0  1.034903  0  0  0.108632  0  1.031407  0  0  0.118563  0.102463  0  1.037607  0
H  H9  1  0.62757253  0.27363941  0.36493944  1  0  0.096745  0  0.973873  0  0  0.104996  0  1.03512  0  0  0.108503  0  1.031623  0  0  0.118514  0.102327  0  1.037831  0
H  H10  1  0.76330020  0.91580758  0.27604338  1  0  0.091872  0  0.960596  0  0  0.100361  0  1.02537  0  0  0.103616  0  1.023463  0  0  0.100653  0.097999  0  1.026878  0
H  H11  1  0.23670269  0.08417329  0.72403191  1  0  0.092028  0  0.959808  0  0  0.100432  0  1.02473  0  0  0.103705  0  1.022802  0  0  0.100552  0.098057  0  1.026261  0
H  H12  1  0.99416273  0.20776214  0.37728678  1  0  0.100586  0  0.942543  0  0  0.112844  0  0.997883  0  0  0.11663  0  0.995357  0  0  0.106056  0.110106  0  0.999789  0
H  H13  1  0.00580800  0.79221197  0.62278809  1  0  0.100385  0  0.942087  0  0  0.112778  0  0.997356  0  0  0.116563  0  0.994833  0  0  0.105929  0.110032  0  0.999272  0
H  H14  1  0.66175337  0.36225977  0.05761234  1  0  0.381759  0  0.943235  0  0  0.336591  0  1.029899  0  0  0.347849  0  1.01386  0  0  0.280403  0.328661  0  1.041168  0
H  H15  1  0.33823914  0.63777468  0.94238285  1  0  0.381785  0  0.943256  0  0  0.336621  0  1.029896  0  0  0.347879  0  1.013859  0  0  0.280462  0.328692  0  1.041162  0
H  H16  1  0.22069102  0.47011768  0.39408306  1  0  0.440201  0  0.854478  0  0  0.40882  0  0.917918  0  0  0.419579  0  0.902135  0  0  0.293608  0.401211  0  0.929081  0
H  H17  1  0.77931117  0.52986046  0.60591016  1  0  0.440159  0  0.854517  0  0  0.408757  0  0.917996  0  0  0.419521  0  0.902206  0  0  0.293575  0.401149  0  0.929158  0
H  H18  1  0.12387000  0.51771465  0.26369553  1  0  0.405983  0  0.891658  0  0  0.365451  0  0.974008  0  0  0.376818  0  0.957469  0  0  0.288281  0.357417  0  0.985683  0
H  H19  1  0.87613747  0.48229734  0.73631522  1  0  0.405886  0  0.891785  0  0  0.365332  0  0.974167  0  0  0.376699  0  0.957628  0  0  0.288216  0.357298  0  0.985843  0
H  H20  1  0.49675627  0.19790962  0.95693283  1  0  0.415417  0  0.834032  0  0  0.396429  0  0.894145  0  0  0.404154  0  0.885605  0  0  0.309776  0.390935  0  0.900258  0
H  H21  1  0.50323248  0.80215088  0.04303677  1  0  0.415555  0  0.833768  0  0  0.396539  0  0.893876  0  0  0.404262  0  0.885335  0  0  0.309823  0.391045  0  0.899992  0
C  C22  1  0.96943941  0.23410432  0.86564252  1  0  0.258034  0  3.823432  0  0  0.233969  0  4.102525  0  0  0.241943  0  4.121877  0  0  0.21494  0.228751  0  4.08935  0
C  C23  1  0.03054591  0.76592091  0.13435768  1  0  0.258115  0  3.823548  0  0  0.23382  0  4.102948  0  0  0.241794  0  4.122298  0  0  0.214958  0.2286  0  4.089779  0
C  C24  1  0.77838890  0.93832473  0.81484496  1  0  0.107909  0  3.640945  0  0  0.06682  0  3.886664  0  0  0.074084  0  3.903218  0  0  0.054654  0.061581  0  3.8765  0
C  C25  1  0.22160802  0.06169590  0.18516796  1  0  0.107998  0  3.641103  0  0  0.066957  0  3.886761  0  0  0.074227  0  3.90331  0  0  0.054723  0.06176  0  3.876556  0
C  C26  1  0.66390560  0.12133383  0.70866219  1  0  -0.032614  0  3.670899  0  0  -0.064138  0  3.921146  0  0  -0.059923  0  3.937576  0  0  -0.064063  -0.066664  0  3.91021  0
C  C27  1  0.33609267  0.87865947  0.29131473  1  0  -0.032687  0  3.670987  0  0  -0.06436  0  3.921203  0  0  -0.060157  0  3.93764  0  0  -0.064061  -0.066885  0  3.910266  0
C  C28  1  0.80270643  0.09815601  0.79445278  1  0  -0.031797  0  3.785067  0  0  -0.01048  0  4.019998  0  0  -0.016699  0  4.043715  0  0  0.003622  -0.006627  0  4.004085  0
C  C29  1  0.19728630  0.90184435  0.20553519  1  0  -0.031645  0  3.785109  0  0  -0.010201  0  4.019977  0  0  -0.016417  0  4.043691  0  0  0.003707  -0.006352  0  4.004066  0
C  C30  1  0.50793576  0.98711024  0.64991615  1  0  -0.121625  0  3.767106  0  0  -0.131821  0  4.019529  0  0  -0.13948  0  4.041779  0  0  -0.086103  -0.126994  0  4.004742  0
C  C31  1  0.49206940  0.01288685  0.35005701  1  0  -0.121492  0  3.766788  0  0  -0.1316  0  4.019261  0  0  -0.139256  0  4.041515  0  0  -0.086088  -0.126781  0  4.004481  0
C  C32  1  0.49184387  0.83476691  0.67792501  1  0  0.128173  0  3.668694  0  0  0.093465  0  3.914482  0  0  0.100756  0  3.931685  0  0  0.045825  0.088918  0  3.902716  0
C  C33  1  0.50817574  0.16521182  0.32202332  1  0  0.128303  0  3.668795  0  0  0.093492  0  3.914668  0  0  0.100774  0  3.931876  0  0  0.045787  0.088935  0  3.902916  0
C  C34  1  0.86760899  0.83650294  0.44409707  1  0  -0.060157  0  3.738276  0  0  -0.040273  0  3.977138  0  0  -0.046945  0  3.999691  0  0  -0.0165  -0.035878  0  3.961869  0
C  C35  1  0.13236539  0.16347916  0.55591204  1  0  -0.060508  0  3.738241  0  0  -0.040496  0  3.976964  0  0  -0.047199  0  3.999556  0  0  -0.01651  -0.036099  0  3.9617  0
C  C36  1  0.72591877  0.66318703  0.38754579  1  0  0.658168  0  3.885374  0  0  0.604306  0  4.183558  0  0  0.639234  0  4.175519  0  0  0.211467  0.580638  0  4.188215  0
C  C37  1  0.27413938  0.33678186  0.61247615  1  0  0.658417  0  3.885307  0  0  0.604457  0  4.183637  0  0  0.639415  0  4.175574  0  0  0.211764  0.580772  0  4.188308  0
C  C38  1  0.86658845  0.95420105  0.37511563  1  0  -0.074625  0  3.751727  0  0  -0.098023  0  4.004907  0  0  -0.098541  0  4.025375  0  0  -0.087469  -0.097548  0  3.990946  0
C  C39  1  0.13339294  0.04579029  0.62491938  1  0  -0.074865  0  3.750709  0  0  -0.098226  0  4.003928  0  0  -0.09875  0  4.02443  0  0  -0.087444  -0.097747  0  3.989946  0
C  C40  1  0.99631235  0.11614567  0.43060447  1  0  -0.07079  0  3.729648  0  0  -0.092723  0  3.977339  0  0  -0.094484  0  3.998426  0  0  -0.084018  -0.091345  0  3.962912  0
C  C41  1  0.00363886  0.88382655  0.56942476  1  0  -0.070836  0  3.728733  0  0  -0.092842  0  3.976407  0  0  -0.094611  0  3.997497  0  0  -0.083983  -0.091457  0  3.961963  0
N  N42  1  0.09239546  0.22194092  0.96544699  1  0  -0.286896  0  2.985587  0  0  -0.264097  0  3.256787  0  0  -0.273964  0  3.272653  0  0  -0.212438  -0.257225  0  3.245767  0
N  N43  1  0.90759383  0.77810049  0.03455855  1  0  -0.287111  0  2.985558  0  0  -0.264259  0  3.256802  0  0  -0.274125  0  3.272662  0  0  -0.212582  -0.257395  0  3.245795  0
N  N44  1  0.18097930  0.46902572  0.93752521  1  0  -0.068534  0  3.060182  0  0  -0.040394  0  3.335816  0  0  -0.041389  0  3.349312  0  0  -0.077455  -0.03936  0  3.326567  0
N  N45  1  0.81901434  0.53101005  0.06248018  1  0  -0.068296  0  3.059892  0  0  -0.040125  0  3.335474  0  0  -0.04112  0  3.348966  0  0  -0.077309  -0.039091  0  3.326228  0
N  N46  1  0.02243623  0.38649642  0.84649318  1  0  -0.28462  0  2.960841  0  0  -0.255852  0  3.234269  0  0  -0.266923  0  3.24793  0  0  -0.196436  -0.248321  0  3.225027  0
N  N47  1  0.97755595  0.61353123  0.15350864  1  0  -0.284742  0  2.960964  0  0  -0.255931  0  3.234488  0  0  -0.267  0  3.248144  0  0  -0.196482  -0.248397  0  3.225243  0
N  N48  1  0.22210590  0.36960007  0.00819556  1  0  -0.150111  0  3.258067  0  0  -0.093029  0  3.56624  0  0  -0.1035  0  3.579959  0  0  -0.121005  -0.085797  0  3.556784  0
N  N49  1  0.77788514  0.63043854  0.99181227  1  0  -0.150067  0  3.257656  0  0  -0.092956  0  3.56576  0  0  -0.103429  0  3.579479  0  0  -0.120963  -0.085726  0  3.556305  0
N  N50  1  0.62652076  0.81085629  0.75888933  1  0  -0.320997  0  3.31274  0  0  -0.229487  0  3.582079  0  0  -0.249975  0  3.598406  0  0  -0.328417  -0.215491  0  3.570605  0
N  N51  1  0.37348382  0.18913946  0.24108142  1  0  -0.321229  0  3.313058  0  0  -0.229666  0  3.582409  0  0  -0.250158  0  3.598739  0  0  -0.328396  -0.215667  0  3.570934  0
O  O52  1  0.22982885  0.49760653  0.30978032  1  0  -0.851943  0  1.918954  0  0  -0.79017  0  2.127876  0  0  -0.810808  0  2.092251  0  0  -0.578668  -0.775486  0  2.152566  0
O  O53  1  0.77017698  0.50240418  0.69022983  1  0  -0.851867  0  1.919013  0  0  -0.790038  0  2.128083  0  0  -0.810677  0  2.092455  0  0  -0.578602  -0.77533  0  2.152722  0
O  O54  1  0.56223004  0.27246638  0.05836911  1  0  -0.815918  0  1.888857  0  0  -0.76098  0  2.090965  0  0  -0.780304  0  2.062177  0  0  -0.576845  -0.747182  0  2.11091  0
O  O55  1  0.43775978  0.72755183  0.94160542  1  0  -0.816097  0  1.888601  0  0  -0.76108  0  2.090854  0  0  -0.780407  0  2.062051  0  0  -0.576971  -0.747288  0  2.110809  0
O  O56  1  0.59576304  0.63821930  0.28111433  1  0  -0.649752  0  2.042792  0  0  -0.573863  0  2.318187  0  0  -0.603617  0  2.303824  0  0  -0.328193  -0.55316  0  2.327438  0
O  O57  1  0.40425627  0.36174313  0.71894699  1  0  -0.649503  0  2.042739  0  0  -0.573625  0  2.318168  0  0  -0.603387  0  2.303799  0  0  -0.328009  -0.552912  0  2.327405  0
O  O58  1  0.73858718  0.55344385  0.44401587  1  0  -0.625631  0  1.976195  0  0  -0.570685  0  2.197397  0  0  -0.594827  0  2.186031  0  0  -0.311964  -0.553829  0  2.204788  0
O  O59  1  0.26147696  0.44646479  0.55593577  1  0  -0.625949  0  1.976068  0  0  -0.570973  0  2.197361  0  0  -0.595118  0  2.185979  0  0  -0.312325  -0.55411  0  2.204759  0
