# generated using pymatgen
data_CdH5C7NO5
_symmetry_space_group_name_H-M   'P 1'
_cell_length_a   6.88307338
_cell_length_b   7.91575836
_cell_length_c   14.92536490
_cell_angle_alpha   89.99996776
_cell_angle_beta   89.99975676
_cell_angle_gamma   102.17891330
_symmetry_Int_Tables_number   1
_chemical_formula_structural   CdH5C7NO5
_chemical_formula_sum   'Cd4 H20 C28 N4 O20'
_cell_volume   794.90240195
_cell_formula_units_Z   4
loop_
 _symmetry_equiv_pos_site_id
 _symmetry_equiv_pos_as_xyz
  1  'x, y, z'
loop_
 _atom_site_type_symbol
 _atom_site_label
 _atom_site_symmetry_multiplicity
 _atom_site_fract_x
 _atom_site_fract_y
 _atom_site_fract_z
 _atom_site_occupancy
 _atom_site_hle17_bader_spin_density
 _atom_site_hle17_ddec_charge
 _atom_site_hle17_ddec_spin_density
 _atom_site_hle17_ddec_sum_bond_order
 _atom_site_hle17_magmom
 _atom_site_hse06_10hf_bader_spin_density
 _atom_site_hse06_10hf_ddec_charge
 _atom_site_hse06_10hf_ddec_spin_density
 _atom_site_hse06_10hf_ddec_sum_bond_order
 _atom_site_hse06_10hf_magmom
 _atom_site_hse06_bader_spin_density
 _atom_site_hse06_ddec_charge
 _atom_site_hse06_ddec_spin_density
 _atom_site_hse06_ddec_sum_bond_order
 _atom_site_hse06_magmom
 _atom_site_pbe_bader_spin_density
 _atom_site_pbe_cm5_charge
 _atom_site_pbe_ddec_charge
 _atom_site_pbe_ddec_spin_density
 _atom_site_pbe_ddec_sum_bond_order
 _atom_site_pbe_magmom
Cd  Cd0  1  0.74651384  0.38473833  0.78060190  1  0  1.22096  0  1.589205  0  0  1.035411  0  2.032909  0  0  1.093596  0  1.976806  0  0  0.784645  0.993706  0  2.071456  0
Cd  Cd1  1  0.75348681  0.11526174  0.28060143  1  0  1.220959  0  1.589174  0  0  1.035408  0  2.032884  0  0  1.093593  0  1.976781  0  0  0.784638  0.993704  0  2.071429  0
Cd  Cd2  1  0.25348534  0.61526050  0.21939798  1  0  1.22095  0  1.589203  0  0  1.035409  0  2.032908  0  0  1.093596  0  1.976801  0  0  0.784632  0.993704  0  2.071454  0
Cd  Cd3  1  0.24651236  0.88473709  0.71939846  1  0  1.220981  0  1.589145  0  0  1.035434  0  2.032853  0  0  1.093621  0  1.976749  0  0  0.784659  0.993732  0  2.071399  0
H  H4  1  0.90216237  0.10293460  0.85706692  1  0  0.412836  0  0.895164  0  0  0.381401  0  0.961073  0  0  0.392037  0  0.945876  0  0  0.284247  0.373871  0  0.971811  0
H  H5  1  0.59783930  0.39706653  0.35706734  1  0  0.412783  0  0.895231  0  0  0.381348  0  0.961143  0  0  0.391985  0  0.945946  0  0  0.284213  0.373819  0  0.971881  0
H  H6  1  0.09783713  0.89706553  0.14293363  1  0  0.412822  0  0.895183  0  0  0.381388  0  0.961091  0  0  0.392024  0  0.945893  0  0  0.284234  0.373858  0  0.971828  0
H  H7  1  0.40216165  0.60293358  0.64293321  1  0  0.412792  0  0.895222  0  0  0.381357  0  0.961136  0  0  0.391993  0  0.945938  0  0  0.284229  0.373826  0  0.971874  0
H  H8  1  0.68676793  0.05688190  0.81920274  1  0  0.409108  0  0.900147  0  0  0.380828  0  0.963525  0  0  0.391926  0  0.947565  0  0  0.28429  0.373003  0  0.974739  0
H  H9  1  0.81323234  0.44311806  0.31920272  1  0  0.409137  0  0.900115  0  0  0.380859  0  0.963484  0  0  0.391957  0  0.947525  0  0  0.28429  0.373034  0  0.974698  0
H  H10  1  0.31323157  0.94311822  0.18079782  1  0  0.409145  0  0.900079  0  0  0.380843  0  0.963511  0  0  0.391942  0  0.947555  0  0  0.284287  0.373018  0  0.974726  0
H  H11  1  0.18676683  0.55688077  0.68079716  1  0  0.409103  0  0.90015  0  0  0.380821  0  0.963535  0  0  0.391919  0  0.947576  0  0  0.284285  0.372996  0  0.974749  0
H  H12  1  0.76342661  0.32075232  0.98817739  1  0  0.102827  0  0.93616  0  0  0.110567  0  1.000787  0  0  0.113685  0  0.997827  0  0  0.121343  0.108347  0  1.002858  0
H  H13  1  0.73657408  0.17924973  0.48817693  1  0  0.102815  0  0.936165  0  0  0.110554  0  1.0008  0  0  0.113671  0  0.997844  0  0  0.121334  0.108336  0  1.002872  0
H  H14  1  0.23656999  0.67924782  0.01182317  1  0  0.102825  0  0.93615  0  0  0.110565  0  1.000781  0  0  0.113678  0  0.997835  0  0  0.121342  0.108344  0  1.002852  0
H  H15  1  0.26342686  0.82075039  0.51182362  1  0  0.102816  0  0.936161  0  0  0.110556  0  1.000799  0  0  0.113674  0  0.997841  0  0  0.121331  0.108338  0  1.002869  0
H  H16  1  0.71832828  0.93228047  0.98763799  1  0  0.129245  0  0.942688  0  0  0.13931  0  0.997861  0  0  0.143609  0  0.995551  0  0  0.114467  0.136135  0  0.999815  0
H  H17  1  0.78166892  0.56771976  0.48763748  1  0  0.129271  0  0.942683  0  0  0.139345  0  0.997836  0  0  0.143632  0  0.995541  0  0  0.114482  0.13617  0  0.99979  0
H  H18  1  0.28167267  0.06771964  0.01236256  1  0  0.129248  0  0.942696  0  0  0.139313  0  0.997866  0  0  0.143613  0  0.995556  0  0  0.114472  0.136138  0  0.999819  0
H  H19  1  0.21832881  0.43227908  0.51236241  1  0  0.129254  0  0.942701  0  0  0.139311  0  0.997872  0  0  0.14361  0  0.995562  0  0  0.114473  0.136136  0  0.999826  0
H  H20  1  0.72274555  0.76390925  0.84750811  1  0  0.097963  0  0.94341  0  0  0.105461  0  1.007399  0  0  0.108455  0  1.004142  0  0  0.121487  0.103193  0  1.009839  0
H  H21  1  0.77725480  0.73609267  0.34750755  1  0  0.097955  0  0.94342  0  0  0.105442  0  1.007429  0  0  0.108434  0  1.004173  0  0  0.121476  0.103172  0  1.009871  0
H  H22  1  0.27725572  0.23609216  0.15249178  1  0  0.097957  0  0.943422  0  0  0.105448  0  1.007415  0  0  0.108441  0  1.004158  0  0  0.121481  0.10318  0  1.009855  0
H  H23  1  0.22274582  0.26390615  0.65249233  1  0  0.097964  0  0.94342  0  0  0.105448  0  1.007427  0  0  0.108441  0  1.004171  0  0  0.121481  0.10318  0  1.00987  0
C  C24  1  0.75524587  0.45669724  0.99106575  1  0  0.11873  0  3.686446  0  0  0.075511  0  3.944268  0  0  0.084027  0  3.96302  0  0  0.049106  0.069574  0  3.932453  0
C  C25  1  0.74475560  0.04330221  0.49106531  1  0  0.118717  0  3.686541  0  0  0.075481  0  3.94437  0  0  0.083997  0  3.963124  0  0  0.049078  0.069537  0  3.932573  0
C  C26  1  0.24475508  0.54330288  0.00893481  1  0  0.118753  0  3.686401  0  0  0.075533  0  3.944247  0  0  0.084046  0  3.962996  0  0  0.049109  0.069601  0  3.932423  0
C  C27  1  0.25524358  0.95669663  0.50893524  1  0  0.118728  0  3.686466  0  0  0.075489  0  3.944312  0  0  0.084005  0  3.963066  0  0  0.049097  0.069549  0  3.932508  0
C  C28  1  0.75949532  0.54157666  0.07309890  1  0  -0.12679  0  3.723918  0  0  -0.109992  0  3.965182  0  0  -0.121748  0  3.987507  0  0  -0.010087  -0.102562  0  3.950432  0
C  C29  1  0.74051210  0.95842604  0.57309869  1  0  -0.126796  0  3.723788  0  0  -0.10998  0  3.96507  0  0  -0.121737  0  3.987395  0  0  -0.010035  -0.10255  0  3.950324  0
C  C30  1  0.24050740  0.45842474  0.92690166  1  0  -0.12675  0  3.723829  0  0  -0.109962  0  3.965087  0  0  -0.121717  0  3.987409  0  0  -0.010046  -0.102534  0  3.95034  0
C  C31  1  0.25948885  0.04157408  0.42690186  1  0  -0.126732  0  3.723787  0  0  -0.109925  0  3.965055  0  0  -0.121683  0  3.987381  0  0  -0.010025  -0.102493  0  3.950306  0
C  C32  1  0.74458427  0.71587205  0.07349084  1  0  0.000138  0  3.687341  0  0  0.0096  0  3.921147  0  0  0.011191  0  3.938431  0  0  0.01443  0.008666  0  3.909598  0
C  C33  1  0.75541702  0.78412939  0.57349132  1  0  0.000131  0  3.687184  0  0  0.009562  0  3.92102  0  0  0.011151  0  3.938309  0  0  0.014373  0.008628  0  3.909476  0
C  C34  1  0.25541700  0.28412936  0.92650838  1  0  7.6e-05  0  3.687386  0  0  0.009584  0  3.921131  0  0  0.011173  0  3.93842  0  0  0.014406  0.008648  0  3.909586  0
C  C35  1  0.24458215  0.21586944  0.42650856  1  0  0.000101  0  3.687215  0  0  0.009555  0  3.921024  0  0  0.011142  0  3.938317  0  0  0.014374  0.008623  0  3.909477  0
C  C36  1  0.73030335  0.79745461  0.99154879  1  0  -0.118508  0  3.662294  0  0  -0.137511  0  3.909312  0  0  -0.144422  0  3.926623  0  0  -0.073318  -0.133234  0  3.898033  0
C  C37  1  0.76970025  0.70254816  0.49154826  1  0  -0.118565  0  3.662255  0  0  -0.137552  0  3.909259  0  0  -0.144452  0  3.926578  0  0  -0.07334  -0.133273  0  3.897982  0
C  C38  1  0.26970228  0.20254677  0.00845109  1  0  -0.118542  0  3.662283  0  0  -0.137569  0  3.909291  0  0  -0.144479  0  3.926601  0  0  -0.073356  -0.133291  0  3.898014  0
C  C39  1  0.23029924  0.29745196  0.50845229  1  0  -0.118548  0  3.662265  0  0  -0.137531  0  3.909262  0  0  -0.144441  0  3.926574  0  0  -0.07335  -0.133253  0  3.897986  0
C  C40  1  0.73177875  0.70430985  0.91263549  1  0  0.160947  0  3.658929  0  0  0.122363  0  3.922462  0  0  0.133399  0  3.936122  0  0  0.05454  0.115153  0  3.913148  0
C  C41  1  0.76822241  0.79569188  0.41263494  1  0  0.16095  0  3.658939  0  0  0.122353  0  3.922461  0  0  0.133389  0  3.93612  0  0  0.054541  0.115147  0  3.913143  0
C  C42  1  0.26822252  0.29569156  0.08736506  1  0  0.160967  0  3.658948  0  0  0.122406  0  3.922475  0  0  0.133443  0  3.936134  0  0  0.054569  0.115196  0  3.913157  0
C  C43  1  0.23177708  0.20430824  0.58736495  1  0  0.160926  0  3.65897  0  0  0.122347  0  3.922479  0  0  0.133383  0  3.936139  0  0  0.054542  0.115139  0  3.913165  0
C  C44  1  0.78848810  0.44841744  0.15800401  1  0  0.670946  0  3.899691  0  0  0.612047  0  4.20131  0  0  0.647692  0  4.194225  0  0  0.21222  0.587886  0  4.205269  0
C  C45  1  0.71151634  0.05158168  0.65800465  1  0  0.670942  0  3.899779  0  0  0.612016  0  4.201442  0  0  0.647663  0  4.194354  0  0  0.21218  0.587855  0  4.205403  0
C  C46  1  0.21151430  0.55158267  0.84199588  1  0  0.670898  0  3.899806  0  0  0.611998  0  4.201432  0  0  0.647643  0  4.194344  0  0  0.212186  0.587837  0  4.205393  0
C  C47  1  0.28848283  0.94841715  0.34199524  1  0  0.670902  0  3.899855  0  0  0.612007  0  4.201466  0  0  0.647654  0  4.194379  0  0  0.212226  0.587844  0  4.205426  0
C  C48  1  0.73427344  0.81481834  0.15882141  1  0  0.672043  0  3.89795  0  0  0.615881  0  4.196388  0  0  0.651591  0  4.186084  0  0  0.216024  0.591467  0  4.202597  0
C  C49  1  0.76572781  0.68518026  0.65882190  1  0  0.671922  0  3.898012  0  0  0.615766  0  4.196465  0  0  0.651476  0  4.186164  0  0  0.215991  0.591353  0  4.202677  0
C  C50  1  0.26573073  0.18518305  0.84117915  1  0  0.672015  0  3.898143  0  0  0.615846  0  4.19656  0  0  0.651557  0  4.186256  0  0  0.216048  0.591434  0  4.202772  0
C  C51  1  0.23427136  0.31481857  0.34117865  1  0  0.671958  0  3.898068  0  0  0.615802  0  4.196502  0  0  0.651511  0  4.186201  0  0  0.216019  0.591387  0  4.202714  0
N  N52  1  0.74371184  0.53665621  0.91229850  1  0  -0.35921  0  3.279418  0  0  -0.280995  0  3.558515  0  0  -0.303328  0  3.576928  0  0  -0.331284  -0.2657  0  3.545517  0
N  N53  1  0.75628787  0.96334553  0.41229792  1  0  -0.35915  0  3.279572  0  0  -0.280906  0  3.558644  0  0  -0.303236  0  3.577054  0  0  -0.331227  -0.265606  0  3.54564  0
N  N54  1  0.25628588  0.46334263  0.08770206  1  0  -0.359194  0  3.279521  0  0  -0.281  0  3.558631  0  0  -0.303332  0  3.577042  0  0  -0.331285  -0.265705  0  3.545632  0
N  N55  1  0.24371163  0.03665460  0.58770197  1  0  -0.359164  0  3.279533  0  0  -0.280935  0  3.558608  0  0  -0.303267  0  3.577024  0  0  -0.331248  -0.265639  0  3.545613  0
O  O56  1  0.71226691  0.28827008  0.16120336  1  0  -0.610696  0  1.978549  0  0  -0.544233  0  2.223791  0  0  -0.573546  0  2.213807  0  0  -0.312607  -0.523656  0  2.229903  0
O  O57  1  0.78773089  0.21173165  0.66120380  1  0  -0.610692  0  1.978612  0  0  -0.544219  0  2.223861  0  0  -0.573531  0  2.213878  0  0  -0.312607  -0.523643  0  2.229976  0
O  O58  1  0.28773113  0.71173005  0.83879653  1  0  -0.610674  0  1.978647  0  0  -0.544217  0  2.223895  0  0  -0.573528  0  2.213911  0  0  -0.312593  -0.523643  0  2.230009  0
O  O59  1  0.21226829  0.78826718  0.33879675  1  0  -0.610694  0  1.978658  0  0  -0.544224  0  2.223884  0  0  -0.573537  0  2.2139  0  0  -0.312621  -0.523647  0  2.229998  0
O  O60  1  0.88849673  0.53971836  0.21990590  1  0  -0.672156  0  2.059985  0  0  -0.601809  0  2.303936  0  0  -0.630313  0  2.291703  0  0  -0.319296  -0.581788  0  2.311758  0
O  O61  1  0.61149876  0.96028268  0.71990528  1  0  -0.672143  0  2.060014  0  0  -0.601779  0  2.303968  0  0  -0.630284  0  2.291735  0  0  -0.319247  -0.581748  0  2.311773  0
O  O62  1  0.11150244  0.46028047  0.78009465  1  0  -0.672146  0  2.060013  0  0  -0.601778  0  2.30393  0  0  -0.630284  0  2.291702  0  0  -0.319278  -0.581746  0  2.311727  0
O  O63  1  0.38849751  0.03971617  0.28009461  1  0  -0.672108  0  2.060005  0  0  -0.601748  0  2.303954  0  0  -0.630253  0  2.291722  0  0  -0.319265  -0.581726  0  2.311776  0
O  O64  1  0.87310736  0.94819011  0.17170938  1  0  -0.635341  0  1.999628  0  0  -0.562476  0  2.235397  0  0  -0.592513  0  2.223608  0  0  -0.310147  -0.54129  0  2.242833  0
O  O65  1  0.62689005  0.55181106  0.67170751  1  0  -0.635258  0  1.999618  0  0  -0.56239  0  2.235367  0  0  -0.592424  0  2.223577  0  0  -0.310113  -0.541206  0  2.242805  0
O  O66  1  0.12689600  0.05181387  0.82829117  1  0  -0.635321  0  1.999723  0  0  -0.562463  0  2.235493  0  0  -0.592504  0  2.223709  0  0  -0.310143  -0.541278  0  2.242933  0
O  O67  1  0.37310912  0.44818777  0.32829238  1  0  -0.635291  0  1.999683  0  0  -0.562424  0  2.235429  0  0  -0.592458  0  2.223637  0  0  -0.310128  -0.541238  0  2.242866  0
O  O68  1  0.58856289  0.77044543  0.21087121  1  0  -0.638744  0  2.051301  0  0  -0.575611  0  2.312041  0  0  -0.605818  0  2.300573  0  0  -0.310888  -0.554085  0  2.319035  0
O  O69  1  0.91143317  0.72955175  0.71087274  1  0  -0.638681  0  2.051259  0  0  -0.575575  0  2.312036  0  0  -0.605782  0  2.30057  0  0  -0.3109  -0.554049  0  2.31903  0
O  O70  1  0.41143774  0.22955339  0.78912801  1  0  -0.638748  0  2.051336  0  0  -0.575606  0  2.312059  0  0  -0.605811  0  2.300588  0  0  -0.310931  -0.554081  0  2.319055  0
O  O71  1  0.08856633  0.27044838  0.28912714  1  0  -0.638688  0  2.051277  0  0  -0.575581  0  2.312052  0  0  -0.605787  0  2.300586  0  0  -0.310908  -0.554053  0  2.319046  0
O  O72  1  0.76896992  0.13131134  0.86549699  1  0  -0.834298  0  1.863467  0  0  -0.775758  0  2.048503  0  0  -0.799524  0  2.017051  0  0  -0.58917  -0.7587  0  2.070154  0
O  O73  1  0.73103134  0.36868847  0.36549783  1  0  -0.834281  0  1.86348  0  0  -0.775734  0  2.048496  0  0  -0.799497  0  2.017041  0  0  -0.58913  -0.758675  0  2.070145  0
O  O74  1  0.23102958  0.86868878  0.13450289  1  0  -0.834332  0  1.863423  0  0  -0.775774  0  2.048461  0  0  -0.799544  0  2.017004  0  0  -0.58916  -0.758715  0  2.070112  0
O  O75  1  0.26896783  0.63131036  0.63450205  1  0  -0.834268  0  1.863506  0  0  -0.775715  0  2.04852  0  0  -0.799482  0  2.017069  0  0  -0.589148  -0.758656  0  2.070168  0
