# generated using pymatgen
data_ErH7C14(NO4)2
_symmetry_space_group_name_H-M   'P 1'
_cell_length_a   8.34476232
_cell_length_b   12.15320731
_cell_length_c   13.38123493
_cell_angle_alpha   102.07758651
_cell_angle_beta   90.00008981
_cell_angle_gamma   90.00011571
_symmetry_Int_Tables_number   1
_chemical_formula_structural   ErH7C14(NO4)2
_chemical_formula_sum   'Er4 H28 C56 N8 O32'
_cell_volume   1327.02787938
_cell_formula_units_Z   4
loop_
 _symmetry_equiv_pos_site_id
 _symmetry_equiv_pos_as_xyz
  1  'x, y, z'
loop_
 _atom_site_type_symbol
 _atom_site_label
 _atom_site_symmetry_multiplicity
 _atom_site_fract_x
 _atom_site_fract_y
 _atom_site_fract_z
 _atom_site_occupancy
 _atom_site_hle17_bader_spin_density
 _atom_site_hle17_ddec_charge
 _atom_site_hle17_ddec_spin_density
 _atom_site_hle17_ddec_sum_bond_order
 _atom_site_hle17_magmom
 _atom_site_hse06_10hf_bader_spin_density
 _atom_site_hse06_10hf_ddec_charge
 _atom_site_hse06_10hf_ddec_spin_density
 _atom_site_hse06_10hf_ddec_sum_bond_order
 _atom_site_hse06_10hf_magmom
 _atom_site_hse06_bader_spin_density
 _atom_site_hse06_ddec_charge
 _atom_site_hse06_ddec_spin_density
 _atom_site_hse06_ddec_sum_bond_order
 _atom_site_hse06_magmom
 _atom_site_pbe_bader_spin_density
 _atom_site_pbe_cm5_charge
 _atom_site_pbe_ddec_charge
 _atom_site_pbe_ddec_spin_density
 _atom_site_pbe_ddec_sum_bond_order
 _atom_site_pbe_magmom
Er  Er0  1  0.27243042  0.80207853  0.68285584  1  0  2.172418  0  1.706688  0  0  1.994432  0  2.221184  0  0  2.047933  0  2.17816  0  0  1.533578  1.953815  0  2.25497  0
Er  Er1  1  0.77243544  0.19792526  0.81714344  1  0  2.172407  0  1.706746  0  0  1.994471  0  2.221173  0  0  2.04804  0  2.178043  0  0  1.533596  1.953853  0  2.254952  0
Er  Er2  1  0.72756603  0.19791195  0.31714033  1  0  2.172414  0  1.706678  0  0  1.994508  0  2.221016  0  0  2.048023  0  2.177965  0  0  1.533537  1.953894  0  2.254803  0
Er  Er3  1  0.22757179  0.80207616  0.18285556  1  0  2.172392  0  1.706802  0  0  1.994419  0  2.221241  0  0  2.047986  0  2.178111  0  0  1.533587  1.953801  0  2.255024  0
H  H4  1  0.80946010  0.47714876  0.62435639  1  0  0.127873  0  0.958586  0  0  0.130481  0  1.028568  0  0  0.135258  0  1.025336  0  0  0.111612  0.126971  0  1.031125  0
H  H5  1  0.30947737  0.52285675  0.87565672  1  0  0.127737  0  0.958634  0  0  0.130496  0  1.028523  0  0  0.135279  0  1.025282  0  0  0.111625  0.12698  0  1.031088  0
H  H6  1  0.19052915  0.52284759  0.37565734  1  0  0.127699  0  0.958814  0  0  0.130477  0  1.028646  0  0  0.135257  0  1.025409  0  0  0.111633  0.12696  0  1.031219  0
H  H7  1  0.69054185  0.47714550  0.12434320  1  0  0.127848  0  0.958628  0  0  0.130463  0  1.028611  0  0  0.135236  0  1.025386  0  0  0.111629  0.126952  0  1.03117  0
H  H8  1  0.98701787  0.30711959  0.58957853  1  0  0.125356  0  0.945434  0  0  0.132921  0  1.003393  0  0  0.137471  0  0.999576  0  0  0.118792  0.129522  0  1.006358  0
H  H9  1  0.48703576  0.69288453  0.91043003  1  0  0.125379  0  0.945317  0  0  0.132892  0  1.003365  0  0  0.137444  0  0.999548  0  0  0.118803  0.129496  0  1.006322  0
H  H10  1  0.01297258  0.69287844  0.41043329  1  0  0.125343  0  0.945353  0  0  0.132891  0  1.003319  0  0  0.137428  0  0.999522  0  0  0.118814  0.129493  0  1.006281  0
H  H11  1  0.51297866  0.30711942  0.08956647  1  0  0.125353  0  0.9454  0  0  0.132874  0  1.003409  0  0  0.137442  0  0.999566  0  0  0.118803  0.129478  0  1.006364  0
H  H12  1  0.28808489  0.33596062  0.59263910  1  0  0.110679  0  0.966951  0  0  0.117554  0  1.032079  0  0  0.120327  0  1.031939  0  0  0.109909  0.115529  0  1.032336  0
H  H13  1  0.78810121  0.66403479  0.90735486  1  0  0.1106  0  0.967076  0  0  0.117504  0  1.032144  0  0  0.120289  0  1.031989  0  0  0.10993  0.11548  0  1.032399  0
H  H14  1  0.71190556  0.66402902  0.40735915  1  0  0.110678  0  0.967045  0  0  0.117553  0  1.032161  0  0  0.120348  0  1.031994  0  0  0.109963  0.11553  0  1.032418  0
H  H15  1  0.21191081  0.33596495  0.09264158  1  0  0.110666  0  0.966975  0  0  0.117531  0  1.032112  0  0  0.120312  0  1.03196  0  0  0.109931  0.115507  0  1.032367  0
H  H16  1  0.59280711  0.84487170  0.33426511  1  0  0.127411  0  0.96889  0  0  0.13305  0  1.033458  0  0  0.137093  0  1.031306  0  0  0.116802  0.13007  0  1.035205  0
H  H17  1  0.09280116  0.15512376  0.16573204  1  0  0.127359  0  0.968923  0  0  0.133034  0  1.033452  0  0  0.137077  0  1.031296  0  0  0.116795  0.130056  0  1.035194  0
H  H18  1  0.40719892  0.15512887  0.66573598  1  0  0.127366  0  0.968919  0  0  0.133042  0  1.033453  0  0  0.137086  0  1.031298  0  0  0.1168  0.13006  0  1.035202  0
H  H19  1  0.90720847  0.84488608  0.83426185  1  0  0.127349  0  0.968912  0  0  0.133074  0  1.033378  0  0  0.137116  0  1.031226  0  0  0.11682  0.130094  0  1.035123  0
H  H20  1  0.84959115  0.91856326  0.42061809  1  0  0.11922  0  0.960236  0  0  0.129192  0  1.014411  0  0  0.133217  0  1.011362  0  0  0.116266  0.126191  0  1.016797  0
H  H21  1  0.34959076  0.08143092  0.07938284  1  0  0.119238  0  0.960224  0  0  0.129206  0  1.014408  0  0  0.133231  0  1.01136  0  0  0.116264  0.126207  0  1.01679  0
H  H22  1  0.15040529  0.08144319  0.57938936  1  0  0.119227  0  0.960269  0  0  0.129235  0  1.014392  0  0  0.133261  0  1.011343  0  0  0.116255  0.126235  0  1.016778  0
H  H23  1  0.65041886  0.91856966  0.92061227  1  0  0.119115  0  0.960309  0  0  0.129176  0  1.014378  0  0  0.133202  0  1.011329  0  0  0.116242  0.126171  0  1.016773  0
H  H24  1  0.85680316  0.97389686  0.61265085  1  0  0.133929  0  0.953619  0  0  0.139398  0  1.016736  0  0  0.14411  0  1.013261  0  0  0.12143  0.135998  0  1.01935  0
H  H25  1  0.35680567  0.02611043  0.88734771  1  0  0.13393  0  0.953613  0  0  0.139416  0  1.016715  0  0  0.144128  0  1.01324  0  0  0.121426  0.136009  0  1.019327  0
H  H26  1  0.14318489  0.02611380  0.38735591  1  0  0.133864  0  0.953558  0  0  0.139357  0  1.01667  0  0  0.144069  0  1.013195  0  0  0.121406  0.135948  0  1.019283  0
H  H27  1  0.64319437  0.97388426  0.11264329  1  0  0.133935  0  0.953574  0  0  0.139442  0  1.016683  0  0  0.144152  0  1.013211  0  0  0.121432  0.136044  0  1.019296  0
H  H28  1  0.59943169  0.66049093  0.66075911  1  0  0.448285  0  0.851374  0  0  0.412336  0  0.922544  0  0  0.425922  0  0.903201  0  0  0.318498  0.402801  0  0.936055  0
H  H29  1  0.09944229  0.33950671  0.83923134  1  0  0.448361  0  0.851342  0  0  0.412444  0  0.922383  0  0  0.426028  0  0.903043  0  0  0.31855  0.40291  0  0.935892  0
H  H30  1  0.40055757  0.33950629  0.33923611  1  0  0.448335  0  0.851321  0  0  0.412401  0  0.922434  0  0  0.425985  0  0.903094  0  0  0.318545  0.402867  0  0.935943  0
H  H31  1  0.90056015  0.66049555  0.16076484  1  0  0.448328  0  0.851357  0  0  0.412382  0  0.922481  0  0  0.42597  0  0.903135  0  0  0.318532  0.402847  0  0.93599  0
C  C32  1  0.00946149  0.59229959  0.64487816  1  0  0.105563  0  3.741619  0  0  0.111117  0  3.983737  0  0  0.111229  0  4.002888  0  0  0.120635  0.110771  0  3.970851  0
C  C33  1  0.50947087  0.40770547  0.85512033  1  0  0.105555  0  3.741533  0  0  0.111026  0  3.983795  0  0  0.111151  0  4.00294  0  0  0.120597  0.110674  0  3.97091  0
C  C34  1  0.99053375  0.40769593  0.35512047  1  0  0.105848  0  3.741178  0  0  0.111216  0  3.983561  0  0  0.111325  0  4.002712  0  0  0.120698  0.110892  0  3.970649  0
C  C35  1  0.49053995  0.59229678  0.14488482  1  0  0.105528  0  3.741614  0  0  0.111038  0  3.983761  0  0  0.111146  0  4.00291  0  0  0.120591  0.110691  0  3.970873  0
C  C36  1  0.93971428  0.48537825  0.62532077  1  0  -0.0849  0  3.626914  0  0  -0.112491  0  3.884035  0  0  -0.116019  0  3.903023  0  0  -0.064406  -0.110062  0  3.871392  0
C  C37  1  0.43973031  0.51462748  0.87468729  1  0  -0.084686  0  3.626497  0  0  -0.112445  0  3.883763  0  0  -0.115986  0  3.902753  0  0  -0.064446  -0.110012  0  3.871122  0
C  C38  1  0.06027977  0.51461810  0.37469072  1  0  -0.084796  0  3.626761  0  0  -0.112525  0  3.88395  0  0  -0.116053  0  3.902934  0  0  -0.064434  -0.110095  0  3.871305  0
C  C39  1  0.56028770  0.48537983  0.12531359  1  0  -0.084816  0  3.626806  0  0  -0.112451  0  3.883984  0  0  -0.115978  0  3.902977  0  0  -0.064411  -0.11002  0  3.871337  0
C  C40  1  0.03949194  0.39100985  0.60635942  1  0  0.01319  0  3.630898  0  0  -0.005447  0  3.887646  0  0  -0.003668  0  3.902647  0  0  -0.0535  -0.006545  0  3.877542  0
C  C41  1  0.53951404  0.60899357  0.89364253  1  0  0.012968  0  3.630821  0  0  -0.005708  0  3.887796  0  0  -0.003931  0  3.9028  0  0  -0.053688  -0.006809  0  3.87769  0
C  C42  1  0.96049492  0.60898398  0.39364786  1  0  0.013075  0  3.631192  0  0  -0.005522  0  3.887983  0  0  -0.003737  0  3.902992  0  0  -0.05367  -0.006622  0  3.877884  0
C  C43  1  0.46050158  0.39101290  0.10635520  1  0  0.013104  0  3.630871  0  0  -0.005479  0  3.887625  0  0  -0.00371  0  3.90262  0  0  -0.053577  -0.006578  0  3.87752  0
C  C44  1  0.20492508  0.40637344  0.60726647  1  0  -0.073419  0  3.647674  0  0  -0.100156  0  3.898018  0  0  -0.102239  0  3.916476  0  0  -0.06129  -0.098794  0  3.885693  0
C  C45  1  0.70494233  0.59362520  0.89273101  1  0  -0.073222  0  3.647996  0  0  -0.099868  0  3.898188  0  0  -0.101951  0  3.916641  0  0  -0.061179  -0.098509  0  3.885859  0
C  C46  1  0.79506777  0.59362377  0.39273547  1  0  -0.07334  0  3.648111  0  0  -0.100053  0  3.898338  0  0  -0.102144  0  3.916783  0  0  -0.061238  -0.098693  0  3.886018  0
C  C47  1  0.29507089  0.40637537  0.10726933  1  0  -0.073309  0  3.647647  0  0  -0.100056  0  3.897937  0  0  -0.102138  0  3.916394  0  0  -0.061257  -0.098696  0  3.885611  0
C  C48  1  0.26457826  0.51594146  0.62767319  1  0  0.104082  0  3.774944  0  0  0.10757  0  4.019813  0  0  0.107082  0  4.03876  0  0  0.120201  0.107775  0  4.00702  0
C  C49  1  0.76458793  0.48405643  0.87232272  1  0  0.103741  0  3.775049  0  0  0.107297  0  4.019882  0  0  0.106793  0  4.038865  0  0  0.120103  0.107506  0  4.00708  0
C  C50  1  0.73541339  0.48405406  0.37232693  1  0  0.103883  0  3.774909  0  0  0.107449  0  4.01975  0  0  0.106936  0  4.038744  0  0  0.120124  0.107656  0  4.006959  0
C  C51  1  0.23541331  0.51594497  0.12768451  1  0  0.10386  0  3.775113  0  0  0.107425  0  4.019923  0  0  0.106923  0  4.038896  0  0  0.120103  0.107632  0  4.007125  0
C  C52  1  0.91451443  0.70074228  0.66642294  1  0  0.653567  0  3.901143  0  0  0.60323  0  4.197662  0  0  0.637236  0  4.187498  0  0  0.226974  0.580314  0  4.203573  0
C  C53  1  0.41452369  0.29926089  0.83357788  1  0  0.653387  0  3.901135  0  0  0.603205  0  4.197444  0  0  0.637207  0  4.187285  0  0  0.226956  0.580288  0  4.20335  0
C  C54  1  0.08547482  0.29925155  0.33358059  1  0  0.653512  0  3.900934  0  0  0.603284  0  4.197368  0  0  0.637294  0  4.187198  0  0  0.227044  0.580352  0  4.203297  0
C  C55  1  0.58548833  0.70074221  0.16642071  1  0  0.653587  0  3.90101  0  0  0.603405  0  4.197295  0  0  0.637416  0  4.187124  0  0  0.227041  0.580487  0  4.203205  0
C  C56  1  0.44062046  0.53713708  0.62976049  1  0  0.633287  0  3.810916  0  0  0.583347  0  4.109831  0  0  0.615607  0  4.10101  0  0  0.242918  0.56131  0  4.115364  0
C  C57  1  0.94063245  0.46285689  0.87023337  1  0  0.633965  0  3.810223  0  0  0.583824  0  4.109408  0  0  0.616094  0  4.100573  0  0  0.243121  0.561786  0  4.114932  0
C  C58  1  0.55936640  0.46286434  0.37023926  1  0  0.633795  0  3.810427  0  0  0.583667  0  4.109564  0  0  0.615933  0  4.100736  0  0  0.243113  0.561631  0  4.115098  0
C  C59  1  0.05937478  0.53713779  0.12976734  1  0  0.63338  0  3.810698  0  0  0.583367  0  4.109686  0  0  0.615631  0  4.100864  0  0  0.242954  0.561325  0  4.115213  0
C  C60  1  0.47565474  0.84119691  0.47733140  1  0  0.097875  0  3.757726  0  0  0.100084  0  4.003849  0  0  0.100171  0  4.022512  0  0  0.115433  0.099799  0  3.991375  0
C  C61  1  0.97564940  0.15880421  0.02266800  1  0  0.097679  0  3.757826  0  0  0.099947  0  4.00392  0  0  0.100039  0  4.02256  0  0  0.115328  0.099661  0  3.991439  0
C  C62  1  0.52434770  0.15880283  0.52266878  1  0  0.097745  0  3.757989  0  0  0.099957  0  4.004101  0  0  0.100044  0  4.022765  0  0  0.115384  0.099674  0  3.991624  0
C  C63  1  0.02435783  0.84120058  0.97732941  1  0  0.097523  0  3.758178  0  0  0.099741  0  4.004282  0  0  0.099838  0  4.022936  0  0  0.115244  0.099455  0  3.991801  0
C  C64  1  0.60390042  0.86208497  0.41716231  1  0  -0.088488  0  3.630483  0  0  -0.113932  0  3.884815  0  0  -0.116406  0  3.90236  0  0  -0.066254  -0.112277  0  3.873209  0
C  C65  1  0.10390022  0.13790967  0.08283544  1  0  -0.088371  0  3.63039  0  0  -0.113846  0  3.884686  0  0  -0.116316  0  3.902217  0  0  -0.066238  -0.112194  0  3.873074  0
C  C66  1  0.39610322  0.13791056  0.58283707  1  0  -0.088366  0  3.630521  0  0  -0.113856  0  3.884842  0  0  -0.116324  0  3.902372  0  0  -0.066198  -0.112203  0  3.873235  0
C  C67  1  0.89611061  0.86209511  0.91716197  1  0  -0.088369  0  3.630474  0  0  -0.113875  0  3.884763  0  0  -0.11635  0  3.902306  0  0  -0.066189  -0.112221  0  3.873146  0
C  C68  1  0.74556905  0.90585455  0.46580167  1  0  0.010916  0  3.626781  0  0  -0.00545  0  3.878709  0  0  -0.003642  0  3.894007  0  0  -0.055031  -0.006549  0  3.868367  0
C  C69  1  0.24556740  0.09414115  0.03419793  1  0  0.010792  0  3.626753  0  0  -0.005598  0  3.878705  0  0  -0.003794  0  3.894011  0  0  -0.055071  -0.006699  0  3.868354  0
C  C70  1  0.25442740  0.09414350  0.53420192  1  0  0.010768  0  3.626742  0  0  -0.005625  0  3.87869  0  0  -0.003819  0  3.893989  0  0  -0.05504  -0.006724  0  3.868344  0
C  C71  1  0.75443983  0.90586448  0.96579814  1  0  0.011003  0  3.626749  0  0  -0.00539  0  3.878701  0  0  -0.003583  0  3.894001  0  0  -0.055001  -0.00649  0  3.868352  0
C  C72  1  0.75137405  0.93528531  0.57194871  1  0  -0.074257  0  3.627966  0  0  -0.101497  0  3.880584  0  0  -0.103679  0  3.896523  0  0  -0.058489  -0.100129  0  3.870039  0
C  C73  1  0.25137797  0.06471761  0.92804889  1  0  -0.074186  0  3.627727  0  0  -0.101421  0  3.880318  0  0  -0.103603  0  3.896255  0  0  -0.058422  -0.100052  0  3.869778  0
C  C74  1  0.24862240  0.06471610  0.42805403  1  0  -0.073992  0  3.627612  0  0  -0.101248  0  3.880233  0  0  -0.103428  0  3.89617  0  0  -0.058399  -0.099868  0  3.86968  0
C  C75  1  0.74862926  0.93528129  0.07194515  1  0  -0.074279  0  3.627769  0  0  -0.101644  0  3.880552  0  0  -0.10383  0  3.896495  0  0  -0.05855  -0.100279  0  3.870003  0
C  C76  1  0.61640438  0.91352834  0.62609579  1  0  0.111902  0  3.769811  0  0  0.11581  0  4.013841  0  0  0.117  0  4.030457  0  0  0.123124  0.11483  0  4.002674  0
C  C77  1  0.11640825  0.08648026  0.87390350  1  0  0.111947  0  3.7698  0  0  0.115811  0  4.013864  0  0  0.117001  0  4.030481  0  0  0.123111  0.114828  0  4.002692  0
C  C78  1  0.38359206  0.08647392  0.37390637  1  0  0.111785  0  3.769703  0  0  0.115651  0  4.013802  0  0  0.116841  0  4.030416  0  0  0.123042  0.114672  0  4.00263  0
C  C79  1  0.88360138  0.91352116  0.12609028  1  0  0.111905  0  3.769666  0  0  0.115828  0  4.013754  0  0  0.117019  0  4.030369  0  0  0.123118  0.114844  0  4.002582  0
C  C80  1  0.31566084  0.79215731  0.43828936  1  0  0.698937  0  3.85495  0  0  0.653279  0  4.145239  0  0  0.688847  0  4.132845  0  0  0.240585  0.629129  0  4.152703  0
C  C81  1  0.81566054  0.20784523  0.06171313  1  0  0.699255  0  3.854675  0  0  0.653522  0  4.145055  0  0  0.689109  0  4.132622  0  0  0.240635  0.629371  0  4.152511  0
C  C82  1  0.68433680  0.20783990  0.56170810  1  0  0.699067  0  3.854636  0  0  0.653415  0  4.144914  0  0  0.68898  0  4.132522  0  0  0.240585  0.629264  0  4.152373  0
C  C83  1  0.18434549  0.79216040  0.93828669  1  0  0.69919  0  3.854928  0  0  0.653566  0  4.14514  0  0  0.689121  0  4.13276  0  0  0.240636  0.629412  0  4.152596  0
C  C84  1  0.60191283  0.94339112  0.74017294  1  0  0.698421  0  3.841437  0  0  0.646503  0  4.137104  0  0  0.682963  0  4.122319  0  0  0.243894  0.621716  0  4.146281  0
C  C85  1  0.10191995  0.05661325  0.75982851  1  0  0.698578  0  3.84117  0  0  0.646736  0  4.13676  0  0  0.683204  0  4.121954  0  0  0.243977  0.62195  0  4.145937  0
C  C86  1  0.39807403  0.05661198  0.25982938  1  0  0.69839  0  3.84162  0  0  0.646483  0  4.137308  0  0  0.682947  0  4.122513  0  0  0.243848  0.621694  0  4.14648  0
C  C87  1  0.89807410  0.94338397  0.24016670  1  0  0.698545  0  3.841125  0  0  0.646581  0  4.136869  0  0  0.683045  0  4.122071  0  0  0.243887  0.621795  0  4.146042  0
N  N88  1  0.16923958  0.60688219  0.64634592  1  0  -0.421812  0  3.295982  0  0  -0.375137  0  3.546964  0  0  -0.387452  0  3.567184  0  0  -0.379843  -0.366266  0  3.533037  0
N  N89  1  0.66924053  0.39311807  0.85365408  1  0  -0.421661  0  3.296015  0  0  -0.374973  0  3.546987  0  0  -0.3873  0  3.567215  0  0  -0.379798  -0.366099  0  3.533051  0
N  N90  1  0.83075446  0.39311333  0.35365495  1  0  -0.421918  0  3.295892  0  0  -0.37521  0  3.54691  0  0  -0.38752  0  3.567136  0  0  -0.37984  -0.366344  0  3.532977  0
N  N91  1  0.33075831  0.60688249  0.14635224  1  0  -0.421712  0  3.295898  0  0  -0.375053  0  3.546864  0  0  -0.38737  0  3.567087  0  0  -0.379785  -0.366183  0  3.532933  0
N  N92  1  0.48500446  0.86403721  0.57986947  1  0  -0.464499  0  3.371224  0  0  -0.415406  0  3.62249  0  0  -0.429487  0  3.644287  0  0  -0.397623  -0.405389  0  3.607552  0
N  N93  1  0.98500592  0.13597113  0.92013241  1  0  -0.464426  0  3.371383  0  0  -0.415338  0  3.622604  0  0  -0.429433  0  3.644407  0  0  -0.397527  -0.405318  0  3.607658  0
N  N94  1  0.51499198  0.13596168  0.42013279  1  0  -0.464371  0  3.371255  0  0  -0.415266  0  3.622495  0  0  -0.429349  0  3.644292  0  0  -0.39755  -0.405249  0  3.607558  0
N  N95  1  0.01500011  0.86403534  0.07986607  1  0  -0.464305  0  3.371453  0  0  -0.41519  0  3.622655  0  0  -0.42928  0  3.644454  0  0  -0.397509  -0.40517  0  3.607706  0
O  O96  1  0.99619696  0.79091188  0.67594624  1  0  -0.699264  0  2.072399  0  0  -0.648981  0  2.328574  0  0  -0.674623  0  2.319184  0  0  -0.386084  -0.630782  0  2.334267  0
O  O97  1  0.49620351  0.20909142  0.82405693  1  0  -0.699175  0  2.072397  0  0  -0.648902  0  2.328461  0  0  -0.674566  0  2.319075  0  0  -0.386002  -0.630708  0  2.334149  0
O  O98  1  0.00379589  0.20908364  0.32405986  1  0  -0.699247  0  2.072322  0  0  -0.648974  0  2.328451  0  0  -0.674623  0  2.319051  0  0  -0.386074  -0.630776  0  2.334154  0
O  O99  1  0.50380252  0.79091169  0.17593717  1  0  -0.699308  0  2.072352  0  0  -0.648988  0  2.328322  0  0  -0.674645  0  2.318923  0  0  -0.386061  -0.630795  0  2.334018  0
O  O100  1  0.76470430  0.69809695  0.67692905  1  0  -0.609192  0  2.020898  0  0  -0.55798  0  2.249882  0  0  -0.583282  0  2.240473  0  0  -0.309266  -0.5404  0  2.255818  0
O  O101  1  0.26470875  0.30190598  0.82307380  1  0  -0.609177  0  2.020866  0  0  -0.558021  0  2.249738  0  0  -0.583313  0  2.24033  0  0  -0.30932  -0.540435  0  2.25567  0
O  O102  1  0.23529095  0.30189772  0.32307914  1  0  -0.609288  0  2.020915  0  0  -0.558101  0  2.249849  0  0  -0.583399  0  2.240438  0  0  -0.309368  -0.54051  0  2.25579  0
O  O103  1  0.73530087  0.69810553  0.17692788  1  0  -0.609212  0  2.020939  0  0  -0.558105  0  2.249908  0  0  -0.583402  0  2.240492  0  0  -0.309358  -0.540519  0  2.255845  0
O  O104  1  0.47571574  0.64800016  0.65535369  1  0  -0.661202  0  2.194583  0  0  -0.60253  0  2.432907  0  0  -0.627067  0  2.41499  0  0  -0.358378  -0.584914  0  2.444645  0
O  O105  1  0.97572491  0.35199723  0.84463488  1  0  -0.661556  0  2.194591  0  0  -0.602861  0  2.432976  0  0  -0.627405  0  2.415052  0  0  -0.358431  -0.585243  0  2.444712  0
O  O106  1  0.52427232  0.35199874  0.34463960  1  0  -0.661388  0  2.194288  0  0  -0.602692  0  2.432664  0  0  -0.62723  0  2.414746  0  0  -0.358408  -0.585072  0  2.444403  0
O  O107  1  0.02427872  0.64799998  0.15535959  1  0  -0.661298  0  2.194564  0  0  -0.602604  0  2.432884  0  0  -0.627158  0  2.414971  0  0  -0.358372  -0.584986  0  2.444622  0
O  O108  1  0.54159264  0.46266343  0.61122438  1  0  -0.499894  0  1.923748  0  0  -0.457496  0  2.131195  0  0  -0.477075  0  2.125468  0  0  -0.262789  -0.444117  0  2.135  0
O  O109  1  0.04160039  0.53733411  0.88876823  1  0  -0.500094  0  1.923381  0  0  -0.457649  0  2.130968  0  0  -0.477236  0  2.125226  0  0  -0.26291  -0.444278  0  2.13477  0
O  O110  1  0.45840141  0.53733630  0.38877281  1  0  -0.500012  0  1.923653  0  0  -0.457583  0  2.131237  0  0  -0.477165  0  2.125502  0  0  -0.262885  -0.444208  0  2.135048  0
O  O111  1  0.95839845  0.46266226  0.11122907  1  0  -0.499849  0  1.923387  0  0  -0.457434  0  2.130884  0  0  -0.477008  0  2.125154  0  0  -0.262814  -0.444054  0  2.134686  0
O  O112  1  0.22343896  0.76726696  0.50609273  1  0  -0.692279  0  2.008814  0  0  -0.644283  0  2.256731  0  0  -0.669813  0  2.247461  0  0  -0.369344  -0.626079  0  2.262325  0
O  O113  1  0.72343609  0.23273760  0.99390740  1  0  -0.692388  0  2.00863  0  0  -0.644378  0  2.256586  0  0  -0.669931  0  2.247305  0  0  -0.369338  -0.626174  0  2.262177  0
O  O114  1  0.77656348  0.23272521  0.49390227  1  0  -0.692349  0  2.008601  0  0  -0.644375  0  2.256527  0  0  -0.669907  0  2.247255  0  0  -0.369378  -0.626179  0  2.262139  0
O  O115  1  0.27656874  0.76726634  0.00609433  1  0  -0.692369  0  2.008635  0  0  -0.644384  0  2.256529  0  0  -0.669926  0  2.247266  0  0  -0.369372  -0.62618  0  2.262128  0
O  O116  1  0.28153153  0.78005846  0.34444009  1  0  -0.721434  0  2.050446  0  0  -0.670436  0  2.318145  0  0  -0.69672  0  2.306856  0  0  -0.395713  -0.651647  0  2.325157  0
O  O117  1  0.78153267  0.21994152  0.15555440  1  0  -0.721592  0  2.050543  0  0  -0.670565  0  2.318249  0  0  -0.696846  0  2.306951  0  0  -0.395739  -0.65178  0  2.32526  0
O  O118  1  0.71847091  0.21994633  0.65556031  1  0  -0.721475  0  2.050274  0  0  -0.670467  0  2.317956  0  0  -0.69675  0  2.306671  0  0  -0.39568  -0.651679  0  2.324962  0
O  O119  1  0.21847576  0.78005569  0.84444381  1  0  -0.721493  0  2.050571  0  0  -0.670514  0  2.318278  0  0  -0.69678  0  2.307  0  0  -0.395676  -0.651728  0  2.325284  0
O  O120  1  0.49442381  0.89236421  0.77998680  1  0  -0.681997  0  2.013458  0  0  -0.632969  0  2.262274  0  0  -0.657025  0  2.249708  0  0  -0.35666  -0.615924  0  2.270251  0
O  O121  1  0.99442114  0.10764582  0.72001168  1  0  -0.682179  0  2.013264  0  0  -0.633157  0  2.26201  0  0  -0.657228  0  2.249439  0  0  -0.356743  -0.616132  0  2.270034  0
O  O122  1  0.50556544  0.10763636  0.22001279  1  0  -0.682097  0  2.013563  0  0  -0.633016  0  2.262262  0  0  -0.657071  0  2.249691  0  0  -0.35671  -0.616007  0  2.270327  0
O  O123  1  0.00557051  0.89235223  0.27998370  1  0  -0.682062  0  2.013277  0  0  -0.632975  0  2.262044  0  0  -0.657043  0  2.249471  0  0  -0.356601  -0.615959  0  2.270088  0
O  O124  1  0.69436100  0.01875620  0.78923913  1  0  -0.720163  0  2.072824  0  0  -0.666122  0  2.344381  0  0  -0.693296  0  2.332795  0  0  -0.405979  -0.646644  0  2.351516  0
O  O125  1  0.19435901  0.98125504  0.71075926  1  0  -0.72025  0  2.072833  0  0  -0.666128  0  2.344172  0  0  -0.693289  0  2.332579  0  0  -0.405983  -0.646658  0  2.351313  0
O  O126  1  0.30561627  0.98125531  0.21076106  1  0  -0.720108  0  2.073016  0  0  -0.665987  0  2.344386  0  0  -0.693164  0  2.332796  0  0  -0.405898  -0.646508  0  2.35152  0
O  O127  1  0.80562066  0.01873544  0.28923168  1  0  -0.720303  0  2.072911  0  0  -0.666222  0  2.344437  0  0  -0.693385  0  2.332845  0  0  -0.406017  -0.646741  0  2.351573  0
