# generated using pymatgen
data_Zn3H34C50(N3O2)4
_symmetry_space_group_name_H-M   'P 1'
_cell_length_a   11.57353121
_cell_length_b   11.50418732
_cell_length_c   11.71627830
_cell_angle_alpha   65.00999379
_cell_angle_beta   81.80318480
_cell_angle_gamma   72.93387442
_symmetry_Int_Tables_number   1
_chemical_formula_structural   Zn3H34C50(N3O2)4
_chemical_formula_sum   'Zn3 H34 C50 N12 O8'
_cell_volume   1351.34206000
_cell_formula_units_Z   1
loop_
 _symmetry_equiv_pos_site_id
 _symmetry_equiv_pos_as_xyz
  1  'x, y, z'
loop_
 _atom_site_type_symbol
 _atom_site_label
 _atom_site_symmetry_multiplicity
 _atom_site_fract_x
 _atom_site_fract_y
 _atom_site_fract_z
 _atom_site_occupancy
 _atom_site_pbe_bader_charge
 _atom_site_pbe_bader_spin_density
 _atom_site_pbe_cm5_charge
 _atom_site_pbe_ddec_charge
 _atom_site_pbe_ddec_spin_density
 _atom_site_pbe_ddec_sum_bond_order
 _atom_site_pbe_magmom
Zn  Zn0  1  0.00000038  0.99999974  0.50000135  1  1.348522  0  0.685846  0.846242  0  2.401654  0
Zn  Zn1  1  0.99999851  0.00000012  0.00000007  1  1.276956  0  0.688629  0.683762  0  2.577889  0
Zn  Zn2  1  0.00000080  0.49999974  0.50000037  1  1.273418  0  0.685465  0.69135  0  2.509997  0
H  H3  1  0.20528441  0.01981567  0.30328967  1  0.12029  0  0.121798  0.097564  0  0.983763  0
H  H4  1  0.79471546  0.98018492  0.69670990  1  0.120299  0  0.121784  0.09755  0  0.983775  0
H  H5  1  0.36214487  0.58296761  0.64036029  1  0.083957  0  0.105114  0.107469  0  1.016667  0
H  H6  1  0.63785628  0.41703499  0.35964081  1  0.083946  0  0.105078  0.107418  0  1.016668  0
H  H7  1  0.14974381  0.71758907  0.63998957  1  0.135336  0  0.126665  0.108936  0  0.974112  0
H  H8  1  0.85025780  0.28241153  0.36000975  1  0.135309  0  0.126664  0.108928  0  0.974087  0
H  H9  1  0.42167287  0.90223599  0.29027550  1  0.079025  0  0.102727  0.107839  0  1.026124  0
H  H10  1  0.57832652  0.09776658  0.70972245  1  0.079038  0  0.102723  0.10786  0  1.026122  0
H  H11  1  0.64054696  0.79617541  0.01381797  1  0.063432  0  0.111311  0.118065  0  1.00618  0
H  H12  1  0.35945092  0.20382616  0.98617978  1  0.063427  0  0.111301  0.118062  0  1.006221  0
H  H13  1  0.54937030  0.55273446  0.67041034  1  0.104672  0  0.10998  0.117809  0  0.997875  0
H  H14  1  0.45062980  0.44726514  0.32958962  1  0.104663  0  0.109992  0.117815  0  0.997861  0
H  H15  1  0.46841875  0.79303719  0.02894899  1  0.108397  0  0.106807  0.111435  0  1.03138  0
H  H16  1  0.53157976  0.20696536  0.97104739  1  0.108376  0  0.10677  0.111381  0  1.031367  0
H  H17  1  0.57519390  0.75233831  0.26479539  1  0.077577  0  0.100354  0.103227  0  1.037962  0
H  H18  1  0.42480946  0.24766228  0.73520367  1  0.077574  0  0.100352  0.103224  0  1.037949  0
H  H19  1  0.14665866  0.19240239  0.99849553  1  0.112737  0  0.123231  0.095422  0  0.977529  0
H  H20  1  0.85333882  0.80759720  0.00150481  1  0.11277  0  0.123227  0.095411  0  0.977478  0
H  H21  1  0.25187084  0.80116621  0.04160044  1  0.109013  0  0.12406  0.096908  0  0.973682  0
H  H22  1  0.74812727  0.19883437  0.95839769  1  0.109019  0  0.124046  0.096936  0  0.973683  0
H  H23  1  0.04808594  0.65280717  0.17447855  1  0.115162  0  0.131501  0.095332  0  0.976959  0
H  H24  1  0.95191243  0.34719244  0.82552336  1  0.115296  0  0.131517  0.095321  0  0.976974  0
H  H25  1  0.79625734  0.64566755  0.28127437  1  0.075626  0  0.114758  0.081796  0  0.99734  0
H  H26  1  0.20374387  0.35433106  0.71872585  1  0.075632  0  0.114757  0.081793  0  0.99735  0
H  H27  1  0.77003567  0.44904792  0.66771283  1  0.08  0  0.116073  0.082392  0  1.005847  0
H  H28  1  0.22996553  0.55095068  0.33228653  1  0.079811  0  0.116071  0.082389  0  1.00586  0
H  H29  1  0.67003648  0.69589523  0.80300025  1  0.083456  0  0.11  0.079774  0  0.971023  0
H  H30  1  0.32996496  0.30410238  0.19700035  1  0.083483  0  0.110016  0.07979  0  0.971028  0
H  H31  1  0.29654254  0.83677746  0.80231775  1  0.101718  0  0.108404  0.084338  0  1.003883  0
H  H32  1  0.70345827  0.16321916  0.19768336  1  0.101688  0  0.10842  0.084334  0  1.003889  0
H  H33  1  0.29926582  0.00578109  0.58683277  1  0.065807  0  0.106396  0.120657  0  1.02452  0
H  H34  1  0.70073476  0.99421653  0.41316881  1  0.065798  0  0.106391  0.120633  0  1.024525  0
H  H35  1  0.69113580  0.85757616  0.58862595  1  0.119768  0  0.105824  0.123147  0  1.036569  0
H  H36  1  0.30886366  0.14242245  0.41137452  1  0.119756  0  0.105835  0.123142  0  1.036595  0
C  C37  1  0.04711166  0.96222405  0.76824394  1  1.582681  0  0.200886  0.562639  0  4.244103  0
C  C38  1  0.95288734  0.03777655  0.23175661  1  1.582634  0  0.200879  0.562644  0  4.244121  0
C  C39  1  0.97484113  0.89188461  0.26893293  1  0.373983  0  0.063216  -0.018266  0  3.962483  0
C  C40  1  0.02515787  0.10811599  0.73106847  1  0.374022  0  0.063239  -0.018246  0  3.962429  0
C  C41  1  0.24404399  0.92146584  0.37455195  1  0.465796  0  0.053984  0.10769  0  3.931605  0
C  C42  1  0.75595587  0.07853475  0.62544762  1  0.465775  0  0.054063  0.107768  0  3.931629  0
C  C43  1  0.54150424  0.66194816  0.46700128  1  -0.012466  0  0.01051  0.103392  0  3.983169  0
C  C44  1  0.45849714  0.33805343  0.53299850  1  -0.012458  0  0.010548  0.103491  0  3.983182  0
C  C45  1  0.41183981  0.73104081  0.46500647  1  -0.101471  0  0.008707  0.097148  0  3.986053  0
C  C46  1  0.58816134  0.26896177  0.53499293  1  -0.101478  0  0.008644  0.097045  0  3.986092  0
C  C47  1  0.33219868  0.67946409  0.56322292  1  0.034496  0  -0.08206  -0.170064  0  3.94875  0
C  C48  1  0.66780468  0.32053651  0.43677614  1  0.034135  0  -0.081955  -0.169954  0  3.948682  0
C  C49  1  0.21307814  0.75267811  0.56322768  1  0.497419  0  0.057453  0.113457  0  3.910755  0
C  C50  1  0.78692347  0.24732248  0.43677163  1  0.497795  0  0.057401  0.113426  0  3.910801  0
C  C51  1  0.36449573  0.85461630  0.36788264  1  0.024322  0  -0.085153  -0.177938  0  3.951644  0
C  C52  1  0.63550501  0.14538429  0.63211680  1  0.024331  0  -0.085176  -0.177982  0  3.951738  0
C  C53  1  0.65859965  0.88827328  0.00226060  1  -0.043005  0  -0.083405  -0.178707  0  3.94678  0
C  C54  1  0.34139910  0.11172829  0.99773701  1  -0.042461  0  -0.083433  -0.178753  0  3.946722  0
C  C55  1  0.59915394  0.57326766  0.58083428  1  -0.061596  0  -0.080579  -0.171722  0  3.943154  0
C  C56  1  0.40084680  0.42673293  0.41916517  1  -0.061656  0  -0.080621  -0.171786  0  3.943166  0
C  C57  1  0.56423190  0.00106413  0.99439355  1  -0.03682  0  0.007049  0.092465  0  3.984497  0
C  C58  1  0.43576597  0.99893743  0.00560249  1  -0.001599  0  0.007011  0.092457  0  3.984493  0
C  C59  1  0.40216981  0.88429249  0.02415309  1  -0.064138  0  -0.082098  -0.173143  0  3.950287  0
C  C60  1  0.59782981  0.11570909  0.97584440  1  -0.064155  0  -0.08208  -0.173111  0  3.950291  0
C  C61  1  0.61394720  0.68599616  0.35680480  1  0.031166  0  -0.086729  -0.180851  0  3.949053  0
C  C62  1  0.38605529  0.31400444  0.64319524  1  0.031156  0  -0.086739  -0.180882  0  3.94905  0
C  C63  1  0.77803605  0.89349153  0.99521004  1  0.521901  0  0.051968  0.096243  0  3.952678  0
C  C64  1  0.22196119  0.10650905  0.00478822  1  0.521905  0  0.052007  0.096243  0  3.952673  0
C  C65  1  0.28037022  0.88792025  0.03025977  1  0.523913  0  0.05627  0.103308  0  3.942168  0
C  C66  1  0.71962917  0.11208233  0.96973818  1  0.524089  0  0.056243  0.103245  0  3.942258  0
C  C67  1  0.02228375  0.71612500  0.22622375  1  0.984603  0  0.126114  0.142751  0  4.023535  0
C  C68  1  0.97771548  0.28387461  0.77377718  1  0.984537  0  0.126102  0.142768  0  4.023528  0
C  C69  1  0.97111453  0.78034272  0.38138859  1  0.417709  0  0.062447  -0.022551  0  3.974644  0
C  C70  1  0.02888621  0.21965788  0.61861086  1  0.417712  0  0.062435  -0.022577  0  3.974627  0
C  C71  1  0.93703619  0.75665031  0.51564537  1  1.570496  0  0.196182  0.55627  0  4.259912  0
C  C72  1  0.06296391  0.24334930  0.48435629  1  1.570452  0  0.196189  0.556311  0  4.259917  0
C  C73  1  0.73754010  0.62565831  0.36526451  1  0.464174  0  0.047982  0.096442  0  3.968586  0
C  C74  1  0.26246087  0.37434130  0.63473617  1  0.464186  0  0.048007  0.096483  0  3.96851  0
C  C75  1  0.72295073  0.51651798  0.58016669  1  0.509997  0  0.051343  0.106657  0  3.954265  0
C  C76  1  0.27705048  0.48348062  0.41983352  1  0.510203  0  0.051349  0.106674  0  3.954234  0
C  C77  1  0.58886200  0.76675973  0.75264137  1  0.471475  0  0.029686  0.077233  0  4.035198  0
C  C78  1  0.41113834  0.23323889  0.24735982  1  0.471611  0  0.02968  0.077246  0  4.03513  0
C  C79  1  0.38308080  0.84462132  0.75223050  1  0.48454  0  0.031889  0.085844  0  4.000113  0
C  C80  1  0.61692065  0.15537630  0.24777095  1  0.484664  0  0.031869  0.085892  0  4.000117  0
C  C81  1  0.38509821  0.94075681  0.62991840  1  -0.03259  0  -0.087989  -0.173487  0  3.920731  0
C  C82  1  0.61490237  0.05924082  0.37008403  1  -0.032488  0  -0.08798  -0.173486  0  3.92075  0
C  C83  1  0.49635575  0.94984539  0.56511062  1  -0.01232  0  0.001843  0.090637  0  3.977671  0
C  C84  1  0.50364395  0.05015222  0.43489109  1  -0.036702  0  0.001843  0.090633  0  3.977668  0
C  C85  1  0.60048304  0.85861033  0.63011444  1  -0.058868  0  -0.088255  -0.178138  0  3.934406  0
C  C86  1  0.39951730  0.14138828  0.36988675  1  -0.058609  0  -0.088263  -0.17813  0  3.934378  0
N  N87  1  0.00675463  0.84804562  0.17323573  1  -1.227515  0  -0.366575  -0.320731  0  3.613121  0
N  N88  1  0.99324263  0.15195499  0.82676593  1  -1.227586  0  -0.36661  -0.320762  0  3.613097  0
N  N89  1  0.16979391  0.87240098  0.47100928  1  -1.23673  0  -0.313972  -0.225907  0  3.515443  0
N  N90  1  0.83020572  0.12760061  0.52899076  1  -1.236729  0  -0.313992  -0.22592  0  3.515488  0
N  N91  1  0.80847499  0.00300176  0.98042398  1  -1.242374  0  -0.308538  -0.210329  0  3.49455  0
N  N92  1  0.19152289  0.99699982  0.01957546  1  -1.242207  0  -0.308576  -0.210338  0  3.494553  0
N  N93  1  0.00160311  0.67152747  0.35121346  1  -1.259565  0  -0.369494  -0.317191  0  3.629588  0
N  N94  1  0.99839763  0.32847314  0.64878768  1  -1.259644  0  -0.369475  -0.317158  0  3.629516  0
N  N95  1  0.79219157  0.54275827  0.47485162  1  -1.231443  0  -0.307072  -0.224604  0  3.457131  0
N  N96  1  0.20780877  0.45724035  0.52514957  1  -1.231404  0  -0.307077  -0.224616  0  3.457042  0
N  N97  1  0.48271606  0.75800097  0.81503859  1  -1.211631  0  -0.343014  -0.30899  0  3.341488  0
N  N98  1  0.51728451  0.24199665  0.18496299  1  -1.211781  0  -0.34301  -0.309028  0  3.341433  0
O  O99  1  0.05187773  0.91526219  0.68689418  1  -1.180906  0  -0.320093  -0.550538  0  2.380311  0
O  O100  1  0.94812063  0.08473742  0.31310689  1  -1.18088  0  -0.320087  -0.550534  0  2.380332  0
O  O101  1  0.05991026  0.88873360  0.88609726  1  -1.180224  0  -0.340144  -0.558671  0  2.250214  0
O  O102  1  0.94008699  0.11126701  0.11390440  1  -1.180174  0  -0.340138  -0.558664  0  2.250227  0
O  O103  1  0.90199148  0.85441351  0.54814345  1  -1.18482  0  -0.331364  -0.570365  0  2.335591  0
O  O104  1  0.09801037  0.14558611  0.45185881  1  -1.1848  0  -0.331383  -0.570408  0  2.335642  0
O  O105  1  0.94250507  0.63659997  0.59160397  1  -1.171678  0  -0.335909  -0.542719  0  2.222864  0
O  O106  1  0.05749416  0.36339963  0.40839611  1  -1.171663  0  -0.33589  -0.54271  0  2.222818  0
