# generated using pymatgen
data_AgH8C7SN2(OF)3
_symmetry_space_group_name_H-M   'P 1'
_cell_length_a   7.63422169
_cell_length_b   11.44546459
_cell_length_c   12.96281073
_cell_angle_alpha   89.99983151
_cell_angle_beta   101.61949182
_cell_angle_gamma   89.99999997
_symmetry_Int_Tables_number   1
_chemical_formula_structural   AgH8C7SN2(OF)3
_chemical_formula_sum   'Ag4 H32 C28 S4 N8 O12 F12'
_cell_volume   1109.44256279
_cell_formula_units_Z   4
loop_
 _symmetry_equiv_pos_site_id
 _symmetry_equiv_pos_as_xyz
  1  'x, y, z'
loop_
 _atom_site_type_symbol
 _atom_site_label
 _atom_site_symmetry_multiplicity
 _atom_site_fract_x
 _atom_site_fract_y
 _atom_site_fract_z
 _atom_site_occupancy
 _atom_site_hle17_bader_spin_density
 _atom_site_hle17_ddec_charge
 _atom_site_hle17_ddec_spin_density
 _atom_site_hle17_ddec_sum_bond_order
 _atom_site_hle17_magmom
 _atom_site_hse06_10hf_bader_spin_density
 _atom_site_hse06_10hf_ddec_charge
 _atom_site_hse06_10hf_ddec_spin_density
 _atom_site_hse06_10hf_ddec_sum_bond_order
 _atom_site_hse06_10hf_magmom
 _atom_site_hse06_bader_spin_density
 _atom_site_hse06_ddec_charge
 _atom_site_hse06_ddec_spin_density
 _atom_site_hse06_ddec_sum_bond_order
 _atom_site_hse06_magmom
 _atom_site_pbe_bader_spin_density
 _atom_site_pbe_cm5_charge
 _atom_site_pbe_ddec_charge
 _atom_site_pbe_ddec_spin_density
 _atom_site_pbe_ddec_sum_bond_order
 _atom_site_pbe_magmom
Ag  Ag0  1  0.79045190  0.21780319  0.06542301  1  0  0.502836  0  1.343257  0  0  0.349551  0  1.773518  0  0  0.38237  0  1.727606  0  0  0.454975  0.326675  0  1.805423  0
Ag  Ag1  1  0.70954839  0.71780242  0.93457923  1  0  0.502848  0  1.343329  0  0  0.349495  0  1.773653  0  0  0.382368  0  1.727664  0  0  0.454968  0.326618  0  1.805563  0
Ag  Ag2  1  0.20954802  0.78219561  0.93457814  1  0  0.502855  0  1.343305  0  0  0.349555  0  1.773551  0  0  0.382375  0  1.727643  0  0  0.454982  0.32668  0  1.805458  0
Ag  Ag3  1  0.29045288  0.28219726  0.06542130  1  0  0.502861  0  1.343285  0  0  0.349517  0  1.773619  0  0  0.382393  0  1.72762  0  0  0.454979  0.326642  0  1.805526  0
H  H4  1  0.86601906  0.66068857  0.12156291  1  0  0.305723  0  0.920187  0  0  0.295382  0  0.975052  0  0  0.30104  0  0.971994  0  0  0.287757  0.291335  0  0.977334  0
H  H5  1  0.63397994  0.16068926  0.87843625  1  0  0.305643  0  0.920236  0  0  0.295334  0  0.975061  0  0  0.300982  0  0.971995  0  0  0.287774  0.291293  0  0.977339  0
H  H6  1  0.13397953  0.33931111  0.87843731  1  0  0.3057  0  0.920202  0  0  0.295361  0  0.975072  0  0  0.301011  0  0.97201  0  0  0.287747  0.291314  0  0.977354  0
H  H7  1  0.36601865  0.83931129  0.12156243  1  0  0.305723  0  0.920179  0  0  0.295375  0  0.975052  0  0  0.301033  0  0.971992  0  0  0.287759  0.291329  0  0.977331  0
H  H8  1  0.64867202  0.65058589  0.11660912  1  0  0.293195  0  0.937546  0  0  0.283513  0  0.991541  0  0  0.289092  0  0.988846  0  0  0.283881  0.279552  0  0.993456  0
H  H9  1  0.85132700  0.15058656  0.88339006  1  0  0.293153  0  0.937582  0  0  0.283482  0  0.991575  0  0  0.289056  0  0.988873  0  0  0.283869  0.279523  0  0.993493  0
H  H10  1  0.35132791  0.34941292  0.88339048  1  0  0.293213  0  0.937517  0  0  0.283533  0  0.991502  0  0  0.289102  0  0.988812  0  0  0.283907  0.279573  0  0.993417  0
H  H11  1  0.14867159  0.84941312  0.11660938  1  0  0.293165  0  0.937615  0  0  0.283477  0  0.991614  0  0  0.28906  0  0.988911  0  0  0.283865  0.279517  0  0.993528  0
H  H12  1  0.86863138  0.46774154  0.04221040  1  0  0.080763  0  0.944073  0  0  0.100133  0  1.009554  0  0  0.100593  0  1.008475  0  0  0.108048  0.099733  0  1.010348  0
H  H13  1  0.63136734  0.96774243  0.95779023  1  0  0.080768  0  0.944073  0  0  0.100131  0  1.009535  0  0  0.100587  0  1.008464  0  0  0.10804  0.099732  0  1.01033  0
H  H14  1  0.13136854  0.53225815  0.95778766  1  0  0.08075  0  0.944075  0  0  0.100141  0  1.009515  0  0  0.100603  0  1.008434  0  0  0.108049  0.099742  0  1.010312  0
H  H15  1  0.36863258  0.03225812  0.04220860  1  0  0.080755  0  0.944064  0  0  0.100116  0  1.00954  0  0  0.100575  0  1.008462  0  0  0.108038  0.099715  0  1.010338  0
H  H16  1  0.63785744  0.45791144  0.04047213  1  0  0.068457  0  0.936242  0  0  0.08847  0  1.003532  0  0  0.088529  0  1.002727  0  0  0.103754  0.088279  0  1.004293  0
H  H17  1  0.86214397  0.95791321  0.95952730  1  0  0.068448  0  0.936255  0  0  0.088439  0  1.003541  0  0  0.088496  0  1.002738  0  0  0.103743  0.088248  0  1.004304  0
H  H18  1  0.36214249  0.54208736  0.95952670  1  0  0.068444  0  0.936274  0  0  0.088422  0  1.00358  0  0  0.08848  0  1.002778  0  0  0.103744  0.088234  0  1.004339  0
H  H19  1  0.13785596  0.04208822  0.04047153  1  0  0.068412  0  0.936196  0  0  0.088397  0  1.003509  0  0  0.088455  0  1.002703  0  0  0.103719  0.088207  0  1.00427  0
H  H20  1  0.86095499  0.18093930  0.29596361  1  0  0.084661  0  0.978075  0  0  0.093053  0  1.04283  0  0  0.095574  0  1.040346  0  0  0.108836  0.091158  0  1.044709  0
H  H21  1  0.63904400  0.68093929  0.70403703  1  0  0.08467  0  0.978029  0  0  0.093059  0  1.042785  0  0  0.09558  0  1.040308  0  0  0.108839  0.091163  0  1.044663  0
H  H22  1  0.13904493  0.81906038  0.70403599  1  0  0.084654  0  0.978045  0  0  0.093034  0  1.042816  0  0  0.095556  0  1.040336  0  0  0.108837  0.091139  0  1.044695  0
H  H23  1  0.36095593  0.31905951  0.29596489  1  0  0.08468  0  0.978077  0  0  0.093078  0  1.042819  0  0  0.095598  0  1.040339  0  0  0.108848  0.091182  0  1.044698  0
H  H24  1  0.88007674  0.29304544  0.46372569  1  0  0.106221  0  0.956843  0  0  0.112431  0  1.021891  0  0  0.116063  0  1.020159  0  0  0.100135  0.109829  0  1.023289  0
H  H25  1  0.61992616  0.79304861  0.53627589  1  0  0.10625  0  0.956742  0  0  0.112445  0  1.021798  0  0  0.116286  0  1.019733  0  0  0.10014  0.109842  0  1.023196  0
H  H26  1  0.11992453  0.70695337  0.53627407  1  0  0.106249  0  0.956828  0  0  0.11246  0  1.02187  0  0  0.116302  0  1.019804  0  0  0.10014  0.109857  0  1.023267  0
H  H27  1  0.38007243  0.20695020  0.46372510  1  0  0.106256  0  0.956757  0  0  0.112454  0  1.021808  0  0  0.116086  0  1.020076  0  0  0.100143  0.109852  0  1.023207  0
H  H28  1  0.84747015  0.51248871  0.45238718  1  0  0.091789  0  0.953719  0  0  0.10156  0  1.015417  0  0  0.103989  0  1.013361  0  0  0.101293  0.099777  0  1.016883  0
H  H29  1  0.65253034  0.01249050  0.54761562  1  0  0.091771  0  0.953688  0  0  0.101551  0  1.015387  0  0  0.103968  0  1.013357  0  0  0.101304  0.099769  0  1.016854  0
H  H30  1  0.15252978  0.48751097  0.54761242  1  0  0.091823  0  0.953687  0  0  0.101595  0  1.015382  0  0  0.104012  0  1.013353  0  0  0.101314  0.099812  0  1.016849  0
H  H31  1  0.34747093  0.98750744  0.45238414  1  0  0.091743  0  0.953709  0  0  0.101551  0  1.015378  0  0  0.103979  0  1.013322  0  0  0.101291  0.099768  0  1.016845  0
H  H32  1  0.80085750  0.60744626  0.27705469  1  0  0.112114  0  0.959923  0  0  0.120925  0  1.022944  0  0  0.123911  0  1.022041  0  0  0.107027  0.118867  0  1.023654  0
H  H33  1  0.69914022  0.10744747  0.72294676  1  0  0.112063  0  0.959916  0  0  0.120875  0  1.022938  0  0  0.123666  0  1.022351  0  0  0.106997  0.118817  0  1.023651  0
H  H34  1  0.19914109  0.39255254  0.72294552  1  0  0.112088  0  0.959945  0  0  0.120894  0  1.022967  0  0  0.123685  0  1.02238  0  0  0.107017  0.118836  0  1.023678  0
H  H35  1  0.30085971  0.89255221  0.27705130  1  0  0.112122  0  0.959869  0  0  0.120926  0  1.022892  0  0  0.123914  0  1.021983  0  0  0.107017  0.118869  0  1.023602  0
C  C36  1  0.76388986  0.49605137  0.08359932  1  0  -0.003882  0  3.696552  0  0  -0.073708  0  3.946517  0  0  -0.069852  0  3.960048  0  0  -0.073986  -0.076141  0  3.937042  0
C  C37  1  0.73611151  0.99605241  0.91640156  1  0  -0.003915  0  3.69648  0  0  -0.073686  0  3.946429  0  0  -0.069831  0  3.959944  0  0  -0.073985  -0.076112  0  3.936939  0
C  C38  1  0.23611140  0.50394744  0.91639967  1  0  -0.003905  0  3.69652  0  0  -0.073692  0  3.946439  0  0  -0.069839  0  3.959958  0  0  -0.073998  -0.07612  0  3.936944  0
C  C39  1  0.26388976  0.00394815  0.08359897  1  0  -0.003823  0  3.696427  0  0  -0.073602  0  3.946353  0  0  -0.069745  0  3.959886  0  0  -0.073933  -0.076035  0  3.936877  0
C  C40  1  0.80170095  0.44499778  0.19338243  1  0  0.237484  0  3.688075  0  0  0.24453  0  3.917257  0  0  0.252756  0  3.939378  0  0  0.122772  0.239059  0  3.902276  0
C  C41  1  0.69829913  0.94499918  0.80661843  1  0  0.237494  0  3.688082  0  0  0.244538  0  3.917218  0  0  0.252758  0  3.939311  0  0  0.122756  0.239067  0  3.902242  0
C  C42  1  0.19829897  0.55500190  0.80661717  1  0  0.237421  0  3.688096  0  0  0.24444  0  3.917273  0  0  0.252665  0  3.939358  0  0  0.122747  0.238971  0  3.902294  0
C  C43  1  0.30170080  0.05500225  0.19338118  1  0  0.237491  0  3.688107  0  0  0.244522  0  3.917246  0  0  0.252745  0  3.939371  0  0  0.122757  0.239051  0  3.902268  0
C  C44  1  0.84718652  0.27559688  0.29598044  1  0  0.126275  0  3.702888  0  0  0.095946  0  3.940179  0  0  0.103166  0  3.961785  0  0  0.039287  0.091376  0  3.925371  0
C  C45  1  0.65281372  0.77559775  0.70402242  1  0  0.126289  0  3.702867  0  0  0.095968  0  3.940134  0  0  0.10319  0  3.961766  0  0  0.039311  0.091398  0  3.925326  0
C  C46  1  0.15281340  0.72440193  0.70401994  1  0  0.126305  0  3.702879  0  0  0.095981  0  3.940176  0  0  0.103203  0  3.961808  0  0  0.039298  0.091411  0  3.925364  0
C  C47  1  0.34718755  0.22440368  0.29597966  1  0  0.126258  0  3.702854  0  0  0.095921  0  3.940134  0  0  0.103139  0  3.961744  0  0  0.039294  0.091352  0  3.925325  0
C  C48  1  0.85862130  0.33873091  0.38855452  1  0  -0.128634  0  3.747899  0  0  -0.144381  0  4.004509  0  0  -0.153228  0  4.027299  0  0  -0.092218  -0.138722  0  3.989199  0
C  C49  1  0.64137755  0.83873208  0.61144878  1  0  -0.12861  0  3.747849  0  0  -0.144341  0  4.004473  0  0  -0.153109  0  4.02698  0  0  -0.092162  -0.138681  0  3.989159  0
C  C50  1  0.14137863  0.66126790  0.61144585  1  0  -0.12866  0  3.74795  0  0  -0.144401  0  4.004562  0  0  -0.153171  0  4.027074  0  0  -0.09221  -0.138741  0  3.989248  0
C  C51  1  0.35862105  0.16126673  0.38855298  1  0  -0.128636  0  3.747804  0  0  -0.144374  0  4.004447  0  0  -0.153219  0  4.027231  0  0  -0.092198  -0.138713  0  3.989136  0
C  C52  1  0.84150459  0.45981556  0.38189209  1  0  0.00944  0  3.732651  0  0  -0.014626  0  3.993581  0  0  -0.009325  0  4.010843  0  0  -0.071191  -0.017844  0  3.981863  0
C  C53  1  0.65849681  0.95981584  0.61811043  1  0  0.009453  0  3.732666  0  0  -0.014638  0  3.99361  0  0  -0.009345  0  4.010882  0  0  -0.071214  -0.017858  0  3.981893  0
C  C54  1  0.15849533  0.54018325  0.61810829  1  0  0.009391  0  3.732689  0  0  -0.014691  0  3.993625  0  0  -0.009398  0  4.010895  0  0  -0.071221  -0.01791  0  3.981907  0
C  C55  1  0.34150311  0.04018209  0.38188994  1  0  0.009483  0  3.732658  0  0  -0.014632  0  3.993583  0  0  -0.009334  0  4.010849  0  0  -0.071189  -0.01785  0  3.981867  0
C  C56  1  0.81515044  0.51316087  0.28371330  1  0  -0.139749  0  3.690839  0  0  -0.161327  0  3.940661  0  0  -0.169395  0  3.961629  0  0  -0.086804  -0.156249  0  3.926668  0
C  C57  1  0.68484871  0.01316035  0.71628934  1  0  -0.139683  0  3.690883  0  0  -0.161246  0  3.940687  0  0  -0.169401  0  3.961936  0  0  -0.086768  -0.156172  0  3.926698  0
C  C58  1  0.18484815  0.48683794  0.71628692  1  0  -0.139681  0  3.690845  0  0  -0.161232  0  3.940649  0  0  -0.169385  0  3.961892  0  0  -0.086775  -0.156157  0  3.926656  0
C  C59  1  0.31514988  0.98683933  0.28371164  1  0  -0.139753  0  3.690858  0  0  -0.161293  0  3.940656  0  0  -0.16936  0  3.961625  0  0  -0.086791  -0.156215  0  3.926663  0
C  C60  1  0.82764600  0.90319387  0.34281908  1  0  0.597708  0  3.656343  0  0  0.526222  0  4.029461  0  0  0.555003  0  4.000911  0  0  0.288212  0.506014  0  4.049289  0
C  C61  1  0.67235278  0.40319267  0.65718018  1  0  0.597648  0  3.656436  0  0  0.526165  0  4.029572  0  0  0.554385  0  4.002105  0  0  0.288182  0.505955  0  4.049398  0
C  C62  1  0.17235393  0.09680756  0.65718206  1  0  0.597721  0  3.656332  0  0  0.52621  0  4.029478  0  0  0.554432  0  4.002007  0  0  0.288223  0.506004  0  4.049304  0
C  C63  1  0.32764715  0.59680788  0.34281942  1  0  0.597756  0  3.656288  0  0  0.526227  0  4.029483  0  0  0.555001  0  4.000951  0  0  0.288246  0.506019  0  4.049309  0
S  S64  1  0.82985591  0.91906765  0.19944809  1  0  1.12376  0  5.818161  0  0  1.016687  0  6.353273  0  0  1.060536  0  6.334232  0  0  0.489765  0.986749  0  6.36524  0
S  S65  1  0.67014286  0.41906772  0.80055191  1  0  1.123665  0  5.817982  0  0  1.016582  0  6.353117  0  0  1.060184  0  6.334638  0  0  0.489702  0.986645  0  6.365077  0
S  S66  1  0.17014535  0.08093378  0.80055244  1  0  1.123723  0  5.818213  0  0  1.01666  0  6.353328  0  0  1.060261  0  6.334848  0  0  0.489726  0.986721  0  6.365293  0
S  S67  1  0.32985707  0.58093371  0.19944770  1  0  1.123706  0  5.818176  0  0  1.016647  0  6.353291  0  0  1.0605  0  6.334251  0  0  0.48976  0.986709  0  6.365253  0
N  N68  1  0.81822196  0.32741407  0.20037263  1  0  -0.348408  0  3.34601  0  0  -0.251145  0  3.607118  0  0  -0.274401  0  3.626349  0  0  -0.350412  -0.235405  0  3.593743  0
N  N69  1  0.68177689  0.82741375  0.79962916  1  0  -0.348485  0  3.345996  0  0  -0.251222  0  3.607114  0  0  -0.274477  0  3.626341  0  0  -0.350478  -0.235482  0  3.593739  0
N  N70  1  0.18177930  0.67258561  0.79962790  1  0  -0.348419  0  3.34603  0  0  -0.251154  0  3.607143  0  0  -0.274408  0  3.626371  0  0  -0.350442  -0.235414  0  3.593767  0
N  N71  1  0.31822303  0.17258593  0.20037122  1  0  -0.348461  0  3.345982  0  0  -0.251189  0  3.607093  0  0  -0.274444  0  3.626323  0  0  -0.350468  -0.235448  0  3.593718  0
N  N72  1  0.75015229  0.62402434  0.08009967  1  0  -0.60049  0  3.217361  0  0  -0.520851  0  3.463657  0  0  -0.544379  0  3.466627  0  0  -0.652695  -0.50434  0  3.461017  0
N  N73  1  0.74984809  0.12402664  0.91990051  1  0  -0.600351  0  3.217318  0  0  -0.520798  0  3.463673  0  0  -0.544323  0  3.466593  0  0  -0.652692  -0.504279  0  3.461003  0
N  N74  1  0.24984764  0.37597447  0.91989993  1  0  -0.60044  0  3.217304  0  0  -0.520846  0  3.463626  0  0  -0.544381  0  3.466553  0  0  -0.652694  -0.504331  0  3.460986  0
N  N75  1  0.25015184  0.87597479  0.08009909  1  0  -0.600478  0  3.21738  0  0  -0.520851  0  3.463668  0  0  -0.544375  0  3.466633  0  0  -0.652682  -0.50434  0  3.461029  0
O  O76  1  0.94759007  0.82370589  0.18089565  1  0  -0.615427  0  2.056848  0  0  -0.574236  0  2.316354  0  0  -0.592387  0  2.303028  0  0  -0.329274  -0.56139  0  2.324882  0
O  O77  1  0.55240744  0.32370677  0.81910445  1  0  -0.615369  0  2.05678  0  0  -0.574172  0  2.316275  0  0  -0.592522  0  2.3034  0  0  -0.329251  -0.561332  0  2.324804  0
O  O78  1  0.05241252  0.17629642  0.81910350  1  0  -0.615395  0  2.056905  0  0  -0.574205  0  2.316412  0  0  -0.592559  0  2.303541  0  0  -0.32925  -0.56136  0  2.32494  0
O  O79  1  0.44759114  0.67629466  0.18089500  1  0  -0.615366  0  2.056775  0  0  -0.574176  0  2.316279  0  0  -0.592319  0  2.302946  0  0  -0.329265  -0.561333  0  2.32481  0
O  O80  1  0.90577084  0.03534818  0.19341581  1  0  -0.618157  0  2.07679  0  0  -0.569415  0  2.34977  0  0  -0.590495  0  2.337355  0  0  -0.334836  -0.554604  0  2.357897  0
O  O81  1  0.59423229  0.53534870  0.80658338  1  0  -0.618111  0  2.076709  0  0  -0.56934  0  2.349664  0  0  -0.590437  0  2.337297  0  0  -0.334803  -0.554529  0  2.357787  0
O  O82  1  0.09422909  0.96465413  0.80658611  1  0  -0.618126  0  2.076767  0  0  -0.569383  0  2.349741  0  0  -0.590465  0  2.337351  0  0  -0.334792  -0.55457  0  2.357866  0
O  O83  1  0.40576897  0.46465185  0.19341561  1  0  -0.618162  0  2.076775  0  0  -0.56941  0  2.34974  0  0  -0.590501  0  2.337334  0  0  -0.334845  -0.554598  0  2.357864  0
O  O84  1  0.64343414  0.90609665  0.14790203  1  0  -0.593643  0  2.017077  0  0  -0.550949  0  2.275822  0  0  -0.570418  0  2.264911  0  0  -0.326553  -0.53724  0  2.282736  0
O  O85  1  0.85656598  0.40609481  0.85209739  1  0  -0.593621  0  2.01695  0  0  -0.550947  0  2.275737  0  0  -0.570528  0  2.265118  0  0  -0.326552  -0.537239  0  2.282646  0
O  O86  1  0.35656713  0.09390303  0.85209851  1  0  -0.593651  0  2.017036  0  0  -0.550964  0  2.275774  0  0  -0.570545  0  2.265151  0  0  -0.326578  -0.537257  0  2.282688  0
O  O87  1  0.14343395  0.59390487  0.14790221  1  0  -0.593623  0  2.017064  0  0  -0.550935  0  2.275814  0  0  -0.570404  0  2.264904  0  0  -0.326549  -0.537226  0  2.282726  0
F  F88  1  0.73976620  0.80451021  0.36155193  1  0  -0.23062  0  1.199555  0  0  -0.185469  0  1.363196  0  0  -0.197461  0  1.350269  0  0  -0.092296  -0.178647  0  1.374196  0
F  F89  1  0.76023133  0.30450908  0.63844821  1  0  -0.230609  0  1.199639  0  0  -0.185447  0  1.363278  0  0  -0.194888  0  1.347508  0  0  -0.092276  -0.178625  0  1.374278  0
F  F90  1  0.26023105  0.19549122  0.63844735  1  0  -0.230615  0  1.199599  0  0  -0.18545  0  1.363249  0  0  -0.19489  0  1.347477  0  0  -0.092285  -0.178629  0  1.374248  0
F  F91  1  0.23976859  0.69549148  0.36155139  1  0  -0.230652  0  1.199547  0  0  -0.185479  0  1.363205  0  0  -0.197475  0  1.350286  0  0  -0.092319  -0.178658  0  1.374205  0
F  F92  1  0.74377007  0.99616164  0.37719678  1  0  -0.238728  0  1.215417  0  0  -0.191956  0  1.38039  0  0  -0.202498  0  1.366388  0  0  -0.089788  -0.184157  0  1.389978  0
F  F93  1  0.75622728  0.49616056  0.62280207  1  0  -0.238652  0  1.2154  0  0  -0.191909  0  1.3804  0  0  -0.202752  0  1.366648  0  0  -0.089759  -0.184109  0  1.389987  0
F  F94  1  0.25623119  0.00384153  0.62280375  1  0  -0.238728  0  1.215348  0  0  -0.19198  0  1.380354  0  0  -0.202824  0  1.366602  0  0  -0.089788  -0.184181  0  1.389942  0
F  F95  1  0.24377264  0.50383999  0.37719753  1  0  -0.238687  0  1.215367  0  0  -0.191937  0  1.38038  0  0  -0.202477  0  1.366382  0  0  -0.089778  -0.184139  0  1.389968  0
F  F96  1  0.99559459  0.89773397  0.40238144  1  0  -0.22272  0  1.194226  0  0  -0.190317  0  1.368942  0  0  -0.199098  0  1.352552  0  0  -0.095678  -0.183648  0  1.38009  0
F  F97  1  0.50440419  0.39773472  0.59761707  1  0  -0.222732  0  1.194231  0  0  -0.190324  0  1.368944  0  0  -0.199565  0  1.352978  0  0  -0.095698  -0.183654  0  1.380093  0
F  F98  1  0.00440400  0.10226484  0.59761801  1  0  -0.222726  0  1.194202  0  0  -0.190309  0  1.368923  0  0  -0.199552  0  1.352956  0  0  -0.095694  -0.18364  0  1.380071  0
F  F99  1  0.49559573  0.60226584  0.40238176  1  0  -0.222751  0  1.19421  0  0  -0.190329  0  1.368937  0  0  -0.199107  0  1.35255  0  0  -0.0957  -0.18366  0  1.380086  0
