# generated using pymatgen
data_CdH19C18N4O5
_symmetry_space_group_name_H-M   'P 1'
_cell_length_a   10.68107175
_cell_length_b   9.52445271
_cell_length_c   12.53817241
_cell_angle_alpha   92.25397308
_cell_angle_beta   113.77085587
_cell_angle_gamma   110.61337911
_symmetry_Int_Tables_number   1
_chemical_formula_structural   CdH19C18N4O5
_chemical_formula_sum   'Cd2 H38 C36 N8 O10'
_cell_volume   1067.84497887
_cell_formula_units_Z   2
loop_
 _symmetry_equiv_pos_site_id
 _symmetry_equiv_pos_as_xyz
  1  'x, y, z'
loop_
 _atom_site_type_symbol
 _atom_site_label
 _atom_site_symmetry_multiplicity
 _atom_site_fract_x
 _atom_site_fract_y
 _atom_site_fract_z
 _atom_site_occupancy
 _atom_site_hle17_bader_spin_density
 _atom_site_hle17_ddec_charge
 _atom_site_hle17_ddec_spin_density
 _atom_site_hle17_ddec_sum_bond_order
 _atom_site_hle17_magmom
 _atom_site_hse06_10hf_bader_spin_density
 _atom_site_hse06_10hf_ddec_charge
 _atom_site_hse06_10hf_ddec_spin_density
 _atom_site_hse06_10hf_ddec_sum_bond_order
 _atom_site_hse06_10hf_magmom
 _atom_site_hse06_bader_spin_density
 _atom_site_hse06_ddec_charge
 _atom_site_hse06_ddec_spin_density
 _atom_site_hse06_ddec_sum_bond_order
 _atom_site_hse06_magmom
 _atom_site_pbe_bader_spin_density
 _atom_site_pbe_cm5_charge
 _atom_site_pbe_ddec_charge
 _atom_site_pbe_ddec_spin_density
 _atom_site_pbe_ddec_sum_bond_order
 _atom_site_pbe_magmom
Cd  Cd0  1  0.24562032  0.82255928  0.83853899  1  0  1.128831  0  1.686628  0  0  0.944993  0  2.124015  0  0  1.000117  0  2.072334  0  0  0.768098  0.902802  0  2.161448  0
Cd  Cd1  1  0.75438580  0.17742423  0.16146136  1  0  1.128849  0  1.686602  0  0  0.945074  0  2.123944  0  0  1.00019  0  2.072284  0  0  0.768172  0.902888  0  2.161377  0
H  H2  1  0.17855816  0.02269433  0.92312557  1  0  0.415742  0  0.892244  0  0  0.383391  0  0.95835  0  0  0.395515  0  0.940676  0  0  0.278871  0.374773  0  0.970867  0
H  H3  1  0.82144131  0.97728553  0.07686943  1  0  0.415772  0  0.89221  0  0  0.383419  0  0.958328  0  0  0.395541  0  0.940656  0  0  0.278858  0.374796  0  0.970855  0
H  H4  1  0.35802871  0.10336268  0.01204533  1  0  0.424837  0  0.879462  0  0  0.392475  0  0.945473  0  0  0.403641  0  0.929269  0  0  0.28152  0.384437  0  0.957082  0
H  H5  1  0.64196780  0.89660807  0.98795400  1  0  0.424883  0  0.879375  0  0  0.392519  0  0.945384  0  0  0.403681  0  0.92918  0  0  0.28154  0.384481  0  0.957  0
H  H6  1  0.76427448  0.59039150  0.59527158  1  0  0.096329  0  0.968543  0  0  0.106546  0  1.03271  0  0  0.110573  0  1.028695  0  0  0.102078  0.103736  0  1.035284  0
H  H7  1  0.23574642  0.40962407  0.40471933  1  0  0.096305  0  0.968576  0  0  0.106518  0  1.032747  0  0  0.110567  0  1.028706  0  0  0.102105  0.103702  0  1.035332  0
H  H8  1  0.73245657  0.83947860  0.86661719  1  0  0.111335  0  0.949587  0  0  0.120312  0  1.013541  0  0  0.124463  0  1.009804  0  0  0.112131  0.117272  0  1.016405  0
H  H9  1  0.26754349  0.16050244  0.13338042  1  0  0.111312  0  0.9497  0  0  0.120281  0  1.013661  0  0  0.124454  0  1.009895  0  0  0.112107  0.11724  0  1.016524  0
H  H10  1  0.33021577  0.53633462  0.56532092  1  0  0.099512  0  0.964421  0  0  0.108935  0  1.028373  0  0  0.112997  0  1.024519  0  0  0.102018  0.106116  0  1.030863  0
H  H11  1  0.66979838  0.46368954  0.43464273  1  0  0.099302  0  0.964479  0  0  0.108726  0  1.02848  0  0  0.112786  0  1.024617  0  0  0.101912  0.105906  0  1.030976  0
H  H12  1  0.45151773  0.92576594  0.14860671  1  0  0.101779  0  0.987367  0  0  0.107476  0  1.058807  0  0  0.110432  0  1.055293  0  0  0.129879  0.10533  0  1.061107  0
H  H13  1  0.54848380  0.07421398  0.85138891  1  0  0.101672  0  0.987348  0  0  0.10741  0  1.05875  0  0  0.110364  0  1.055235  0  0  0.129826  0.105214  0  1.06111  0
H  H14  1  0.20088222  0.18975425  0.49974794  1  0  0.112297  0  0.964077  0  0  0.123412  0  1.025489  0  0  0.125251  0  1.025282  0  0  0.120066  0.121974  0  1.025744  0
H  H15  1  0.79911433  0.81025187  0.50027436  1  0  0.112146  0  0.964261  0  0  0.123349  0  1.02557  0  0  0.125187  0  1.025365  0  0  0.120015  0.121912  0  1.025823  0
H  H16  1  0.00696999  0.78366085  0.32281087  1  0  0.078782  0  0.901032  0  0  0.100167  0  0.952862  0  0  0.100495  0  0.952864  0  0  0.117212  0.099778  0  0.953042  0
H  H17  1  0.99303298  0.21635546  0.67719301  1  0  0.07872  0  0.901251  0  0  0.100125  0  0.953091  0  0  0.100454  0  0.953095  0  0  0.11721  0.099736  0  0.95327  0
H  H18  1  0.04514051  0.97581269  0.30757521  1  0  0.089941  0  0.938985  0  0  0.103978  0  1.002717  0  0  0.104486  0  1.003252  0  0  0.114383  0.10354  0  1.002166  0
H  H19  1  0.95486635  0.02420723  0.69243798  1  0  0.089919  0  0.939024  0  0  0.104023  0  1.002701  0  0  0.104529  0  1.003239  0  0  0.114405  0.103585  0  1.002146  0
H  H20  1  0.31097427  0.02122677  0.35716941  1  0  0.069703  0  0.938644  0  0  0.089014  0  0.998599  0  0  0.088866  0  1.000836  0  0  0.090182  0.088991  0  0.996908  0
H  H21  1  0.68903518  0.97879791  0.64285753  1  0  0.069771  0  0.93861  0  0  0.089012  0  0.998645  0  0  0.088859  0  1.00088  0  0  0.090199  0.088992  0  0.996954  0
H  H22  1  0.17631660  0.88359246  0.22582657  1  0  0.091754  0  0.916764  0  0  0.111678  0  0.970132  0  0  0.112469  0  0.970769  0  0  0.10379  0.111027  0  0.969662  0
H  H23  1  0.82370278  0.11643921  0.77419168  1  0  0.091775  0  0.916558  0  0  0.11159  0  0.970072  0  0  0.112381  0  0.970709  0  0  0.103783  0.110939  0  0.969602  0
H  H24  1  0.45160968  0.70423611  0.37066110  1  0  0.067524  0  0.954575  0  0  0.080471  0  1.023461  0  0  0.079744  0  1.025877  0  0  0.103319  0.081068  0  1.021278  0
H  H25  1  0.54838374  0.29577082  0.62933951  1  0  0.067444  0  0.954693  0  0  0.080396  0  1.023579  0  0  0.079669  0  1.025999  0  0  0.103302  0.080991  0  1.021401  0
H  H26  1  0.49001762  0.89481769  0.34963144  1  0  0.07491  0  0.922628  0  0  0.093072  0  0.981335  0  0  0.093404  0  0.981984  0  0  0.111851  0.092894  0  0.980739  0
H  H27  1  0.50997878  0.10518473  0.65036272  1  0  0.074891  0  0.922641  0  0  0.093063  0  0.981357  0  0  0.093399  0  0.982001  0  0  0.111852  0.092883  0  0.980758  0
H  H28  1  0.10108152  0.50305922  0.93686898  1  0  0.101469  0  0.951259  0  0  0.113607  0  1.006334  0  0  0.115862  0  1.005621  0  0  0.117765  0.111811  0  1.007275  0
H  H29  1  0.89890501  0.49692488  0.06313504  1  0  0.101486  0  0.951263  0  0  0.113632  0  1.006332  0  0  0.115883  0  1.005612  0  0  0.117788  0.111835  0  1.007273  0
H  H30  1  0.16383291  0.50299396  0.17432680  1  0  0.117444  0  0.994267  0  0  0.124098  0  1.06138  0  0  0.126695  0  1.060534  0  0  0.117468  0.122272  0  1.06192  0
H  H31  1  0.83614425  0.49700911  0.82567593  1  0  0.117509  0  0.994265  0  0  0.124133  0  1.061379  0  0  0.126728  0  1.060537  0  0  0.117491  0.122307  0  1.061912  0
H  H32  1  0.34527082  0.81651517  0.46987362  1  0  0.068425  0  0.939169  0  0  0.087694  0  1.000449  0  0  0.087968  0  1.001669  0  0  0.091182  0.087303  0  0.999738  0
H  H33  1  0.65474055  0.18349806  0.53013748  1  0  0.068446  0  0.939064  0  0  0.087606  0  1.000455  0  0  0.087873  0  1.001684  0  0  0.091158  0.087221  0  0.999733  0
H  H34  1  0.19731919  0.67290204  0.34639503  1  0  0.072329  0  0.926247  0  0  0.093779  0  0.983599  0  0  0.094079  0  0.984217  0  0  0.095783  0.09333  0  0.98332  0
H  H35  1  0.80268236  0.32711998  0.65361743  1  0  0.072198  0  0.926233  0  0  0.093672  0  0.983536  0  0  0.093972  0  0.98415  0  0  0.095726  0.0932  0  0.983288  0
H  H36  1  0.27921634  0.17244979  0.73971762  1  0  0.116432  0  0.940748  0  0  0.127642  0  0.995555  0  0  0.130533  0  0.99373  0  0  0.121828  0.125455  0  0.996992  0
H  H37  1  0.72077585  0.82753349  0.26030086  1  0  0.116388  0  0.940788  0  0  0.127587  0  0.995598  0  0  0.130479  0  0.99377  0  0  0.121801  0.125401  0  0.99703  0
H  H38  1  0.12119988  0.73085233  0.53659604  1  0  0.103071  0  0.926016  0  0  0.115266  0  0.983659  0  0  0.117826  0  0.980349  0  0  0.138792  0.113247  0  0.98624  0
H  H39  1  0.87879809  0.26914793  0.46340330  1  0  0.102999  0  0.926038  0  0  0.115199  0  0.983685  0  0  0.117754  0  0.980381  0  0  0.138775  0.113187  0  0.986267  0
C  C40  1  0.93042175  0.78840912  0.80138000  1  0  0.634082  0  3.940066  0  0  0.583217  0  4.237962  0  0  0.617121  0  4.231467  0  0  0.197969  0.560286  0  4.241314  0
C  C41  1  0.06958502  0.21158353  0.19862649  1  0  0.634072  0  3.940003  0  0  0.583132  0  4.237936  0  0  0.617036  0  4.231443  0  0  0.197926  0.560202  0  4.241287  0
C  C42  1  0.53607847  0.55167437  0.55932628  1  0  0.032278  0  3.810594  0  0  0.050074  0  4.048122  0  0  0.048899  0  4.071602  0  0  -0.015586  0.050758  0  4.031624  0
C  C43  1  0.46393716  0.44834546  0.44065283  1  0  0.032531  0  3.810203  0  0  0.0501  0  4.047896  0  0  0.04891  0  4.071389  0  0  -0.015685  0.050784  0  4.031398  0
C  C44  1  0.69210602  0.61743491  0.62632960  1  0  -0.120797  0  3.722226  0  0  -0.157102  0  3.976985  0  0  -0.156124  0  3.994487  0  0  -0.086953  -0.156803  0  3.964199  0
C  C45  1  0.30791502  0.38258177  0.37365741  1  0  -0.120926  0  3.722346  0  0  -0.15717  0  3.977018  0  0  -0.156224  0  3.994546  0  0  -0.08699  -0.156864  0  3.96423  0
C  C46  1  0.42247887  0.72329845  0.76605796  1  0  0.64007  0  3.92119  0  0  0.589165  0  4.211552  0  0  0.623436  0  4.205759  0  0  0.195797  0.565907  0  4.214248  0
C  C47  1  0.57750888  0.27668879  0.23391700  1  0  0.639982  0  3.921629  0  0  0.589131  0  4.211924  0  0  0.623407  0  4.206133  0  0  0.195838  0.565873  0  4.214624  0
C  C48  1  0.52019094  0.68759382  0.72008513  1  0  -0.062646  0  3.772236  0  0  -0.035933  0  4.007771  0  0  -0.044273  0  4.030521  0  0  -0.020174  -0.030452  0  3.992711  0
C  C49  1  0.47980837  0.31240622  0.27988985  1  0  -0.062858  0  3.772592  0  0  -0.036131  0  4.008112  0  0  -0.044471  0  4.030862  0  0  -0.020209  -0.03065  0  3.993054  0
C  C50  1  0.67622402  0.75712896  0.78235545  1  0  -0.064343  0  3.687578  0  0  -0.103951  0  3.937948  0  0  -0.100841  0  3.955137  0  0  -0.073271  -0.106167  0  3.927102  0
C  C51  1  0.32379009  0.24287054  0.21763437  1  0  -0.064325  0  3.688026  0  0  -0.103959  0  3.938342  0  0  -0.100864  0  3.955518  0  0  -0.073252  -0.106179  0  3.927503  0
C  C52  1  0.76200037  0.71930313  0.73603905  1  0  -0.061279  0  3.779371  0  0  -0.035501  0  4.018655  0  0  -0.043276  0  4.040965  0  0  -0.018937  -0.03115  0  4.004285  0
C  C53  1  0.23800824  0.28070073  0.26395008  1  0  -0.061216  0  3.779427  0  0  -0.035295  0  4.018464  0  0  -0.043073  0  4.040782  0  0  -0.018861  -0.030946  0  4.004097  0
C  C54  1  0.45183411  0.58621210  0.60994870  1  0  -0.1059  0  3.696468  0  0  -0.139588  0  3.942563  0  0  -0.138794  0  3.961195  0  0  -0.083109  -0.139331  0  3.929313  0
C  C55  1  0.54818221  0.41380770  0.39002582  1  0  -0.105485  0  3.695757  0  0  -0.139154  0  3.941918  0  0  -0.138345  0  3.960532  0  0  -0.082946  -0.138897  0  3.928674  0
C  C56  1  0.36724346  0.80918553  0.12115138  1  0  0.158914  0  3.659376  0  0  0.098566  0  3.920876  0  0  0.112338  0  3.934138  0  0  0.137223  0.089314  0  3.911903  0
C  C57  1  0.63275072  0.19079873  0.87884618  1  0  0.158996  0  3.659244  0  0  0.098632  0  3.920726  0  0  0.112403  0  3.93399  0  0  0.137304  0.08942  0  3.911786  0
C  C58  1  0.19688387  0.09401158  0.54409455  1  0  -0.069876  0  3.678656  0  0  -0.111687  0  3.941532  0  0  -0.110063  0  3.960965  0  0  -0.003151  -0.112818  0  3.928419  0
C  C59  1  0.80311371  0.90598997  0.45592229  1  0  -0.069784  0  3.67841  0  0  -0.111651  0  3.94122  0  0  -0.110028  0  3.960655  0  0  -0.003165  -0.112778  0  3.928101  0
C  C60  1  0.09574279  0.90008689  0.35339380  1  0  0.000529  0  3.623356  0  0  -0.064919  0  3.887923  0  0  -0.060253  0  3.898996  0  0  -0.050195  -0.067787  0  3.880123  0
C  C61  1  0.90426013  0.09993063  0.64661811  1  0  0.000728  0  3.623466  0  0  -0.0648  0  3.888128  0  0  -0.060139  0  3.899207  0  0  -0.050133  -0.067664  0  3.88032  0
C  C62  1  0.22216032  0.90439367  0.32365630  1  0  -0.129933  0  3.679264  0  0  -0.17214  0  3.947328  0  0  -0.173653  0  3.961107  0  0  -0.164122  -0.170883  0  3.937594  0
C  C63  1  0.77785071  0.09562869  0.67636144  1  0  -0.130023  0  3.67916  0  0  -0.172111  0  3.94722  0  0  -0.173616  0  3.960995  0  0  -0.1642  -0.170862  0  3.937485  0
C  C64  1  0.39986109  0.78100902  0.32781588  1  0  0.004646  0  3.637225  0  0  -0.058956  0  3.900336  0  0  -0.054435  0  3.912123  0  0  -0.052158  -0.061858  0  3.891883  0
C  C65  1  0.60013359  0.21899799  0.67218832  1  0  0.004717  0  3.637153  0  0  -0.058913  0  3.900275  0  0  -0.054402  0  3.912086  0  0  -0.05217  -0.061807  0  3.891815  0
C  C66  1  0.18502342  0.59039673  0.01596026  1  0  0.008816  0  3.771227  0  0  -0.023634  0  4.032179  0  0  -0.021412  0  4.053414  0  0  -0.004003  -0.025271  0  4.018137  0
C  C67  1  0.81495976  0.40958951  0.98404203  1  0  0.008755  0  3.771414  0  0  -0.023712  0  4.032354  0  0  -0.021477  0  4.053574  0  0  -0.00409  -0.025346  0  4.018313  0
C  C68  1  0.21486763  0.58830789  0.13303499  1  0  -0.079129  0  3.677433  0  0  -0.118447  0  3.932939  0  0  -0.118196  0  3.95363  0  0  -0.006164  -0.118814  0  3.919352  0
C  C69  1  0.78511535  0.41168858  0.86697003  1  0  -0.079209  0  3.677566  0  0  -0.118467  0  3.933094  0  0  -0.118217  0  3.953784  0  0  -0.006104  -0.11883  0  3.919504  0
C  C70  1  0.28756811  0.78823164  0.37169700  1  0  -0.128336  0  3.693478  0  0  -0.174151  0  3.964323  0  0  -0.175266  0  3.978198  0  0  -0.164634  -0.173456  0  3.954986  0
C  C71  1  0.71244024  0.21178717  0.62831420  1  0  -0.128315  0  3.693058  0  0  -0.173998  0  3.963836  0  0  -0.175101  0  3.977695  0  0  -0.16456  -0.173289  0  3.954502  0
C  C72  1  0.23545411  0.08408757  0.66153257  1  0  -0.003094  0  3.759507  0  0  -0.038295  0  4.033774  0  0  -0.03623  0  4.05375  0  0  -0.004962  -0.039492  0  4.019912  0
C  C73  1  0.76454414  0.91590493  0.33848252  1  0  -0.003012  0  3.759292  0  0  -0.038188  0  4.033538  0  0  -0.036121  0  4.05351  0  0  -0.004873  -0.039387  0  4.019672  0
C  C74  1  0.15382727  0.85335234  0.56066490  1  0  0.146539  0  3.689386  0  0  0.084587  0  3.95858  0  0  0.097781  0  3.97285  0  0  0.134081  0.075863  0  3.948947  0
C  C75  1  0.84617021  0.14664568  0.43933899  1  0  0.146649  0  3.689424  0  0  0.084714  0  3.958607  0  0  0.09791  0  3.972879  0  0  0.134153  0.075976  0  3.94899  0
N  N76  1  0.20831949  0.93316769  0.67048659  1  0  -0.389103  0  3.249215  0  0  -0.317187  0  3.534995  0  0  -0.338577  0  3.554424  0  0  -0.357601  -0.302638  0  3.521469  0
N  N77  1  0.79167777  0.06682355  0.32952016  1  0  -0.389115  0  3.249241  0  0  -0.317223  0  3.53501  0  0  -0.338609  0  3.554434  0  0  -0.357618  -0.302671  0  3.521492  0
N  N78  1  0.28040590  0.72859705  0.00960570  1  0  -0.392795  0  3.259394  0  0  -0.316503  0  3.539459  0  0  -0.338067  0  3.556223  0  0  -0.361026  -0.301734  0  3.527925  0
N  N79  1  0.71958759  0.27137928  0.99039373  1  0  -0.392743  0  3.259265  0  0  -0.316467  0  3.539336  0  0  -0.338029  0  3.556096  0  0  -0.360982  -0.3017  0  3.527795  0
N  N80  1  0.33119921  0.72785096  0.19860277  1  0  -0.06325  0  3.572205  0  0  0.03403  0  3.787516  0  0  0.019341  0  3.813984  0  0  -0.245485  0.043753  0  3.769876  0
N  N81  1  0.66878314  0.27214998  0.80139906  1  0  -0.063161  0  3.572163  0  0  0.034098  0  3.787468  0  0  0.019409  0  3.813946  0  0  -0.245546  0.043814  0  3.769828  0
N  N82  1  0.14500261  0.94664809  0.48122103  1  0  -0.070057  0  3.593558  0  0  0.025697  0  3.815036  0  0  0.010791  0  3.842442  0  0  -0.244994  0.035477  0  3.796612  0
N  N83  1  0.85499655  0.05335911  0.51878932  1  0  -0.070131  0  3.593251  0  0  0.025594  0  3.814847  0  0  0.010693  0  3.842248  0  0  -0.245039  0.035378  0  3.796423  0
O  O84  1  0.99329238  0.70826367  0.77568115  1  0  -0.665919  0  1.990801  0  0  -0.603084  0  2.243314  0  0  -0.631714  0  2.231039  0  0  -0.347474  -0.581996  0  2.251546  0
O  O85  1  0.00671383  0.29172674  0.22432908  1  0  -0.665881  0  1.990697  0  0  -0.603039  0  2.243249  0  0  -0.631662  0  2.230972  0  0  -0.347416  -0.581953  0  2.251489  0
O  O86  1  0.48463953  0.83802354  0.85421551  1  0  -0.673663  0  2.04061  0  0  -0.601531  0  2.277131  0  0  -0.631451  0  2.266544  0  0  -0.325576  -0.579316  0  2.282504  0
O  O87  1  0.51534856  0.16194462  0.14577638  1  0  -0.67343  0  2.040773  0  0  -0.601459  0  2.277422  0  0  -0.631394  0  2.266839  0  0  -0.325637  -0.579254  0  2.282804  0
O  O88  1  0.28138090  0.06447012  0.92748258  1  0  -0.849711  0  1.834358  0  0  -0.787125  0  2.017078  0  0  -0.809872  0  1.982266  0  0  -0.598807  -0.770596  0  2.041205  0
O  O89  1  0.71862019  0.93551095  0.07251535  1  0  -0.849755  0  1.834322  0  0  -0.787176  0  2.017001  0  0  -0.809937  0  1.982243  0  0  -0.598806  -0.770651  0  2.041122  0
O  O90  1  0.99407261  0.91706364  0.87198175  1  0  -0.607341  0  1.933095  0  0  -0.555126  0  2.144397  0  0  -0.578681  0  2.133889  0  0  -0.317196  -0.538275  0  2.150791  0
O  O91  1  0.00593939  0.08292583  0.12803020  1  0  -0.607334  0  1.933  0  0  -0.555109  0  2.144324  0  0  -0.578659  0  2.133823  0  0  -0.317199  -0.538238  0  2.150693  0
O  O92  1  0.28278608  0.64440358  0.71477659  1  0  -0.631338  0  1.89971  0  0  -0.578613  0  2.120776  0  0  -0.604064  0  2.109892  0  0  -0.337743  -0.559803  0  2.128219  0
O  O93  1  0.71720261  0.35558351  0.28518268  1  0  -0.631318  0  1.899783  0  0  -0.578582  0  2.120818  0  0  -0.604031  0  2.109932  0  0  -0.337734  -0.559768  0  2.128261  0
