# generated using pymatgen
data_CuH15C16N3O2
_symmetry_space_group_name_H-M   'P 1'
_cell_length_a   9.37153745
_cell_length_b   8.98166374
_cell_length_c   18.36210863
_cell_angle_alpha   86.54029625
_cell_angle_beta   90.00147790
_cell_angle_gamma   90.00151937
_symmetry_Int_Tables_number   1
_chemical_formula_structural   CuH15C16N3O2
_chemical_formula_sum   'Cu4 H60 C64 N12 O8'
_cell_volume   1542.75854035
_cell_formula_units_Z   4
loop_
 _symmetry_equiv_pos_site_id
 _symmetry_equiv_pos_as_xyz
  1  'x, y, z'
loop_
 _atom_site_type_symbol
 _atom_site_label
 _atom_site_symmetry_multiplicity
 _atom_site_fract_x
 _atom_site_fract_y
 _atom_site_fract_z
 _atom_site_occupancy
 _atom_site_pbe_bader_charge
 _atom_site_pbe_bader_spin_density
 _atom_site_pbe_cm5_charge
 _atom_site_pbe_ddec_charge
 _atom_site_pbe_ddec_spin_density
 _atom_site_pbe_ddec_sum_bond_order
 _atom_site_pbe_magmom
Cu  Cu0  1  0.96983966  0.61699633  0.83082961  1  0.979135  -0.508194  0.723149  0.687952  -0.704789  2.352426  -0.509
Cu  Cu1  1  0.46985528  0.38297333  0.66918642  1  0.979479  0.508172  0.723217  0.688054  0.704742  2.352513  0.509
Cu  Cu2  1  0.03013136  0.38296036  0.16917777  1  0.979827  -0.508197  0.723217  0.688116  -0.704752  2.352114  -0.509
Cu  Cu3  1  0.53014881  0.61703885  0.33082282  1  0.979671  0.508185  0.723196  0.688147  0.70476  2.352043  0.509
H  H4  1  0.37661046  0.14030147  0.72550562  1  0.42473  -0.000396  0.317871  0.310028  -3.2e-05  0.893847  0.0
H  H5  1  0.87663482  0.85967259  0.77450795  1  0.423695  0.000398  0.317847  0.309986  3.1e-05  0.893947  0.0
H  H6  1  0.62339151  0.85969478  0.27448462  1  0.424672  -0.000396  0.31794  0.309984  -3.1e-05  0.893926  0.0
H  H7  1  0.12340128  0.14030012  0.22550642  1  0.424741  0.000396  0.317843  0.309996  3.1e-05  0.893871  0.0
H  H8  1  0.29289896  0.28142897  0.76612422  1  0.514173  -0.00052  0.29592  0.28794  -0.000235  1.004655  0.0
H  H9  1  0.79288394  0.71856852  0.73387923  1  0.514136  0.00052  0.295841  0.287957  0.000235  1.004734  0.0
H  H10  1  0.70709980  0.71856190  0.23387533  1  0.513994  -0.000519  0.295947  0.287949  -0.000234  1.004579  0.0
H  H11  1  0.20711269  0.28144585  0.26611909  1  0.513753  0.00052  0.295857  0.287901  0.000235  1.004769  0.0
H  H12  1  0.85768835  0.16104398  0.55512821  1  0.083062  0.000134  0.09795  0.099623  8.9e-05  1.026283  0.0
H  H13  1  0.35767094  0.83900822  0.94485093  1  0.083659  -0.000133  0.097978  0.099607  -8.9e-05  1.026145  0.0
H  H14  1  0.14233282  0.83898268  0.44484713  1  0.082978  0.000134  0.097968  0.099598  8.9e-05  1.026297  0.0
H  H15  1  0.64234170  0.16104705  0.05515042  1  0.083025  -0.000134  0.097967  0.099579  -8.9e-05  1.026189  0.0
H  H16  1  0.43092123  0.37496037  0.86425898  1  0.072239  -0.000104  0.083049  0.123753  4e-05  1.048477  0.0
H  H17  1  0.93094336  0.62508200  0.63574484  1  0.071515  0.000104  0.083116  0.123864  -3.9e-05  1.048356  0.0
H  H18  1  0.56908820  0.62506205  0.13574801  1  0.071656  -0.000104  0.083038  0.123722  4e-05  1.048423  0.0
H  H19  1  0.06905219  0.37494202  0.36425724  1  0.072305  0.000105  0.083099  0.123777  -4e-05  1.048413  0.0
H  H20  1  0.47195885  0.21925336  0.92531511  1  0.04801  -0.000449  0.07918  0.10758  -0.000241  1.033772  0.0
H  H21  1  0.97193925  0.78078430  0.57467873  1  0.047683  0.000449  0.079092  0.107535  0.00024  1.033731  0.0
H  H22  1  0.52807940  0.78076653  0.07468372  1  0.047998  -0.000448  0.079109  0.107521  -0.00024  1.033799  0.0
H  H23  1  0.02804564  0.21924217  0.42532115  1  0.047996  0.000449  0.079122  0.107548  0.000241  1.033918  0.0
H  H24  1  0.46975564  0.40149639  0.95691601  1  0.023232  -8.8e-05  0.080543  0.112234  -6.6e-05  1.034098  0.0
H  H25  1  0.96975470  0.59853202  0.54309150  1  0.023364  8.8e-05  0.080523  0.112339  6.6e-05  1.034232  0.0
H  H26  1  0.53024312  0.59851335  0.04309542  1  0.023254  -8.8e-05  0.080485  0.112196  -6.6e-05  1.034187  0.0
H  H27  1  0.03023552  0.40148951  0.45691332  1  0.023593  8.8e-05  0.080522  0.112257  6.6e-05  1.034293  0.0
H  H28  1  0.29841553  0.06448484  0.60701426  1  0.102796  -0.000141  0.105308  0.117188  1.5e-05  1.024677  0.0
H  H29  1  0.79841465  0.93550486  0.89299201  1  0.10264  0.00014  0.105299  0.117137  -1.5e-05  1.024942  0.0
H  H30  1  0.70159177  0.93551116  0.39298962  1  0.102862  -0.00014  0.105303  0.117207  1.5e-05  1.024565  0.0
H  H31  1  0.20159372  0.06454222  0.10699085  1  0.102826  0.00014  0.105309  0.117083  -1.5e-05  1.024941  0.0
H  H32  1  0.30094563  0.43218780  0.05288945  1  0.071918  -0.000255  0.099812  0.097801  -0.000127  1.047844  0.0
H  H33  1  0.80094471  0.56777864  0.44712073  1  0.072321  0.000255  0.099838  0.09792  0.000127  1.047845  0.0
H  H34  1  0.69905313  0.56777268  0.94710209  1  0.072332  -0.000255  0.099813  0.097889  -0.000127  1.047783  0.0
H  H35  1  0.19905085  0.43221248  0.55288754  1  0.072201  0.000255  0.099861  0.097977  0.000127  1.047794  0.0
H  H36  1  0.21095942  0.22431592  0.90522442  1  0.064499  0.000211  0.096335  0.098012  9.2e-05  1.00558  0.0
H  H37  1  0.71094535  0.77566604  0.59478115  1  0.064823  -0.000211  0.096332  0.098034  -9.2e-05  1.0056  0.0
H  H38  1  0.78908629  0.77564723  0.09476275  1  0.06535  0.000211  0.096373  0.097996  9.2e-05  1.005631  0.0
H  H39  1  0.28904274  0.22435066  0.40521606  1  0.064969  -0.000211  0.096377  0.098051  -9.2e-05  1.005664  0.0
H  H40  1  0.24329326  0.26958227  0.99590130  1  0.068802  -0.001295  0.091037  0.094329  -0.000775  1.037266  -0.001
H  H41  1  0.74327432  0.73038545  0.50410735  1  0.069096  0.001297  0.091026  0.094294  0.000775  1.037304  0.001
H  H42  1  0.75671083  0.73036023  0.00409199  1  0.068771  -0.001297  0.091045  0.09436  -0.000775  1.037165  -0.001
H  H43  1  0.25672337  0.26962419  0.49589372  1  0.06908  0.001296  0.090981  0.094232  0.000775  1.037257  0.001
H  H44  1  0.08566357  0.02151688  0.53262301  1  0.049969  3e-06  0.101962  0.095006  -6e-05  1.027509  0.0
H  H45  1  0.58565371  0.97854605  0.96735484  1  0.048862  -3e-06  0.101995  0.095023  5.9e-05  1.027495  0.0
H  H46  1  0.91435440  0.97849045  0.46736772  1  0.049249  3e-06  0.102047  0.095122  -5.9e-05  1.027436  0.0
H  H47  1  0.41435892  0.02153446  0.03262782  1  0.049449  -3e-06  0.102069  0.095121  5.9e-05  1.027508  0.0
H  H48  1  0.29159097  0.60375201  0.15139811  1  0.074452  -4.5e-05  0.097164  0.105038  -6.8e-05  1.016982  0.0
H  H49  1  0.79151163  0.39623822  0.34860312  1  0.073845  4.5e-05  0.097179  0.104969  6.8e-05  1.017033  0.0
H  H50  1  0.70848142  0.39623518  0.84858237  1  0.073876  -4.5e-05  0.097272  0.105057  -6.8e-05  1.016958  0.0
H  H51  1  0.20846899  0.60374860  0.65140354  1  0.074095  4.5e-05  0.097161  0.104883  6.8e-05  1.017138  0.0
H  H52  1  0.84990982  0.33274454  0.65633392  1  0.097415  -0.000369  0.103093  0.108526  -0.000375  1.02553  0.0
H  H53  1  0.34990133  0.66727213  0.84366281  1  0.09795  0.000369  0.103149  0.108631  0.000375  1.025529  0.0
H  H54  1  0.15010068  0.66727464  0.34364965  1  0.098222  -0.000369  0.103111  0.108543  -0.000375  1.025486  0.0
H  H55  1  0.65011984  0.33273017  0.15635629  1  0.098001  0.000369  0.103113  0.108602  0.000375  1.025562  0.0
H  H56  1  0.01378123  0.89304144  0.01963442  1  0.0391  1.1e-05  0.098612  0.111468  -5.5e-05  1.025538  0.0
H  H57  1  0.51375831  0.10693935  0.48038630  1  0.038642  -1e-05  0.098647  0.111439  5.5e-05  1.025704  0.0
H  H58  1  0.98619512  0.10690952  0.98037463  1  0.038989  1.1e-05  0.098674  0.11151  -5.5e-05  1.02545  0.0
H  H59  1  0.48620097  0.89307940  0.51962398  1  0.039092  -1e-05  0.098649  0.111496  5.6e-05  1.025441  0.0
H  H60  1  0.14346900  0.83548254  0.13599789  1  0.036908  -0.001118  0.096086  0.090258  -0.000613  1.005849  -0.001
H  H61  1  0.64336631  0.16451345  0.36400368  1  0.037419  0.001119  0.096173  0.090188  0.000614  1.005975  0.001
H  H62  1  0.85660446  0.16451223  0.86398473  1  0.03696  -0.001118  0.096201  0.090309  -0.000613  1.006085  -0.001
H  H63  1  0.35659297  0.83547724  0.63600895  1  0.037125  0.001118  0.096159  0.09015  0.000613  1.006122  0.001
C  C64  1  0.17538781  0.45066153  0.92351493  1  0.571129  0.003164  0.144502  0.241809  0.001105  3.874714  0.002
C  C65  1  0.67540696  0.54930425  0.57650079  1  0.570418  -0.003156  0.144649  0.241894  -0.001099  3.874619  -0.002
C  C66  1  0.82458213  0.54928991  0.07648921  1  0.571902  0.003157  0.14442  0.241847  0.001098  3.874706  0.002
C  C67  1  0.32458433  0.45070391  0.42350411  1  0.57113  -0.003162  0.144522  0.241809  -0.0011  3.874786  -0.002
C  C68  1  0.95150118  0.17392310  0.58934359  1  0.000239  0.014924  -0.098832  -0.103074  0.010298  4.018525  0.009
C  C69  1  0.45149328  0.82611366  0.91063754  1  -5.1e-05  -0.014917  -0.099073  -0.103411  -0.010294  4.0188  -0.009
C  C70  1  0.04851465  0.82608594  0.41064113  1  0.000144  0.014917  -0.099034  -0.103396  0.010294  4.018786  0.009
C  C71  1  0.54851509  0.17392416  0.08936009  1  0.000614  -0.014911  -0.098936  -0.103235  -0.01029  4.018715  -0.009
C  C72  1  0.08102525  0.69601431  0.96855586  1  0.628832  -1.8e-05  0.085919  0.314462  -0.001542  4.077713  0.002
C  C73  1  0.58103101  0.30396406  0.53146388  1  0.6287  2e-05  0.085818  0.314379  0.001543  4.077716  -0.002
C  C74  1  0.91893936  0.30393447  0.03145265  1  0.628882  -1.9e-05  0.085937  0.314691  -0.001544  4.077444  0.002
C  C75  1  0.41894107  0.69605831  0.46854366  1  0.628634  1.8e-05  0.085939  0.314611  0.001542  4.077342  -0.002
C  C76  1  0.19346725  0.21406329  0.67642571  1  0.301593  -0.004866  0.087485  0.239084  -0.002972  3.986764  -0.005
C  C77  1  0.69346567  0.78592761  0.82358184  1  0.301932  0.004864  0.087414  0.23897  0.002971  3.986956  0.005
C  C78  1  0.80653151  0.78592312  0.32357386  1  0.301712  -0.004866  0.087577  0.239152  -0.002972  3.986915  -0.005
C  C79  1  0.30653950  0.21408204  0.17641924  1  0.301783  0.004863  0.087366  0.238904  0.00297  3.986806  0.005
C  C80  1  0.41660190  0.32707915  0.92019517  1  -0.103301  0.001117  -0.253175  -0.349465  0.000771  3.919365  0.001
C  C81  1  0.91660358  0.67294378  0.57980646  1  -0.102338  -0.001117  -0.253171  -0.349728  -0.000771  3.919624  -0.001
C  C82  1  0.58340966  0.67293262  0.07980698  1  -0.102468  0.001117  -0.253077  -0.349461  0.000772  3.919548  0.001
C  C83  1  0.08338345  0.32707467  0.42019565  1  -0.103624  -0.001117  -0.253173  -0.349597  -0.000771  3.919823  -0.001
C  C84  1  0.19789783  0.11816038  0.61934773  1  -0.022637  0.012049  -0.100557  -0.194107  0.008214  3.996896  0.007
C  C85  1  0.69790877  0.88185617  0.88065043  1  -0.023034  -0.012044  -0.100517  -0.193912  -0.008211  3.996693  -0.007
C  C86  1  0.80210627  0.88182933  0.38065236  1  -0.022753  0.012043  -0.100604  -0.194134  0.00821  3.99669  0.007
C  C87  1  0.30210280  0.11819032  0.11933843  1  -0.02281  -0.012043  -0.100523  -0.193808  -0.008209  3.996809  -0.007
C  C88  1  0.23721643  0.53312587  0.04504174  1  -0.074471  0.002755  -0.091887  -0.1072  0.001929  4.029575  0.001
C  C89  1  0.73720496  0.46684824  0.45497058  1  -0.075579  -0.002753  -0.09171  -0.106883  -0.001928  4.029786  -0.001
C  C90  1  0.76279086  0.46683307  0.95495418  1  -0.074341  0.002753  -0.091808  -0.107194  0.001928  4.030279  0.001
C  C91  1  0.26277459  0.53315975  0.54503595  1  -0.074941  -0.002753  -0.091879  -0.107337  -0.001928  4.029899  -0.001
C  C92  1  0.06573428  0.29141985  0.69072250  1  -0.046631  0.005641  -0.016635  -0.098184  0.003271  3.946252  0.002
C  C93  1  0.56572722  0.70858935  0.80928166  1  -0.046744  -0.005637  -0.016523  -0.098114  -0.00327  3.946087  -0.002
C  C94  1  0.93425808  0.70856890  0.30927597  1  -0.046432  0.005637  -0.016547  -0.098234  0.003268  3.946337  0.002
C  C95  1  0.43427901  0.29142432  0.19072375  1  -0.046565  -0.005634  -0.016577  -0.098196  -0.003266  3.946012  -0.002
C  C96  1  0.05147192  0.39280218  0.75100535  1  1.255039  -0.003612  0.205026  0.39698  -0.004253  4.165789  -0.002
C  C97  1  0.55146918  0.60719505  0.74899985  1  1.254908  0.003612  0.205008  0.396829  0.004255  4.165568  0.002
C  C98  1  0.94852258  0.60717882  0.24899262  1  1.25519  -0.003619  0.205008  0.396882  -0.004259  4.165625  -0.002
C  C99  1  0.44853705  0.39281507  0.25100776  1  1.254934  0.003615  0.205052  0.39693  0.004255  4.165712  0.002
C  C100  1  0.25810125  0.30844561  0.93871547  1  -0.049186  -0.012515  -0.167296  -0.186721  -0.009024  3.956767  -0.01
C  C101  1  0.75809861  0.69153841  0.56129375  1  -0.049697  0.012514  -0.16734  -0.186681  0.009025  3.95674  0.01
C  C102  1  0.74190604  0.69152553  0.06128092  1  -0.050295  -0.012516  -0.167355  -0.186667  -0.009024  3.956755  -0.01
C  C103  1  0.24188841  0.30847135  0.43870623  1  -0.0502  0.012519  -0.167315  -0.186603  0.009025  3.956695  0.01
C  C104  1  0.07774326  0.09668403  0.57678604  1  -0.068264  -0.002892  -0.087595  -0.061652  -0.001935  4.030287  -0.003
C  C105  1  0.57773564  0.90336225  0.92319838  1  -0.066727  0.002892  -0.08743  -0.061454  0.001935  4.029854  0.003
C  C106  1  0.92227044  0.90331985  0.42320579  1  -0.067052  -0.002892  -0.087535  -0.061614  -0.001935  4.030193  -0.003
C  C107  1  0.42227379  0.09669633  0.07679205  1  -0.067571  0.002891  -0.08761  -0.061743  0.001935  4.030358  0.003
C  C108  1  0.16355072  0.56054053  0.97808125  1  -0.017237  -0.006187  -0.031553  -0.122064  -0.004222  3.961232  -0.006
C  C109  1  0.66356705  0.43941648  0.52193823  1  -0.016722  0.006182  -0.031604  -0.12227  0.004219  3.961898  0.006
C  C110  1  0.83642564  0.43940714  0.02192727  1  -0.017182  -0.006182  -0.031635  -0.122319  -0.004219  3.961817  -0.006
C  C111  1  0.33641891  0.56058828  0.47806723  1  -0.016671  0.006182  -0.031503  -0.122076  0.004219  3.961586  0.006
C  C112  1  0.23247851  0.62941352  0.10115674  1  -0.068506  0.001183  -0.11855  -0.149542  0.00085  4.096679  0.0
C  C113  1  0.73241509  0.37057469  0.39884563  1  -0.066214  -0.001185  -0.118825  -0.150091  -0.000851  4.097107  0.0
C  C114  1  0.76756826  0.37057960  0.89883134  1  -0.067948  0.001185  -0.118749  -0.149714  0.000851  4.097137  0.0
C  C115  1  0.26754739  0.62942805  0.60115766  1  -0.067642  -0.001184  -0.118639  -0.149499  -0.000851  4.097069  0.0
C  C116  1  0.94689452  0.27091283  0.64568893  1  -0.055446  -0.002707  -0.085825  -0.085693  -0.001881  3.961804  -0.002
C  C117  1  0.44688480  0.72909762  0.85430813  1  -0.056398  0.002705  -0.085901  -0.085618  0.00188  3.961858  0.002
C  C118  1  0.05310958  0.72908787  0.35430129  1  -0.056635  -0.002707  -0.085794  -0.085352  -0.001881  3.961694  -0.002
C  C119  1  0.55312890  0.27092375  0.14569833  1  -0.056662  0.002706  -0.085779  -0.085478  0.001881  3.961633  0.002
C  C120  1  0.07923052  0.79302316  0.02698658  1  -0.088825  -0.011006  -0.114447  -0.215445  -0.008387  3.967194  -0.01
C  C121  1  0.57918829  0.20696328  0.47302214  1  -0.089004  0.011008  -0.114365  -0.21542  0.008388  3.967088  0.01
C  C122  1  0.92077464  0.20694548  0.97301255  1  -0.089386  -0.011007  -0.114573  -0.215822  -0.008387  3.967183  -0.01
C  C123  1  0.42076138  0.79304896  0.52698655  1  -0.088963  0.011006  -0.114615  -0.215801  0.008386  3.967099  0.01
C  C124  1  0.15164327  0.76053637  0.09167217  1  0.036456  0.000889  -0.09491  -0.048421  0.000637  4.054647  0.0
C  C125  1  0.65156716  0.23946104  0.40833055  1  0.03608  -0.000888  -0.094923  -0.048027  -0.000636  4.054706  0.0
C  C126  1  0.84841738  0.23944922  0.90831323  1  0.035984  0.00089  -0.094861  -0.04813  0.000637  4.054388  0.0
C  C127  1  0.34839105  0.76054902  0.59167760  1  0.035701  -0.000888  -0.094817  -0.047975  -0.000637  4.054922  0.0
N  N128  1  0.13868349  0.37150785  0.80754488  1  -0.791195  -0.01967  -0.256009  -0.3139  -0.013028  3.345037  -0.012
N  N129  1  0.63867830  0.62848421  0.69246764  1  -0.791526  0.019666  -0.256027  -0.313734  0.013024  3.345159  0.012
N  N130  1  0.86130567  0.62846747  0.19245421  1  -0.791065  -0.01967  -0.255984  -0.313652  -0.013028  3.345229  -0.012
N  N131  1  0.36132580  0.37152691  0.30754105  1  -0.791375  0.019667  -0.255998  -0.313724  0.013026  3.345317  0.012
N  N132  1  0.32076253  0.23744493  0.71684873  1  -1.184522  0.05666  -0.610168  -0.579716  0.040148  3.454496  0.047
N  N133  1  0.82076469  0.76253857  0.78316431  1  -1.183481  -0.056658  -0.610001  -0.579656  -0.040142  3.454605  -0.047
N  N134  1  0.67923409  0.76255279  0.28314914  1  -1.184357  0.056656  -0.610307  -0.579717  0.040144  3.454558  0.047
N  N135  1  0.17924048  0.23745388  0.21684177  1  -1.18411  -0.056651  -0.61002  -0.579639  -0.040139  3.454457  -0.047
N  N136  1  0.11600386  0.47388381  0.85878181  1  -0.786983  -0.117523  -0.277602  -0.193794  -0.083313  3.691186  -0.103
N  N137  1  0.61601851  0.52609480  0.64123114  1  -0.787245  0.117533  -0.277615  -0.193915  0.083321  3.691125  0.103
N  N138  1  0.88397035  0.52607416  0.14122392  1  -0.788044  -0.11753  -0.27753  -0.194024  -0.083318  3.69138  -0.103
N  N139  1  0.38398665  0.47391526  0.35877702  1  -0.787686  0.117526  -0.277658  -0.193994  0.083316  3.691286  0.103
O  O140  1  0.95376787  0.49574884  0.74603101  1  -1.086303  -0.087266  -0.330404  -0.51082  -0.059988  2.376837  -0.079
O  O141  1  0.45375093  0.50424003  0.75397386  1  -1.085816  0.087277  -0.330488  -0.510959  0.059996  2.376674  0.079
O  O142  1  0.04623730  0.50423811  0.25396310  1  -1.086443  -0.087275  -0.330526  -0.51094  -0.059992  2.376831  -0.079
O  O143  1  0.54625637  0.49576462  0.24603269  1  -1.085853  0.087288  -0.330481  -0.51097  0.060001  2.376778  0.079
O  O144  1  0.00351326  0.73686803  0.91082199  1  -1.100321  -0.126078  -0.35464  -0.519321  -0.086305  2.405327  -0.114
O  O145  1  0.50354282  0.26310028  0.58920314  1  -1.100441  0.126054  -0.354564  -0.519115  0.086292  2.405353  0.114
O  O146  1  0.99641828  0.26307092  0.08919585  1  -1.100325  -0.126059  -0.354589  -0.519313  -0.0863  2.404916  -0.114
O  O147  1  0.49643460  0.73692676  0.41080219  1  -1.100171  0.126064  -0.354594  -0.519364  0.086304  2.404815  0.114
