# generated using pymatgen
data_Zn3Cr3H45C69N9O25
_symmetry_space_group_name_H-M   'P 1'
_cell_length_a   14.66548087
_cell_length_b   16.92606713
_cell_length_c   16.92616034
_cell_angle_alpha   120.00030178
_cell_angle_beta   90.00005598
_cell_angle_gamma   90.00004281
_symmetry_Int_Tables_number   1
_chemical_formula_structural   Zn3Cr3H45C69N9O25
_chemical_formula_sum   'Zn3 Cr3 H45 C69 N9 O25'
_cell_volume   3638.64870469
_cell_formula_units_Z   1
loop_
 _symmetry_equiv_pos_site_id
 _symmetry_equiv_pos_as_xyz
  1  'x, y, z'
loop_
 _atom_site_type_symbol
 _atom_site_label
 _atom_site_symmetry_multiplicity
 _atom_site_fract_x
 _atom_site_fract_y
 _atom_site_fract_z
 _atom_site_occupancy
 _atom_site_pbe_bader_charge
 _atom_site_pbe_bader_spin_density
 _atom_site_pbe_cm5_charge
 _atom_site_pbe_ddec_charge
 _atom_site_pbe_ddec_spin_density
 _atom_site_pbe_ddec_sum_bond_order
 _atom_site_pbe_magmom
Zn  Zn0  1  0.00000133  0.65720804  0.65720836  1  1.240992  -0.000329  0.688596  0.747267  -0.001037  2.395909  0.0
Zn  Zn1  1  0.00000130  0.99999630  0.34278594  1  1.24247  -0.000329  0.688596  0.747244  -0.001037  2.396163  0.0
Zn  Zn2  1  0.99999928  0.34278996  0.99999954  1  1.242374  -0.000329  0.6886  0.747307  -0.001038  2.395983  0.0
Cr  Cr3  1  0.50000023  0.88549550  0.99999860  1  1.738611  2.611842  1.009282  1.416022  2.698563  2.79967  2.635
Cr  Cr4  1  0.50000008  0.11450691  0.11450788  1  1.743295  2.611235  1.009301  1.416085  2.698519  2.799474  2.635
Cr  Cr5  1  0.50000158  0.99999970  0.88548975  1  1.738664  2.611772  1.009454  1.416418  2.69841  2.799119  2.635
H  H6  1  0.26992374  0.87497270  0.72784320  1  0.110456  -2.6e-05  0.114211  0.126255  -0.000214  0.989009  0.0
H  H7  1  0.11877486  0.80015131  0.65887875  1  0.167498  -8.6e-05  0.121097  0.107648  -5.1e-05  1.034788  0.0
H  H8  1  0.26992681  0.85287071  0.12502951  1  0.116582  -3.1e-05  0.114211  0.126251  -0.000215  0.989156  0.0
H  H9  1  0.11877599  0.85872090  0.19984378  1  0.189768  -8.4e-05  0.121093  0.107735  -5.1e-05  1.034558  0.0
H  H10  1  0.26992043  0.27216128  0.14713585  1  0.112791  -2.7e-05  0.114178  0.126202  -0.000215  0.989053  0.0
H  H11  1  0.11877506  0.34112760  0.14127840  1  0.179482  -8.3e-05  0.121097  0.107635  -5.1e-05  1.034742  0.0
H  H12  1  0.73007913  0.87496831  0.72783884  1  0.110218  -2.6e-05  0.114235  0.126271  -0.000215  0.989085  0.0
H  H13  1  0.88122446  0.80014807  0.65887487  1  0.16762  -8.6e-05  0.121125  0.107693  -5.1e-05  1.034799  0.0
H  H14  1  0.73007196  0.85287262  0.12503419  1  0.121409  -2.7e-05  0.114221  0.126256  -0.000215  0.989154  0.0
H  H15  1  0.88122218  0.85872356  0.19984581  1  0.189813  -8.4e-05  0.121099  0.107708  -5.1e-05  1.03473  0.0
H  H16  1  0.73007786  0.27215833  0.14712885  1  0.112942  -2.6e-05  0.11423  0.126339  -0.000215  0.988989  0.0
H  H17  1  0.88122465  0.34112672  0.14127689  1  0.179601  -8.3e-05  0.121104  0.107693  -5e-05  1.0346  0.0
H  H18  1  0.73007710  0.72784201  0.87496706  1  0.110451  -2.6e-05  0.11425  0.126318  -0.000215  0.989128  0.0
H  H19  1  0.88122243  0.65887576  0.80014917  1  0.167644  -8.6e-05  0.121075  0.107643  -5.1e-05  1.034782  0.0
H  H20  1  0.73008024  0.12502817  0.85287062  1  0.116878  -3.1e-05  0.114237  0.126309  -0.000215  0.989069  0.0
H  H21  1  0.88122499  0.19985293  0.85872691  1  0.189819  -8.4e-05  0.121102  0.107693  -5.1e-05  1.03467  0.0
H  H22  1  0.73007515  0.14712665  0.27216152  1  0.109448  -2.6e-05  0.11424  0.126333  -0.000215  0.989103  0.0
H  H23  1  0.88122604  0.14127139  0.34111820  1  0.179691  -8.3e-05  0.12107  0.107739  -5.1e-05  1.034677  0.0
H  H24  1  0.26992172  0.72784057  0.87496899  1  0.110226  -2.6e-05  0.114204  0.126299  -0.000215  0.989107  0.0
H  H25  1  0.11877079  0.65887596  0.80015137  1  0.167524  -8.6e-05  0.121076  0.107648  -5e-05  1.034413  0.0
H  H26  1  0.26992485  0.12503077  0.85287797  1  0.11696  -3.1e-05  0.11424  0.126323  -0.000215  0.989038  0.0
H  H27  1  0.11877540  0.19984906  0.85872845  1  0.189916  -8.4e-05  0.121047  0.107578  -5.1e-05  1.034543  0.0
H  H28  1  0.26992658  0.14712650  0.27215861  1  0.112885  -2.5e-05  0.114251  0.126327  -0.000215  0.989057  0.0
H  H29  1  0.11877713  0.14127159  0.34112040  1  0.179732  -8.3e-05  0.121109  0.107773  -5.1e-05  1.034631  0.0
H  H30  1  0.49999871  0.52873187  0.99999394  1  0.10806  0.000159  0.117316  0.109534  5.9e-05  0.969509  0.0
H  H31  1  0.50000044  0.47126867  0.47126697  1  0.098216  0.000166  0.117385  0.109712  5.9e-05  0.969659  0.0
H  H32  1  0.49999865  0.99999632  0.52873349  1  0.107957  0.00016  0.117376  0.109637  6e-05  0.969872  0.0
H  H33  1  0.00000044  0.53949174  0.36698841  1  0.129706  -0.0  0.105879  0.118975  0.0  1.008177  0.0
H  H34  1  0.00000061  0.82749770  0.46051289  1  0.136374  -0.0  0.105854  0.118933  0.0  1.008231  0.0
H  H35  1  0.99999963  0.63301659  0.17250385  1  0.126164  -0.0  0.105904  0.119077  0.0  1.00786  0.0
H  H36  1  0.99999835  0.36698450  0.53948935  1  0.12974  -0.0  0.105871  0.11902  0.0  1.00806  0.0
H  H37  1  0.99999856  0.46051165  0.82749521  1  0.136475  -0.0  0.105861  0.118972  0.0  1.008181  0.0
H  H38  1  0.99999900  0.17250331  0.63301323  1  0.126028  -0.0  0.105874  0.118978  0.0  1.008122  0.0
H  H39  1  0.49999665  0.68258195  0.85903213  1  0.108938  -7.7e-05  0.124324  0.094769  -0.000255  0.983818  0.0
H  H40  1  0.49999590  0.53134367  0.85247366  1  0.08461  -0.000136  0.115402  0.117016  -0.000206  0.980678  0.0
H  H41  1  0.50000159  0.17645374  0.31741850  1  0.091702  -5.1e-05  0.124245  0.094703  -0.000255  0.98381  0.0
H  H42  1  0.49999969  0.32113590  0.46865673  1  0.082984  -0.000137  0.115409  0.117049  -0.000206  0.980586  0.0
H  H43  1  0.50000049  0.14096956  0.82354739  1  0.136174  -0.000104  0.124223  0.094643  -0.000255  0.983564  0.0
H  H44  1  0.50000109  0.14751731  0.67886063  1  0.087807  -0.000136  0.115461  0.11707  -0.000206  0.98057  0.0
H  H45  1  0.50000140  0.85903410  0.68258311  1  0.109025  -7.7e-05  0.124236  0.094628  -0.000255  0.983603  0.0
H  H46  1  0.49999995  0.85247632  0.53134337  1  0.084324  -0.000135  0.11543  0.117043  -0.000206  0.980572  0.0
H  H47  1  0.50000225  0.31741819  0.17645442  1  0.091694  -5.1e-05  0.124264  0.094693  -0.000255  0.983832  0.0
H  H48  1  0.50000240  0.46865582  0.32113489  1  0.082946  -0.000137  0.115415  0.117067  -0.000206  0.980618  0.0
H  H49  1  0.50000177  0.82354675  0.14095999  1  0.13637  -0.000104  0.124277  0.094701  -0.000255  0.983858  0.0
H  H50  1  0.50000103  0.67886522  0.14751621  1  0.087905  -0.000136  0.1155  0.117205  -0.000206  0.980486  0.0
C  C51  1  0.23923739  0.82626335  0.74410864  1  0.018994  -0.006292  -0.07821  -0.141083  -0.00684  3.945412  -0.003
C  C52  1  0.15644565  0.78524192  0.70564765  1  0.393656  -0.002498  0.049858  0.08731  -0.002461  3.914181  0.0
C  C53  1  0.23923915  0.91783528  0.17373364  1  -0.090958  -0.006466  -0.078191  -0.141065  -0.006862  3.944664  -0.003
C  C54  1  0.15644544  0.92040887  0.21476000  1  0.487153  -0.002342  0.049753  0.087007  -0.002455  3.914643  0.0
C  C55  1  0.23923745  0.25589785  0.08216489  1  -0.104364  -0.006484  -0.078129  -0.140953  -0.00685  3.944981  -0.003
C  C56  1  0.15644509  0.29435402  0.07959555  1  0.491917  -0.002319  0.049825  0.087282  -0.002457  3.914471  0.0
C  C57  1  0.76075932  0.82626223  0.74410346  1  -0.079082  -0.006453  -0.078134  -0.140971  -0.006845  3.944685  -0.003
C  C58  1  0.84356052  0.78523573  0.70564424  1  0.492131  -0.002334  0.049741  0.087037  -0.002453  3.914407  0.0
C  C59  1  0.76075427  0.91783861  0.17373701  1  -0.095466  -0.006454  -0.078107  -0.140922  -0.006848  3.944616  -0.003
C  C60  1  0.84355826  0.92040765  0.21476225  1  0.486805  -0.002341  0.049744  0.087014  -0.002454  3.914379  0.0
C  C61  1  0.76076621  0.25589927  0.08215952  1  -0.104692  -0.006488  -0.078196  -0.141129  -0.006854  3.944947  -0.003
C  C62  1  0.84355110  0.29434819  0.07958704  1  0.491982  -0.002319  0.049789  0.087156  -0.002457  3.914898  0.0
C  C63  1  0.76075797  0.74410438  0.82626158  1  -0.079283  -0.006455  -0.078229  -0.141174  -0.006848  3.944475  -0.003
C  C64  1  0.84355985  0.70564452  0.78523339  1  0.492002  -0.002333  0.049874  0.087192  -0.002451  3.914277  0.0
C  C65  1  0.76076596  0.17373779  0.91784026  1  -0.092317  -0.006452  -0.078196  -0.141104  -0.00685  3.945222  -0.003
C  C66  1  0.84355222  0.21476152  0.92041242  1  0.486403  -0.002345  0.049813  0.087186  -0.002458  3.914639  0.0
C  C67  1  0.76075532  0.08216032  0.25589893  1  -0.101155  -0.006485  -0.078196  -0.141143  -0.006852  3.944444  -0.003
C  C68  1  0.84355999  0.07958621  0.29435020  1  0.492295  -0.002313  0.049857  0.087107  -0.002451  3.914362  0.0
C  C69  1  0.23923126  0.74410119  0.82626517  1  0.019092  -0.006311  -0.078181  -0.141131  -0.006861  3.944675  -0.003
C  C70  1  0.15644430  0.70565749  0.78523948  1  0.394592  -0.002487  0.049865  0.087249  -0.00245  3.914937  0.0
C  C71  1  0.23923584  0.17374003  0.91784315  1  -0.091892  -0.00646  -0.078217  -0.141141  -0.006857  3.944762  -0.003
C  C72  1  0.15644689  0.21476396  0.92041959  1  0.486342  -0.00234  0.049944  0.087412  -0.002454  3.914688  0.0
C  C73  1  0.23923884  0.08215606  0.25589532  1  -0.104701  -0.00649  -0.078255  -0.141186  -0.006856  3.945085  -0.003
C  C74  1  0.15644717  0.07958777  0.29434762  1  0.491862  -0.00232  0.049808  0.08709  -0.002458  3.914599  0.0
C  C75  1  0.49999874  0.59318198  0.99999518  1  -0.095807  0.016984  -0.061078  -0.026584  0.013188  3.979663  0.01
C  C76  1  0.50000037  0.40682016  0.40681939  1  -0.089551  0.016984  -0.061189  -0.026935  0.013191  3.979969  0.01
C  C77  1  0.49999869  0.99999408  0.59317102  1  -0.095539  0.017026  -0.060987  -0.026678  0.013222  3.979159  0.01
C  C78  1  0.36913569  0.85061420  0.85060565  1  1.505706  -0.009474  0.220508  0.598676  -0.011847  4.125661  -0.001
C  C79  1  0.28223430  0.80542914  0.80542211  1  -0.007406  -0.014585  -0.001485  0.00242  -0.01662  3.97107  -0.009
C  C80  1  0.36913195  0.99999466  0.14938656  1  1.516234  -0.009496  0.220431  0.598616  -0.011865  4.125713  -0.001
C  C81  1  0.28223770  0.00000003  0.19457529  1  -0.007711  -0.014634  -0.001395  0.002576  -0.016624  3.970987  -0.009
C  C82  1  0.36913491  0.14939487  0.00001065  1  1.516748  -0.009489  0.220523  0.598745  -0.011852  4.125696  -0.001
C  C83  1  0.28223699  0.19457786  0.00000670  1  -0.007008  -0.01463  -0.00156  0.002303  -0.016622  3.971056  -0.009
C  C84  1  0.63086798  0.85061030  0.85060995  1  1.505677  -0.009464  0.220479  0.598685  -0.011837  4.125681  -0.001
C  C85  1  0.71776656  0.80542386  0.80542096  1  -0.00773  -0.01457  -0.001431  0.002576  -0.016604  3.971257  -0.009
C  C86  1  0.63086697  0.99999585  0.14939050  1  1.516962  -0.009478  0.22041  0.598442  -0.011843  4.125807  -0.001
C  C87  1  0.71776153  0.99999743  0.19457954  1  -0.007972  -0.014619  -0.001408  0.002582  -0.016606  3.97132  -0.009
C  C88  1  0.63086504  0.14938658  0.99999394  1  1.516583  -0.009482  0.220442  0.598651  -0.011852  4.125696  -0.001
C  C89  1  0.71776367  0.19457483  0.99999799  1  -0.006884  -0.014638  -0.001449  0.002456  -0.016626  3.970888  -0.009
C  C90  1  0.00000060  0.70722087  0.52136902  1  1.543468  -1.3e-05  0.195985  0.559379  -2e-06  4.240566  0.0
C  C91  1  0.00000053  0.68572872  0.42401037  1  -0.044842  -7e-06  -0.028314  -0.050882  -8e-06  4.009187  0.0
C  C92  1  0.00000114  0.59524296  0.35235293  1  0.006812  -5e-06  -0.075026  -0.094373  -5e-06  3.922874  0.0
C  C93  1  0.99999977  0.81414832  0.29278146  1  1.546457  -1.3e-05  0.195974  0.55943  -2e-06  4.240559  0.0
C  C94  1  0.99999839  0.73827691  0.31426276  1  0.044936  -7e-06  -0.028305  -0.050773  -8e-06  4.008579  0.0
C  C95  1  0.99999981  0.75711251  0.40477073  1  -0.082402  -5e-06  -0.075087  -0.094386  -5e-06  3.922358  0.0
C  C96  1  0.99999957  0.47863389  0.18585792  1  1.534301  -1.3e-05  0.195982  0.55936  -2e-06  4.240797  0.0
C  C97  1  0.00000176  0.57599114  0.26171526  1  -0.046562  -7e-06  -0.028316  -0.050869  -8e-06  4.00902  0.0
C  C98  1  0.99999967  0.64765997  0.24290666  1  -0.08541  -5e-06  -0.07497  -0.094384  -5e-06  3.923514  0.0
C  C99  1  0.99999988  0.52136722  0.70722212  1  1.544602  -1.3e-05  0.196055  0.559505  -2e-06  4.240558  0.0
C  C100  1  0.99999914  0.42400820  0.68572597  1  -0.044767  -7e-06  -0.028275  -0.050793  -9e-06  4.009294  0.0
C  C101  1  0.99999906  0.35234607  0.59524156  1  0.006723  -4e-06  -0.07505  -0.094464  -5e-06  3.923199  0.0
C  C102  1  0.99999848  0.29278028  0.81414731  1  1.546264  -1.3e-05  0.196028  0.559399  -3e-06  4.240623  0.0
C  C103  1  0.99999912  0.31426599  0.73827846  1  0.045189  -7e-06  -0.028242  -0.050696  -9e-06  4.008838  0.0
C  C104  1  0.99999781  0.40476204  0.75710788  1  -0.082589  -4e-06  -0.075046  -0.09445  -5e-06  3.922767  0.0
C  C105  1  0.99999961  0.18585100  0.47863286  1  1.534573  -1.4e-05  0.195986  0.559355  -3e-06  4.240636  0.0
C  C106  1  0.99999833  0.26171640  0.57598450  1  -0.045661  -7e-06  -0.028218  -0.050698  -9e-06  4.008613  0.0
C  C107  1  0.99999972  0.24289513  0.64765758  1  -0.086454  -4e-06  -0.075077  -0.094459  -5e-06  3.922833  0.0
C  C108  1  0.49999805  0.67796612  0.92095930  1  0.545149  0.014705  0.055399  0.103772  0.010562  3.93225  0.01
C  C109  1  0.49999801  0.59431601  0.91812681  1  -0.037335  -0.005142  -0.078363  -0.130796  -0.005727  3.987603  -0.004
C  C110  1  0.50000025  0.24299868  0.32203527  1  0.504324  0.014772  0.055484  0.103806  0.010565  3.932376  0.01
C  C111  1  0.49999897  0.32381701  0.40568307  1  -0.01434  -0.005147  -0.078379  -0.130802  -0.005727  3.987802  -0.004
C  C112  1  0.50000111  0.07903255  0.75699008  1  0.473154  0.014851  0.055524  0.103965  0.010565  3.932678  0.01
C  C113  1  0.49999970  0.08186956  0.67619434  1  -0.043689  -0.005142  -0.078432  -0.130801  -0.005731  3.987887  -0.004
C  C114  1  0.50000006  0.92096459  0.67795878  1  0.544515  0.014721  0.055563  0.104088  0.010574  3.932155  0.01
C  C115  1  0.49999797  0.91813026  0.59432558  1  -0.037167  -0.005142  -0.078464  -0.130889  -0.005728  3.988198  -0.004
C  C116  1  0.50000161  0.32203358  0.24299770  1  0.504501  0.01477  0.055589  0.104025  0.010564  3.932197  0.01
C  C117  1  0.50000169  0.40568330  0.32381532  1  -0.014509  -0.005148  -0.078459  -0.130958  -0.005727  3.987892  -0.004
C  C118  1  0.50000102  0.75700304  0.07903296  1  0.472681  0.014848  0.055508  0.104026  0.010563  3.932191  0.01
C  C119  1  0.49999963  0.67618325  0.08186121  1  -0.043717  -0.005138  -0.078546  -0.131209  -0.005726  3.988006  -0.004
N  N120  1  0.49999949  0.75803519  0.99999659  1  -1.236086  0.002995  -0.334891  -0.256891  -0.009102  3.522867  -0.024
N  N121  1  0.50000157  0.24196487  0.24196606  1  -1.207774  0.002987  -0.334905  -0.256808  -0.009107  3.5229  -0.024
N  N122  1  0.50000312  0.00000491  0.75803918  1  -1.235899  0.003008  -0.335071  -0.257237  -0.0091  3.52245  -0.024
N  N123  1  0.11601260  0.72540696  0.72541249  1  -1.224981  -0.011654  -0.321293  -0.220725  -0.012221  3.555362  -0.009
N  N124  1  0.11601587  0.99999603  0.27458768  1  -1.231684  -0.011663  -0.321229  -0.220559  -0.012233  3.555638  -0.009
N  N125  1  0.11601473  0.27459198  0.00000205  1  -1.231145  -0.011655  -0.321339  -0.220843  -0.012223  3.555474  -0.009
N  N126  1  0.88398401  0.72540846  0.72540859  1  -1.224295  -0.011641  -0.321277  -0.220566  -0.012206  3.555716  -0.009
N  N127  1  0.88398251  0.99999904  0.27458938  1  -1.231909  -0.011642  -0.32123  -0.220536  -0.01221  3.555845  -0.009
N  N128  1  0.88398750  0.27459532  0.00000340  1  -1.230965  -0.011658  -0.321283  -0.2207  -0.012227  3.555383  -0.009
O  O129  1  0.40269547  0.82991000  0.90759913  1  -1.139355  0.019585  -0.326564  -0.580907  0.009574  2.425754  -0.006
O  O130  1  0.40269405  0.07768817  0.17008759  1  -1.137221  0.019549  -0.326531  -0.580907  0.009574  2.425923  -0.006
O  O131  1  0.40269584  0.09239982  0.92231221  1  -1.144717  0.01962  -0.326541  -0.580959  0.009582  2.425624  -0.006
O  O132  1  0.59730893  0.82991336  0.90759842  1  -1.139475  0.019588  -0.326529  -0.580888  0.009575  2.426206  -0.006
O  O133  1  0.59730888  0.07768850  0.17008520  1  -1.137187  0.01955  -0.326542  -0.580863  0.009573  2.425965  -0.006
O  O134  1  0.59730998  0.09240301  0.92231404  1  -1.144575  0.019606  -0.326502  -0.580871  0.009565  2.426266  -0.006
O  O135  1  0.59730756  0.90760318  0.82991182  1  -1.139506  0.019599  -0.326581  -0.581037  0.009588  2.426013  -0.006
O  O136  1  0.59730750  0.17008857  0.07768968  1  -1.13738  0.019545  -0.326553  -0.580946  0.009574  2.425848  -0.006
O  O137  1  0.59730579  0.92231173  0.09239910  1  -1.145042  0.019621  -0.326539  -0.580855  0.009581  2.426207  -0.006
O  O138  1  0.40268932  0.90759702  0.82991179  1  -1.139689  0.019575  -0.326528  -0.580904  0.009568  2.426375  -0.006
O  O139  1  0.40269199  0.17008803  0.07768639  1  -1.137582  0.019545  -0.326536  -0.580902  0.009573  2.426481  -0.006
O  O140  1  0.40269301  0.92231050  0.09239649  1  -1.144382  0.019606  -0.32653  -0.5809  0.009572  2.426195  -0.006
O  O141  1  0.50000053  0.00000115  0.99999548  1  -1.102263  0.135927  -0.62459  -1.050397  0.112773  2.21729  0.04
O  O142  1  0.99999993  0.78873679  0.58514211  1  -1.206738  -3.5e-05  -0.337034  -0.569767  1.8e-05  2.134962  0.0
O  O143  1  0.99999983  0.63679619  0.53279688  1  -1.15561  -2e-06  -0.342337  -0.546536  3.2e-05  2.306821  0.0
O  O144  1  0.99999972  0.79640450  0.21127263  1  -1.178386  -3.5e-05  -0.33705  -0.569803  1.8e-05  2.13524  0.0
O  O145  1  0.99999985  0.89600471  0.36321005  1  -1.172485  -2e-06  -0.342307  -0.546576  3.2e-05  2.306615  0.0
O  O146  1  0.99999819  0.41486348  0.20360294  1  -1.193973  -3.5e-05  -0.337007  -0.569726  1.8e-05  2.135003  0.0
O  O147  1  0.00000094  0.46720056  0.10400191  1  -1.151042  -2e-06  -0.342397  -0.546599  3.2e-05  2.306829  0.0
O  O148  1  0.00000001  0.58513465  0.78873460  1  -1.207851  -3.5e-05  -0.337053  -0.569793  1.8e-05  2.135006  0.0
O  O149  1  0.99999984  0.53279684  0.63679745  1  -1.155544  -2e-06  -0.342427  -0.546666  3.2e-05  2.306624  0.0
O  O150  1  0.99999843  0.21126582  0.79640368  1  -1.178387  -3.5e-05  -0.337073  -0.569766  1.8e-05  2.134941  0.0
O  O151  1  0.99999923  0.36320638  0.89600133  1  -1.172365  -2e-06  -0.342388  -0.546629  3.2e-05  2.306829  0.0
O  O152  1  0.99999958  0.20359734  0.41485848  1  -1.194028  -3.5e-05  -0.337044  -0.569804  1.8e-05  2.134797  0.0
O  O153  1  0.00000099  0.10399807  0.46719804  1  -1.151265  -2e-06  -0.342386  -0.546568  3.2e-05  2.307003  0.0
