# generated using pymatgen
data_CoH20C22(NO4)2
_symmetry_space_group_name_H-M   'P 1'
_cell_length_a   9.13146002
_cell_length_b   9.76724525
_cell_length_c   11.34806957
_cell_angle_alpha   90.00510678
_cell_angle_beta   89.99427685
_cell_angle_gamma   98.47983151
_symmetry_Int_Tables_number   1
_chemical_formula_structural   CoH20C22(NO4)2
_chemical_formula_sum   'Co2 H40 C44 N4 O16'
_cell_volume   1001.06062300
_cell_formula_units_Z   2
loop_
 _symmetry_equiv_pos_site_id
 _symmetry_equiv_pos_as_xyz
  1  'x, y, z'
loop_
 _atom_site_type_symbol
 _atom_site_label
 _atom_site_symmetry_multiplicity
 _atom_site_fract_x
 _atom_site_fract_y
 _atom_site_fract_z
 _atom_site_occupancy
 _atom_site_hle17_ddec_charge
 _atom_site_hle17_ddec_spin_density
 _atom_site_hle17_ddec_sum_bond_order
 _atom_site_hle17_magmom
 _atom_site_hse06_10hf_ddec_charge
 _atom_site_hse06_10hf_ddec_spin_density
 _atom_site_hse06_10hf_ddec_sum_bond_order
 _atom_site_hse06_10hf_magmom
 _atom_site_hse06_ddec_charge
 _atom_site_hse06_ddec_spin_density
 _atom_site_hse06_ddec_sum_bond_order
 _atom_site_hse06_magmom
 _atom_site_pbe_cm5_charge
 _atom_site_pbe_ddec_charge
 _atom_site_pbe_ddec_spin_density
 _atom_site_pbe_ddec_sum_bond_order
 _atom_site_pbe_magmom
Co  Co0  1  0.99999964  0.99999984  0.99999994  1  1.026972  2.832774  1.856823  2.582  1.013727  2.847707  2.23492  2.668  1.090202  2.886651  2.168419  2.741  0.644358  0.949178  2.806119  2.285646  2.592
Co  Co1  1  0.50000139  0.99999804  0.49999844  1  1.027448  2.833161  1.856618  2.582  1.013812  2.847717  2.234809  2.668  1.090295  2.886658  2.168308  2.741  0.644363  0.94926  2.806241  2.285551  2.592
H  H2  1  0.32268563  0.11710750  0.92292118  1  0.300083  -0.000247  0.912486  0.0  0.278048  -0.000187  0.981189  0.0  0.286724  -0.000243  0.974273  0.0  0.310429  0.272012  -0.0001  0.986011  0.0
H  H3  1  0.82268151  0.11710362  0.57708807  1  0.300186  -0.000244  0.912384  0.0  0.278112  -0.000187  0.981155  0.0  0.286796  -0.000243  0.974228  0.0  0.310402  0.272069  -0.0001  0.985988  0.0
H  H4  1  0.67731276  0.88289130  0.07707965  1  0.300091  -0.000245  0.912455  0.0  0.278054  -0.000187  0.981173  0.0  0.286729  -0.000243  0.974258  0.0  0.310428  0.272018  -0.0001  0.985995  0.0
H  H5  1  0.17731782  0.88289415  0.42291188  1  0.300141  -0.000243  0.912445  0.0  0.278071  -0.000187  0.981207  0.0  0.286754  -0.000243  0.97428  0.0  0.310408  0.27203  -0.0001  0.986034  0.0
H  H6  1  0.46079687  0.18619660  0.75266553  1  0.111715  -0.000141  0.98295  0.0  0.117093  1.6e-05  1.051444  0.0  0.120989  -4.5e-05  1.049354  0.0  0.101727  0.114258  8.6e-05  1.053155  0.0
H  H7  1  0.96079801  0.18618519  0.74733086  1  0.111726  -0.000138  0.982986  0.0  0.117095  1.6e-05  1.051466  0.0  0.120984  -4.5e-05  1.049387  0.0  0.101742  0.114201  8.6e-05  1.053245  0.0
H  H8  1  0.53920402  0.81380429  0.24733265  1  0.111691  -0.000144  0.983  0.0  0.117111  1.6e-05  1.051433  0.0  0.121007  -4.5e-05  1.049343  0.0  0.101733  0.114271  8.5e-05  1.053148  0.0
H  H9  1  0.03920555  0.81381158  0.25266732  1  0.111707  -0.000141  0.982995  0.0  0.117084  1.6e-05  1.051477  0.0  0.120976  -4.5e-05  1.049395  0.0  0.101736  0.114234  8.6e-05  1.053211  0.0
H  H10  1  0.64116576  0.36344354  0.65502908  1  0.089355  8e-06  0.967963  0.0  0.101385  -1.8e-05  1.027128  0.0  0.104043  -3e-05  1.025718  0.0  0.099235  0.099341  -2e-06  1.028363  0.0
H  H11  1  0.14116732  0.36344666  0.84496872  1  0.089237  1.4e-05  0.968058  0.0  0.101258  -1.8e-05  1.02723  0.0  0.103912  -3e-05  1.025827  0.0  0.099211  0.099215  -1e-06  1.028472  0.0
H  H12  1  0.35883608  0.63655632  0.34497086  1  0.089336  1.3e-05  0.967976  0.0  0.101359  -1.8e-05  1.027149  0.0  0.104016  -3e-05  1.025743  0.0  0.099238  0.099314  -2e-06  1.028384  0.0
H  H13  1  0.85883609  0.63654908  0.15503034  1  0.089258  1e-05  0.96806  0.0  0.101309  -1.8e-05  1.027185  0.0  0.103962  -3e-05  1.025784  0.0  0.09922  0.099267  -1e-06  1.028425  0.0
H  H14  1  0.78609388  0.55364406  0.77330000  1  0.096566  -0.000143  0.972093  0.0  0.106441  7e-06  1.034209  0.0  0.109611  5e-06  1.032888  0.0  0.098302  0.104346  1.1e-05  1.035051  0.0
H  H15  1  0.28608526  0.55364999  0.72670337  1  0.096583  -0.000134  0.972039  0.0  0.106483  7e-06  1.034133  0.0  0.109656  5e-06  1.032808  0.0  0.098328  0.104386  1.1e-05  1.034975  0.0
H  H16  1  0.21390670  0.44635476  0.22670082  1  0.096513  -0.000138  0.972146  0.0  0.106417  7e-06  1.03423  0.0  0.109587  5e-06  1.032909  0.0  0.098306  0.104321  1.1e-05  1.035074  0.0
H  H17  1  0.71391673  0.44635090  0.27329569  1  0.096585  -0.000136  0.972032  0.0  0.106496  7e-06  1.034111  0.0  0.109668  5e-06  1.032788  0.0  0.098334  0.104398  1.1e-05  1.034953  0.0
H  H18  1  0.75124905  0.55818881  0.99037374  1  0.085221  0.000124  0.969987  0.0  0.095962  0.000115  1.030645  0.0  0.098742  7.3e-05  1.029254  0.0  0.098133  0.093931  0.000149  1.031766  0.0
H  H19  1  0.25125113  0.55819718  0.50963719  1  0.085237  0.000127  0.969981  0.0  0.096002  0.000115  1.030599  0.0  0.098773  7.3e-05  1.029234  0.0  0.098153  0.093966  0.000148  1.031724  0.0
H  H20  1  0.24874918  0.44180895  0.00962708  1  0.085216  0.000127  0.969973  0.0  0.095941  0.000115  1.030648  0.0  0.098722  7.3e-05  1.029257  0.0  0.09815  0.093909  0.000149  1.031778  0.0
H  H21  1  0.74875070  0.44180268  0.49036275  1  0.085242  0.000129  0.969984  0.0  0.096001  0.000115  1.030609  0.0  0.098777  7.3e-05  1.029233  0.0  0.098164  0.093965  0.000148  1.031736  0.0
H  H22  1  0.57859528  0.37497771  0.09003462  1  0.107736  -0.000107  0.975269  0.0  0.117938  -3e-06  1.034282  0.0  0.121166  -1e-06  1.032968  0.0  0.104948  0.115793  -3e-06  1.034847  0.0
H  H23  1  0.07859816  0.37497733  0.40997699  1  0.107773  -0.000103  0.975193  0.0  0.117995  -3e-06  1.034199  0.0  0.121228  -1e-06  1.032881  0.0  0.104922  0.115853  -3e-06  1.034753  0.0
H  H24  1  0.42140296  0.62502005  0.90996444  1  0.107708  -0.000103  0.975295  0.0  0.117941  -3e-06  1.034273  0.0  0.121172  -1e-06  1.032962  0.0  0.104943  0.115801  -3e-06  1.034826  0.0
H  H25  1  0.92140508  0.62502461  0.59002208  1  0.107751  -0.000106  0.975224  0.0  0.117983  -3e-06  1.03422  0.0  0.121216  -1e-06  1.0329  0.0  0.104917  0.115836  -3e-06  1.034792  0.0
H  H26  1  0.08820467  0.21607871  0.12489030  1  0.355546  -0.00065  0.935852  -0.001  0.334072  -0.000106  1.003633  0.0  0.344386  -0.00024  0.993858  0.0  0.294102  0.326817  6e-05  1.010305  0.001
H  H27  1  0.58820557  0.21606112  0.37508808  1  0.355681  -0.00065  0.93559  -0.001  0.334153  -0.000106  1.003442  0.0  0.344459  -0.000241  0.993678  0.0  0.294131  0.326896  5.8e-05  1.010109  0.001
H  H28  1  0.91179482  0.78392010  0.87511053  1  0.355551  -0.000649  0.935839  -0.001  0.334081  -0.000106  1.003614  0.0  0.344395  -0.00024  0.99384  0.0  0.294102  0.326824  6e-05  1.010286  0.001
H  H29  1  0.41179517  0.78393873  0.62491187  1  0.3557  -0.000651  0.93557  -0.001  0.334162  -0.000106  1.003433  0.0  0.34447  -0.00024  0.993667  0.0  0.294144  0.326905  5.8e-05  1.010103  0.001
H  H30  1  0.98178363  0.40402461  0.05526912  1  0.066671  0.001499  0.961772  0.002  0.085182  0.001232  1.031091  0.001  0.084896  0.000886  1.031809  0.001  0.090979  0.085643  0.001395  1.030497  0.002
H  H31  1  0.48178677  0.40401802  0.44472639  1  0.066671  0.001501  0.961871  0.002  0.085139  0.001232  1.031234  0.001  0.08486  0.000886  1.031934  0.001  0.090967  0.085596  0.001394  1.030649  0.002
H  H32  1  0.01821711  0.59597524  0.94473083  1  0.066678  0.001494  0.961802  0.002  0.085191  0.001232  1.031115  0.001  0.084905  0.000886  1.031834  0.001  0.090984  0.085652  0.001395  1.030522  0.002
H  H33  1  0.51821177  0.59598181  0.55527179  1  0.066636  0.001503  0.961872  0.002  0.085124  0.001232  1.031217  0.001  0.084847  0.000886  1.031918  0.001  0.090967  0.085581  0.001394  1.030634  0.002
H  H34  1  0.84557230  0.25737184  0.08753613  1  0.078797  -0.000156  0.960583  0.0  0.091923  -0.000198  1.033164  0.0  0.092534  -0.000249  1.033127  0.0  0.090862  0.091641  4.2e-05  1.033292  0.0
H  H35  1  0.34557242  0.25736236  0.41247230  1  0.078663  -0.000149  0.960566  0.0  0.091882  -0.000198  1.033025  0.0  0.092497  -0.000249  1.032983  0.0  0.090808  0.091599  4.1e-05  1.033153  0.0
H  H36  1  0.15442625  0.74262799  0.91246381  1  0.078796  -0.000163  0.960576  0.0  0.091915  -0.000198  1.033166  0.0  0.092525  -0.000249  1.03313  0.0  0.090862  0.091634  4.2e-05  1.033294  0.0
H  H37  1  0.65442707  0.74263645  0.58752765  1  0.078681  -0.000148  0.960535  0.0  0.0919  -0.000199  1.032994  0.0  0.092514  -0.000249  1.032952  0.0  0.090821  0.091617  4.1e-05  1.033123  0.0
H  H38  1  0.90130877  0.29352794  0.93900433  1  0.088536  -6.6e-05  0.965069  0.0  0.105059  -3.1e-05  1.031479  0.0  0.105032  -6.1e-05  1.033103  0.0  0.098066  0.105068  -1.9e-05  1.030478  0.0
H  H39  1  0.40130064  0.29354701  0.56099715  1  0.088528  -6e-05  0.965144  0.0  0.105088  -3.1e-05  1.031543  0.0  0.105065  -6.1e-05  1.033162  0.0  0.098103  0.105096  -2e-05  1.03054  0.0
H  H40  1  0.09869103  0.70647294  0.06099650  1  0.088531  -7.5e-05  0.965072  0.0  0.105046  -3.1e-05  1.031499  0.0  0.10502  -6.1e-05  1.033122  0.0  0.098056  0.105057  -1.9e-05  1.030497  0.0
H  H41  1  0.59869900  0.70645283  0.43900192  1  0.088534  -5.8e-05  0.96508  0.0  0.105073  -3.1e-05  1.031497  0.0  0.105047  -6.1e-05  1.033119  0.0  0.098101  0.105081  -2e-05  1.030492  0.0
C  C42  1  0.28052784  0.02269552  0.14752217  1  0.240823  -0.004267  3.86112  -0.002  0.220075  0.00144  4.145999  0.003  0.236088  0.001063  4.156588  0.003  0.114972  0.207398  0.001206  4.13941  0.003
C  C43  1  0.78053604  0.02270078  0.35247525  1  0.240668  -0.004253  3.861146  -0.002  0.219971  0.001442  4.145929  0.003  0.235947  0.001064  4.156578  0.003  0.11493  0.207293  0.001206  4.139314  0.003
C  C44  1  0.71947382  0.97731054  0.85248306  1  0.240644  -0.004256  3.861111  -0.002  0.219915  0.00144  4.14596  0.003  0.235921  0.001062  4.156561  0.003  0.114938  0.207239  0.001208  4.139364  0.003
C  C45  1  0.21946266  0.97730009  0.64752293  1  0.240626  -0.004267  3.861097  -0.002  0.219884  0.001441  4.145942  0.003  0.235843  0.001063  4.156622  0.003  0.114909  0.207207  0.001206  4.139331  0.003
C  C46  1  0.36502434  0.03678481  0.25829939  1  0.203455  -0.004958  3.804303  -0.003  0.181603  0.000976  4.090658  0.002  0.197233  0.000536  4.100358  0.002  0.111728  0.17067  0.001329  4.084812  0.002
C  C47  1  0.86502530  0.03678944  0.24168527  1  0.203457  -0.004963  3.804472  -0.003  0.181609  0.000975  4.090799  0.002  0.197241  0.000535  4.100514  0.002  0.111713  0.170683  0.001326  4.08494  0.002
C  C48  1  0.63497372  0.96321915  0.74170144  1  0.203488  -0.004948  3.804283  -0.003  0.181637  0.000977  4.090638  0.002  0.197268  0.000536  4.100342  0.002  0.111725  0.170711  0.001329  4.084781  0.002
C  C49  1  0.13497684  0.96321248  0.75831203  1  0.203447  -0.004951  3.804445  -0.003  0.18157  0.000975  4.090799  0.002  0.197206  0.000535  4.100511  0.002  0.111702  0.170629  0.001326  4.084963  0.002
C  C50  1  0.47985953  0.13940993  0.20032673  1  0.226864  0.002141  3.838152  0.003  0.204755  0.001013  4.122819  0.002  0.21889  0.000699  4.133177  0.001  0.11724  0.193628  0.001261  4.116804  0.002
C  C51  1  0.97986147  0.13941768  0.29965744  1  0.226965  0.002174  3.837934  0.003  0.204885  0.001016  4.122629  0.002  0.219021  0.000702  4.132999  0.001  0.117352  0.193755  0.001267  4.116609  0.002
C  C52  1  0.52013838  0.86059300  0.79967409  1  0.226834  0.002139  3.838336  0.003  0.204702  0.001014  4.123021  0.002  0.218837  0.000699  4.133386  0.001  0.117221  0.193578  0.001263  4.116999  0.002
C  C53  1  0.02014004  0.86058735  0.70034162  1  0.22702  0.002166  3.837862  0.003  0.204955  0.001016  4.122522  0.002  0.219094  0.000702  4.132885  0.001  0.117339  0.193828  0.001267  4.116505  0.002
C  C54  1  0.39498144  0.12022866  0.08973263  1  0.093251  0.002818  3.687764  0.004  0.066204  0.001685  3.96009  0.002  0.073951  0.000964  3.976385  0.001  0.124234  0.062322  0.002641  3.948286  0.004
C  C55  1  0.89498829  0.12023596  0.41027277  1  0.093211  0.00282  3.687815  0.004  0.066163  0.001688  3.960101  0.002  0.07391  0.000965  3.976414  0.001  0.124198  0.062291  0.002644  3.948277  0.004
C  C56  1  0.60501648  0.87977427  0.91027173  1  0.093365  0.002826  3.687729  0.004  0.066332  0.001686  3.960028  0.002  0.074076  0.000964  3.976335  0.001  0.124295  0.062449  0.002642  3.948222  0.004
C  C57  1  0.10501166  0.87976595  0.58972718  1  0.093186  0.002818  3.687819  0.004  0.066148  0.001688  3.96011  0.002  0.073901  0.000968  3.976425  0.001  0.124267  0.062278  0.002643  3.948282  0.004
C  C58  1  0.52648315  0.26669551  0.80499558  1  -0.165899  0.002579  3.729529  0.003  -0.187816  0.000552  3.984506  0.001  -0.193616  0.0003  4.007294  0.0  -0.098401  -0.184333  0.000847  3.969208  0.001
C  C59  1  0.02648759  0.26668941  0.69500755  1  -0.165803  0.002582  3.729431  0.003  -0.187703  0.000552  3.984347  0.001  -0.19349  0.0003  4.007146  0.0  -0.098323  -0.184185  0.000848  3.969078  0.001
C  C60  1  0.47351743  0.73330330  0.19500348  1  -0.1659  0.002581  3.729556  0.003  -0.187849  0.000552  3.984498  0.001  -0.193643  0.0003  4.007292  0.0  -0.098415  -0.184363  0.000847  3.9692  0.001
C  C61  1  0.97351519  0.73330942  0.30499239  1  -0.165732  0.002575  3.729446  0.003  -0.187655  0.000552  3.984373  0.001  -0.193446  0.0003  4.007175  0.0  -0.098344  -0.184171  0.000848  3.969081  0.001
C  C62  1  0.62717178  0.36795465  0.75020372  1  -0.054715  -0.003235  3.776645  -0.002  -0.067148  -0.000294  4.026135  0.0  -0.067981  -0.000254  4.048438  0.0  -0.093875  -0.065688  -0.000372  4.010964  0.0
C  C63  1  0.12716784  0.36795234  0.74979820  1  -0.054469  -0.003263  3.776389  -0.002  -0.066874  -0.000294  4.02588  0.0  -0.067711  -0.000253  4.048193  0.0  -0.093834  -0.065421  -0.000372  4.010708  0.0
C  C64  1  0.37282865  0.63204313  0.24979711  1  -0.05466  -0.003258  3.776587  -0.002  -0.067086  -0.000293  4.026086  0.0  -0.067921  -0.000254  4.048394  0.0  -0.093874  -0.065629  -0.000372  4.010911  0.0
C  C65  1  0.87283493  0.63204649  0.25020262  1  -0.0546  -0.003234  3.776529  -0.002  -0.067025  -0.000294  4.026015  0.0  -0.067861  -0.000254  4.048329  0.0  -0.093871  -0.065573  -0.000372  4.01085  0.0
C  C66  1  0.70938889  0.47294710  0.81632053  1  -0.087548  0.002467  3.762003  0.003  -0.10501  0.00035  4.012782  0.0  -0.108544  0.000208  4.035343  0.0  -0.099074  -0.103329  0.000638  3.997631  0.001
C  C67  1  0.20938312  0.47295129  0.68368019  1  -0.087625  0.002454  3.761931  0.003  -0.105148  0.00035  4.012768  0.0  -0.108678  0.000208  4.035319  0.0  -0.099157  -0.103464  0.000639  3.997617  0.001
C  C68  1  0.29061169  0.52705171  0.18368030  1  -0.087533  0.002465  3.761967  0.003  -0.105021  0.00035  4.012741  0.0  -0.108556  0.000208  4.035301  0.0  -0.099076  -0.103339  0.000638  3.99759  0.001
C  C69  1  0.79061950  0.52704651  0.31631976  1  -0.087617  0.002457  3.762028  0.003  -0.105145  0.00035  4.01286  0.0  -0.108676  0.000209  4.035409  0.0  -0.09916  -0.103462  0.000639  3.997705  0.001
C  C70  1  0.69074116  0.47448923  0.93847868  1  -0.059178  -0.002498  3.790349  -0.002  -0.068221  -0.000131  4.03725  0.0  -0.069504  -0.000153  4.059604  0.0  -0.091522  -0.0681  -9.3e-05  4.022752  0.0
C  C71  1  0.19074239  0.47449808  0.56152982  1  -0.059099  -0.002493  3.790092  -0.002  -0.068121  -0.000131  4.036976  0.0  -0.069405  -0.000153  4.059321  0.0  -0.091413  -0.068001  -9.4e-05  4.02247  0.0
C  C72  1  0.30925582  0.52550749  0.06152127  1  -0.059023  -0.002513  3.790049  -0.002  -0.068045  -0.000131  4.036943  0.0  -0.069326  -0.000153  4.059294  0.0  -0.091484  -0.067929  -9.3e-05  4.022451  0.0
C  C73  1  0.80925944  0.52550178  0.43847100  1  -0.059075  -0.002515  3.790189  -0.002  -0.068097  -0.000131  4.037078  0.0  -0.06938  -0.000155  4.059422  0.0  -0.09142  -0.067979  -9.4e-05  4.022573  0.0
C  C74  1  0.59290780  0.37240366  0.99502752  1  -0.155393  0.001558  3.734774  0.002  -0.172867  0.000205  3.976205  0.0  -0.177733  0.000135  3.997983  0.0  -0.092294  -0.168556  0.000476  3.960982  0.001
C  C75  1  0.09290586  0.37240331  0.50498366  1  -0.155684  0.001549  3.734802  0.002  -0.173225  0.000206  3.976266  0.0  -0.178086  0.000135  3.998058  0.0  -0.092459  -0.16892  0.000477  3.961033  0.001
C  C76  1  0.40708825  0.62759409  0.00497242  1  -0.155551  0.001549  3.734665  0.002  -0.173062  0.000205  3.976099  0.0  -0.177929  0.000135  3.997891  0.0  -0.092377  -0.16875  0.000477  3.960884  0.001
C  C77  1  0.90709503  0.62759758  0.49501628  1  -0.155672  0.001551  3.734803  0.002  -0.173231  0.000205  3.976274  0.0  -0.17809  0.000135  3.998065  0.0  -0.092464  -0.16893  0.000477  3.96104  0.001
C  C78  1  0.51046729  0.26801953  0.92790617  1  0.21657  -0.002029  3.787001  -0.002  0.213349  -7.8e-05  4.03495  0.0  0.218928  -0.000125  4.059347  0.0  0.089902  0.209118  -4e-05  4.017971  0.0
C  C79  1  0.01046518  0.26802206  0.57210012  1  0.21654  -0.002013  3.787255  -0.002  0.213367  -7.9e-05  4.03512  0.0  0.218919  -0.000125  4.059548  0.0  0.089891  0.209165  -4.1e-05  4.018087  0.0
C  C80  1  0.48953204  0.73197824  0.07209378  1  0.216587  -0.002011  3.786942  -0.002  0.213396  -7.8e-05  4.034858  0.0  0.218959  -0.000125  4.059277  0.0  0.089916  0.209158  -4e-05  4.017881  0.0
C  C81  1  0.98953555  0.73197779  0.42790071  1  0.216573  -0.001995  3.787185  -0.002  0.213417  -7.8e-05  4.035041  0.0  0.218968  -0.000124  4.05947  0.0  0.089932  0.209215  -4.1e-05  4.018014  0.0
C  C82  1  0.93951542  0.29679833  0.03031004  1  -0.043488  -0.001719  3.647359  -0.002  -0.138993  -0.000107  3.922249  0.0  -0.131414  -0.000347  3.926348  0.0  -0.160882  -0.144633  0.000381  3.919096  0.0
C  C83  1  0.43952238  0.29680124  0.46969210  1  -0.043397  -0.00176  3.64732  -0.002  -0.138955  -0.000105  3.922215  0.0  -0.131372  -0.000346  3.92629  0.0  -0.160869  -0.1446  0.000379  3.919052  0.0
C  C84  1  0.06048312  0.70320150  0.96968991  1  -0.043504  -0.00166  3.64735  -0.002  -0.138994  -0.000108  3.922241  0.0  -0.131414  -0.000345  3.926339  0.0  -0.160873  -0.144635  0.000382  3.919086  0.0
C  C85  1  0.56047600  0.70319756  0.53030608  1  -0.043386  -0.001775  3.647275  -0.002  -0.138928  -0.000105  3.922162  0.0  -0.131347  -0.000346  3.926244  0.0  -0.160877  -0.144575  0.000379  3.919001  0.0
N  N86  1  0.40501291  0.16426067  0.97883315  1  -0.301387  0.004496  3.430654  0.008  -0.247532  0.001423  3.672706  0.002  -0.266286  0.000755  3.686875  0.001  -0.368771  -0.233953  0.002521  3.662022  0.004
N  N87  1  0.90502168  0.16426017  0.52116956  1  -0.301424  0.004494  3.431113  0.008  -0.247581  0.001424  3.673126  0.002  -0.266311  0.000756  3.687286  0.001  -0.368659  -0.234005  0.002525  3.662416  0.004
N  N88  1  0.59498453  0.83573915  0.02116768  1  -0.301391  0.004494  3.430757  0.008  -0.247559  0.001423  3.6728  0.002  -0.266303  0.000756  3.686973  0.001  -0.368775  -0.233975  0.002521  3.662113  0.004
N  N89  1  0.09497812  0.83574071  0.47882862  1  -0.301364  0.004491  3.431071  0.008  -0.247528  0.001424  3.673076  0.002  -0.26626  0.000756  3.687242  0.001  -0.368684  -0.233956  0.002524  3.662368  0.004
O  O90  1  0.15710070  0.95721170  0.11801434  1  -0.496438  0.028892  2.221388  0.054  -0.458194  0.022476  2.482316  0.038  -0.487925  0.017375  2.476177  0.029  -0.288435  -0.435094  0.027837  2.486663  0.046
O  O91  1  0.65711100  0.95720410  0.38198715  1  -0.496349  0.028901  2.221324  0.054  -0.45816  0.02248  2.48228  0.038  -0.487874  0.017377  2.476153  0.029  -0.288463  -0.435072  0.027842  2.486651  0.046
O  O92  1  0.84289392  0.04279120  0.88199177  1  -0.496372  0.028884  2.221594  0.054  -0.45815  0.022474  2.482529  0.038  -0.487876  0.017372  2.476393  0.029  -0.28848  -0.43504  0.027834  2.486855  0.046
O  O93  1  0.34289114  0.04279783  0.61800662  1  -0.496307  0.028907  2.221177  0.054  -0.458059  0.02248  2.482107  0.038  -0.48777  0.017375  2.475995  0.029  -0.288455  -0.43498  0.027842  2.486498  0.046
O  O94  1  0.34353398  0.98441623  0.35982259  1  -0.490831  0.02852  2.194628  0.051  -0.45302  0.022244  2.451879  0.037  -0.48153  0.017079  2.446738  0.028  -0.27921  -0.430854  0.027781  2.455387  0.045
O  O95  1  0.84352556  0.98442828  0.14016512  1  -0.490864  0.028532  2.195041  0.051  -0.453027  0.02225  2.452215  0.037  -0.481524  0.017085  2.447059  0.028  -0.27923  -0.430887  0.027792  2.455766  0.045
O  O96  1  0.65646864  0.01558157  0.64017912  1  -0.490851  0.028515  2.194821  0.051  -0.453014  0.022243  2.452015  0.037  -0.481542  0.017078  2.446912  0.028  -0.279176  -0.430853  0.027779  2.455531  0.045
O  O97  1  0.15647485  0.01557674  0.85983394  1  -0.490886  0.028529  2.194979  0.051  -0.453015  0.022249  2.452156  0.037  -0.48151  0.017083  2.446995  0.028  -0.27925  -0.430868  0.027791  2.455708  0.045
O  O98  1  0.59617919  0.21376526  0.23374469  1  -0.477879  0.002321  2.094389  0.004  -0.433993  0.000809  2.313834  0.002  -0.454515  0.000445  2.313086  0.001  -0.287231  -0.419957  0.001041  2.315414  0.002
O  O99  1  0.09617437  0.21377061  0.26623111  1  -0.477723  0.002317  2.09433  0.004  -0.433985  0.000812  2.313909  0.002  -0.454512  0.000448  2.313157  0.001  -0.287313  -0.41996  0.001044  2.315494  0.002
O  O100  1  0.40382624  0.78623670  0.76625438  1  -0.477891  0.002323  2.094531  0.004  -0.433994  0.00081  2.313988  0.002  -0.454519  0.000447  2.31324  0.001  -0.287249  -0.41996  0.001042  2.315567  0.002
O  O101  1  0.90382731  0.78622821  0.73376971  1  -0.47775  0.00232  2.0942  0.004  -0.434007  0.000812  2.313754  0.002  -0.454532  0.000447  2.313003  0.001  -0.287302  -0.419977  0.001045  2.315336  0.002
O  O102  1  0.05718326  0.21321884  0.03899489  1  -0.542084  0.026287  2.230158  0.05  -0.493209  0.022747  2.493683  0.04  -0.519299  0.017894  2.482922  0.032  -0.40727  -0.472079  0.027831  2.499699  0.047
O  O103  1  0.55717923  0.21321715  0.46098929  1  -0.542204  0.026282  2.229911  0.05  -0.493269  0.022739  2.493427  0.039  -0.519408  0.017888  2.482788  0.032  -0.407352  -0.472161  0.027821  2.499464  0.047
O  O104  1  0.94281543  0.78678203  0.96100505  1  -0.542074  0.026283  2.230115  0.05  -0.49322  0.022747  2.493659  0.04  -0.519309  0.017893  2.482895  0.032  -0.407284  -0.472098  0.02783  2.499694  0.047
O  O105  1  0.44281916  0.78678165  0.53900977  1  -0.542231  0.026283  2.229936  0.05  -0.49331  0.02274  2.493503  0.039  -0.51943  0.017888  2.482818  0.032  -0.40736  -0.472198  0.027821  2.499539  0.047
