# generated using pymatgen
data_Cu3P2H26C30(N3O5)2
_symmetry_space_group_name_H-M   'P 1'
_cell_length_a   8.05341020
_cell_length_b   9.76830582
_cell_length_c   11.16727961
_cell_angle_alpha   106.39973974
_cell_angle_beta   107.18632798
_cell_angle_gamma   92.15436379
_symmetry_Int_Tables_number   1
_chemical_formula_structural   Cu3P2H26C30(N3O5)2
_chemical_formula_sum   'Cu3 P2 H26 C30 N6 O10'
_cell_volume   798.08703509
_cell_formula_units_Z   1
loop_
 _symmetry_equiv_pos_site_id
 _symmetry_equiv_pos_as_xyz
  1  'x, y, z'
loop_
 _atom_site_type_symbol
 _atom_site_label
 _atom_site_symmetry_multiplicity
 _atom_site_fract_x
 _atom_site_fract_y
 _atom_site_fract_z
 _atom_site_occupancy
 _atom_site_hle17_ddec_charge
 _atom_site_hle17_ddec_spin_density
 _atom_site_hle17_ddec_sum_bond_order
 _atom_site_hle17_magmom
 _atom_site_hse06_10hf_ddec_charge
 _atom_site_hse06_10hf_ddec_spin_density
 _atom_site_hse06_10hf_ddec_sum_bond_order
 _atom_site_hse06_10hf_magmom
 _atom_site_hse06_ddec_charge
 _atom_site_hse06_ddec_spin_density
 _atom_site_hse06_ddec_sum_bond_order
 _atom_site_hse06_magmom
 _atom_site_pbe_cm5_charge
 _atom_site_pbe_ddec_charge
 _atom_site_pbe_ddec_spin_density
 _atom_site_pbe_ddec_sum_bond_order
 _atom_site_pbe_magmom
Cu  Cu0  1  0.49987334  0.00020469  0.50012701  1  0.887447  0.694349  1.76368  0.493  0.873613  0.784002  2.138087  0.612  0.959944  0.854231  2.069519  0.693  0.775428  0.818501  0.725594  2.18779  0.554
Cu  Cu1  1  0.31553862  0.06272864  0.01659457  1  0.864593  0.708149  1.789751  0.504  0.843863  0.796414  2.1733  0.625  0.932047  0.866873  2.106918  0.707  0.73544  0.790419  0.744874  2.21979  0.571
Cu  Cu2  1  0.68429059  0.93751061  0.98371855  1  0.864538  -0.740361  1.788592  -0.5  0.843548  -0.823278  2.172477  -0.622  0.932244  -0.90749  2.106215  -0.706  0.732826  0.788145  -0.753031  2.21993  -0.56
P  P3  1  0.56912965  0.05214624  0.26453382  1  1.350679  0.000734  5.002421  -0.003  1.200513  0.00748  5.528554  0.002  1.255552  0.005357  5.493798  0.001  0.297628  1.162287  0.009203  5.551207  0.002
P  P4  1  0.43028056  0.94758211  0.73566030  1  1.350889  4.4e-05  5.002546  0.0  1.20062  0.000126  5.529097  -0.001  1.255854  0.000234  5.494258  -0.001  0.297655  1.161964  -7e-06  5.551898  -0.001
H  H5  1  0.82578954  0.32170296  0.41543724  1  0.103748  0.000188  0.948548  0.0  0.115407  0.000477  1.007712  0.001  0.117868  0.000321  1.008514  0.0  0.100777  0.113602  0.000608  1.00724  0.001
H  H6  1  0.17410727  0.67777358  0.58479320  1  0.103816  -0.000726  0.949395  -0.001  0.115415  -0.000462  1.008269  -0.001  0.117926  -0.000319  1.009014  0.0  0.100885  0.113452  -0.000547  1.008022  -0.001
H  H7  1  0.83385424  0.56284458  0.37114773  1  0.084903  0.000414  0.932077  0.001  0.101589  4.5e-05  0.98162  0.0  0.103572  4e-06  0.9805  0.0  0.101712  0.099807  0.0001  0.983002  0.0
H  H8  1  0.16667841  0.43657752  0.62902486  1  0.084727  -0.000187  0.932057  0.0  0.101606  1.7e-05  0.981543  0.0  0.103547  4.1e-05  0.980464  0.0  0.102114  0.099797  -2.1e-05  0.982977  0.0
H  H9  1  0.60116796  0.59329133  0.17802684  1  0.132393  0.000386  0.940763  0.0  0.14222  0.000628  0.995038  0.001  0.146166  0.000415  0.993405  0.001  0.108815  0.139667  0.000855  0.995961  0.001
H  H10  1  0.39957222  0.40629567  0.82208264  1  0.130581  -0.001197  0.941174  -0.001  0.140982  -0.00067  0.994969  -0.001  0.144956  -0.000453  0.993261  -0.001  0.1081  0.138297  -0.000887  0.996084  -0.001
H  H11  1  0.30688472  0.77966625  0.05481851  1  0.10574  0.000381  0.953748  0.001  0.116209  0.000399  1.007349  0.001  0.119445  0.000248  1.004707  0.001  0.12319  0.113737  0.000539  1.009439  0.001
H  H12  1  0.69331097  0.22042362  0.94484397  1  0.105907  -0.000521  0.953144  -0.001  0.116627  -0.00047  1.006336  -0.001  0.119879  -0.000313  1.003714  -0.001  0.123129  0.113915  -0.000595  1.00868  -0.001
H  H13  1  0.12949956  0.54245829  0.95263241  1  0.117785  0.000306  0.969104  0.0  0.124654  0.000308  1.034734  0.0  0.128495  0.000214  1.0331  0.0  0.110103  0.121694  0.000457  1.036468  0.001
H  H14  1  0.87055713  0.45769578  0.04708718  1  0.117311  -0.000108  0.969086  0.0  0.123951  -0.000236  1.035014  0.0  0.127809  -0.000161  1.033367  0.0  0.109656  0.120896  -0.000369  1.036887  0.0
H  H15  1  0.76209232  0.73502526  0.69631446  1  0.109097  0.000624  0.966523  0.0  0.119467  0.000565  1.028235  0.0  0.122773  0.000408  1.027091  0.0  0.106293  0.116938  0.00067  1.029532  0.001
H  H16  1  0.23808018  0.26519418  0.30340607  1  0.108877  -0.000224  0.966713  0.0  0.119242  -0.000214  1.028504  0.0  0.122582  -0.000161  1.027293  0.0  0.106146  0.116617  -0.000294  1.029971  0.0
H  H17  1  0.95712786  0.96319375  0.81281857  1  0.095075  0.000636  0.952548  0.001  0.103208  0.000573  1.01623  0.001  0.105642  0.000408  1.013937  0.001  0.121079  0.101856  0.00069  1.017181  0.001
H  H18  1  0.04323619  0.03695512  0.18680344  1  0.094847  -0.000668  0.95309  -0.001  0.10282  -0.000531  1.016944  -0.001  0.105277  -0.000381  1.014612  -0.001  0.120394  0.101402  -0.000631  1.017982  -0.001
H  H19  1  0.43570925  0.29581927  0.50943145  1  0.082594  0.000836  0.940439  0.001  0.091905  0.00079  1.003188  0.001  0.094045  0.00058  1.000525  0.001  0.1201  0.089977  0.00087  1.005801  0.001
H  H20  1  0.56417043  0.70440979  0.49052627  1  0.082502  0.000821  0.939901  0.002  0.091817  0.000791  1.002636  0.001  0.093964  0.000569  0.99996  0.001  0.120033  0.089818  0.000891  1.005327  0.001
H  H21  1  0.59366166  0.54224099  0.62634813  1  0.104152  0.000599  0.968871  0.0  0.115011  0.000555  1.029619  0.0  0.11713  0.000406  1.030386  0.0  0.107832  0.113383  0.000571  1.029515  0.001
H  H22  1  0.40630434  0.45796477  0.37351921  1  0.104827  0.000456  0.968344  0.0  0.115623  0.000473  1.029146  0.0  0.117731  0.000345  1.029911  0.0  0.108028  0.113951  0.000463  1.029081  0.001
H  H23  1  0.02153152  0.34780022  0.82600935  1  0.119896  0.000954  0.969698  0.0  0.131391  0.00102  1.026643  0.001  0.134944  0.00074  1.025483  0.0  0.11483  0.12865  0.001232  1.027799  0.001
H  H24  1  0.97845433  0.65237960  0.17378231  1  0.120099  -0.000195  0.968728  0.0  0.132035  -0.000182  1.025195  0.0  0.135585  -0.000135  1.024021  0.0  0.115014  0.129292  -0.000243  1.026401  0.0
H  H25  1  0.84165961  0.11264835  0.70549513  1  0.097361  0.000957  0.931815  0.002  0.10623  0.000879  0.991882  0.001  0.108515  0.000633  0.989191  0.001  0.124985  0.10477  0.001045  0.993394  0.002
H  H26  1  0.15814933  0.88754296  0.29448447  1  0.097023  0.000768  0.932578  0.002  0.10598  0.000635  0.992632  0.001  0.108242  0.000462  0.989932  0.001  0.124841  0.104538  0.000741  0.994176  0.002
H  H27  1  0.24240315  0.25613118  0.93378775  1  0.401369  -0.000496  0.925325  -0.002  0.368471  6.6e-05  0.99352  -0.001  0.382065  -0.000112  0.974708  -0.001  0.277078  0.359007  0.000246  1.006605  -0.001
H  H28  1  0.75750305  0.74425241  0.06664818  1  0.401155  0.0004  0.925422  0.002  0.36828  -0.000101  0.993494  0.001  0.381884  7.3e-05  0.974665  0.001  0.277013  0.358769  -0.000268  1.00666  0.001
H  H29  1  0.20526214  0.10463563  0.80424109  1  0.422439  2.5e-05  0.876056  -0.001  0.397936  0.000609  0.936024  0.0  0.410215  0.00036  0.918689  0.0  0.285396  0.389258  0.000798  0.948216  0.0
H  H30  1  0.79413471  0.89560956  0.19627113  1  0.422747  9e-06  0.875095  0.001  0.398143  -0.000614  0.935542  0.0  0.410482  -0.000392  0.918121  0.0  0.285276  0.389316  -0.000738  0.947951  0.0
C  C31  1  0.59612302  0.23150418  0.24813237  1  -0.039536  -0.009279  3.779958  -0.01  -0.017004  0.000988  4.036403  0.0  -0.013601  -7e-05  4.059203  -0.001  0.080679  -0.019062  0.001822  4.021241  0.001
C  C32  1  0.40401188  0.76804357  0.75195983  1  -0.039935  0.006452  3.782696  0.008  -0.017402  0.001554  4.03817  0.003  -0.013888  0.001643  4.060774  0.003  0.080404  -0.019517  0.001467  4.023248  0.003
C  C33  1  0.72729584  0.34140340  0.33345121  1  -0.152205  0.020041  3.807428  0.019  -0.183112  0.003485  4.071518  0.004  -0.192411  0.002583  4.097027  0.003  -0.113855  -0.176241  0.004436  4.053297  0.005
C  C34  1  0.27285633  0.65808404  0.66664385  1  -0.155123  -0.002274  3.811187  -0.003  -0.183752  -0.001639  4.072785  -0.002  -0.193059  -0.001401  4.098121  -0.002  -0.114265  -0.176998  -0.001593  4.055077  -0.002
C  C35  1  0.73029966  0.47438355  0.30785368  1  -0.012257  -0.013455  3.802439  -0.013  -0.030126  -0.001455  4.063465  -0.001  -0.024626  -0.001555  4.08204  -0.002  -0.08577  -0.033268  -0.001319  4.049966  -0.001
C  C36  1  0.27012680  0.52513762  0.69229734  1  -0.012168  0.003316  3.804591  0.003  -0.030285  0.001079  4.064735  0.001  -0.024731  0.001099  4.083221  0.001  -0.086874  -0.033539  0.001052  4.051519  0.001
C  C37  1  0.60250556  0.49304691  0.20236972  1  -0.225214  0.0241  3.683065  0.023  -0.246502  0.004614  3.942582  0.005  -0.256837  0.003338  3.959368  0.004  -0.102158  -0.239315  0.005453  3.930255  0.006
C  C38  1  0.39801247  0.50659916  0.79782689  1  -0.224529  -0.002385  3.684436  -0.003  -0.245023  -0.002305  3.94239  -0.003  -0.255326  -0.001863  3.959044  -0.002  -0.101386  -0.237943  -0.002815  3.930476  -0.003
C  C39  1  0.46680483  0.37799396  0.11702600  1  0.532517  -0.000726  3.853112  -0.002  0.503916  0.001981  4.133754  0.002  0.531001  0.000637  4.140302  0.0  0.203105  0.486151  0.003228  4.128279  0.003
C  C40  1  0.53352578  0.62177082  0.88314388  1  0.532227  -0.0013  3.853978  -0.001  0.504415  -0.002325  4.132561  -0.002  0.531526  -0.00103  4.139034  0.0  0.203608  0.486548  -0.003367  4.127337  -0.003
C  C41  1  0.18394863  0.76357967  0.97560437  1  0.146826  -0.005238  3.651004  -0.005  0.117778  -0.000323  3.903346  -0.001  0.127383  -0.001261  3.920457  -0.002  0.049286  0.111393  0.000487  3.892507  0.0
C  C42  1  0.81627113  0.23651933  0.02405582  1  0.146441  0.006596  3.651214  0.007  0.117411  0.000396  3.903355  0.001  0.127096  0.001435  3.920332  0.002  0.049588  0.110918  -0.00037  3.8929  0.0
C  C43  1  0.08185916  0.63061840  0.91607380  1  -0.141758  0.006953  3.679093  0.007  -0.158807  0.003118  3.926478  0.004  -0.165791  0.002733  3.944707  0.003  -0.073983  -0.154521  0.003288  3.91497  0.004
C  C44  1  0.91825503  0.36953071  0.08362108  1  -0.140867  -0.011318  3.678496  -0.011  -0.157917  -0.004187  3.925722  -0.005  -0.164849  -0.004041  3.943813  -0.005  -0.07393  -0.153753  -0.003979  3.914523  -0.005
C  C45  1  0.92801626  0.61273259  0.81011020  1  0.100398  -0.004935  3.742511  -0.004  0.110602  -0.001715  3.973293  -0.002  0.116457  -0.001899  3.991972  -0.002  0.014891  0.106567  -0.001591  3.960631  -0.001
C  C46  1  0.07207391  0.38744031  0.18961593  1  0.100145  0.00841  3.74321  0.009  0.110825  0.002431  3.973275  0.003  0.116769  0.002719  3.991851  0.003  0.01473  0.106588  0.002191  3.960882  0.002
C  C47  1  0.88133202  0.73634679  0.77458221  1  -0.153675  0.006562  3.697853  0.007  -0.174981  0.003087  3.953009  0.003  -0.182686  0.002801  3.972002  0.003  -0.080595  -0.170412  0.003327  3.94139  0.004
C  C48  1  0.11884769  0.26382999  0.22511150  1  -0.153286  -0.01096  3.698017  -0.011  -0.1747  -0.004068  3.952872  -0.004  -0.182379  -0.003994  3.971766  -0.004  -0.080918  -0.170276  -0.003868  3.941636  -0.004
C  C49  1  0.98983117  0.86653671  0.83949923  1  0.122553  -0.003972  3.702039  -0.004  0.088205  0.000323  3.972966  -0.001  0.096159  -0.000687  3.991617  -0.002  0.04489  0.082229  0.001245  3.961923  0.001
C  C50  1  0.01046641  0.13360066  0.16012649  1  0.121892  0.006144  3.702537  0.007  0.087779  -4e-05  3.973365  0.001  0.095756  0.001027  3.991928  0.002  0.045005  0.081669  -0.000991  3.962568  0.0
C  C51  1  0.56620914  0.31372817  0.58089740  1  0.128252  -0.006832  3.716085  -0.007  0.09974  -0.000888  3.971012  -0.002  0.108749  -0.001956  3.989617  -0.003  0.049801  0.093736  -8e-05  3.959279  -0.001
C  C52  1  0.43365866  0.68648728  0.41906438  1  0.128908  -0.008397  3.71568  -0.009  0.100353  -0.001213  3.970854  -0.002  0.109399  -0.002372  3.989417  -0.003  0.049929  0.094311  -0.000208  3.959297  -0.001
C  C53  1  0.65717343  0.45103161  0.64626180  1  -0.151402  0.008493  3.715231  0.009  -0.166312  0.003489  3.956248  0.004  -0.173562  0.003234  3.977455  0.004  -0.077768  -0.161728  0.003575  3.942313  0.004
C  C54  1  0.34276654  0.54917201  0.35362779  1  -0.153058  0.011326  3.716136  0.012  -0.167815  0.004018  3.957193  0.005  -0.175039  0.003979  3.978388  0.005  -0.078544  -0.163288  0.00411  3.943371  0.005
C  C55  1  0.82495764  0.46957003  0.73798643  1  0.100441  -0.006946  3.738276  -0.006  0.110349  -0.002225  3.96828  -0.002  0.115233  -0.002544  3.987176  -0.002  0.017424  0.107134  -0.001876  3.955287  -0.002
C  C56  1  0.17500841  0.53061542  0.26184229  1  0.100607  -0.010086  3.738714  -0.01  0.11058  -0.003027  3.968509  -0.003  0.115419  -0.003366  3.987402  -0.004  0.017901  0.107398  -0.002596  3.955593  -0.003
C  C57  1  0.89221118  0.34409787  0.75776979  1  -0.148384  0.00911  3.681469  0.009  -0.165638  0.004057  3.924137  0.005  -0.17265  0.003624  3.942918  0.004  -0.074557  -0.16122  0.004647  3.912027  0.005
C  C58  1  0.10772886  0.65608669  0.24208772  1  -0.148735  0.011401  3.679452  0.012  -0.166393  0.003928  3.922151  0.005  -0.173373  0.003886  3.940891  0.005  -0.07541  -0.162032  0.003367  3.910135  0.004
C  C59  1  0.79302142  0.21061289  0.68991024  1  0.147244  -0.006806  3.668198  -0.007  0.118479  -0.000764  3.920264  -0.002  0.128112  -0.001867  3.937314  -0.003  0.055768  0.111565  0.000268  3.909653  0.0
C  C60  1  0.20682979  0.78958599  0.31006192  1  0.147379  -0.008616  3.667595  -0.009  0.118533  -0.001265  3.919883  -0.002  0.128208  -0.002392  3.936912  -0.003  0.056021  0.111619  -0.000151  3.909302  -0.001
N  N61  1  0.47062879  0.24757901  0.14208503  1  -0.452065  0.088085  3.256118  0.109  -0.413603  0.055803  3.548176  0.073  -0.452208  0.045021  3.571537  0.063  -0.363162  -0.389845  0.061752  3.533927  0.078
N  N62  1  0.52958226  0.75208250  0.85790158  1  -0.451967  -0.093214  3.256829  -0.109  -0.413709  -0.057488  3.548424  -0.073  -0.45228  -0.0468  3.571811  -0.062  -0.363169  -0.390159  -0.061858  3.534456  -0.076
N  N63  1  0.14181510  0.88013629  0.93678404  1  -0.302474  0.067618  3.296064  0.084  -0.253044  0.04914  3.596124  0.065  -0.283269  0.040811  3.618271  0.057  -0.344136  -0.235093  0.053689  3.584098  0.069
N  N64  1  0.85847135  0.11994865  0.06283804  1  -0.302921  -0.073839  3.295353  -0.087  -0.253726  -0.051724  3.595831  -0.066  -0.283816  -0.043876  3.617821  -0.059  -0.344618  -0.236032  -0.054898  3.584247  -0.068
N  N65  1  0.63200780  0.19526599  0.60223466  1  -0.292596  0.073102  3.336538  0.091  -0.24137  0.053766  3.625556  0.072  -0.269882  0.045701  3.644922  0.064  -0.344878  -0.224394  0.0574  3.615016  0.074
N  N66  1  0.36781578  0.80493867  0.39777460  1  -0.291704  0.075483  3.334524  0.094  -0.240744  0.054455  3.62369  0.073  -0.269259  0.046513  3.643141  0.065  -0.344653  -0.223912  0.058028  3.613193  0.074
O  O67  1  0.74027498  0.00131855  0.32436436  1  -0.807034  0.019466  1.828891  0.025  -0.753327  0.008144  2.05786  0.012  -0.782568  0.004094  2.039689  0.007  -0.391424  -0.73075  0.012856  2.068903  0.018
O  O68  1  0.25881024  0.99811475  0.67616271  1  -0.806872  -0.018668  1.830381  -0.022  -0.753307  -0.009554  2.05956  -0.012  -0.782647  -0.006124  2.041493  -0.008  -0.390904  -0.730686  -0.013122  2.070575  -0.016
O  O69  1  0.43488812  0.05947230  0.34101981  1  -0.809929  0.084639  2.027403  0.11  -0.767834  0.056387  2.336478  0.079  -0.81054  0.044356  2.318479  0.066  -0.39143  -0.738561  0.06301  2.348884  0.085
O  O70  1  0.56413096  0.94047065  0.65888978  1  -0.809549  0.084386  2.028402  0.109  -0.767182  0.056536  2.337293  0.079  -0.81012  0.044883  2.319333  0.066  -0.390891  -0.737173  0.062531  2.349336  0.084
O  O71  1  0.48071994  0.96298563  0.11700852  1  -0.8051  0.102071  2.134031  0.132  -0.762109  0.06619  2.44757  0.092  -0.807312  0.0514  2.429443  0.075  -0.385346  -0.731548  0.074989  2.460022  0.101
O  O72  1  0.51891700  0.03676790  0.88316605  1  -0.804349  -0.094271  2.134757  -0.115  -0.761702  -0.060921  2.448604  -0.082  -0.807416  -0.049148  2.430872  -0.068  -0.384919  -0.730282  -0.065636  2.460654  -0.085
O  O73  1  0.34342025  0.39414232  0.02061837  1  -0.604329  0.008299  1.988074  0.011  -0.558318  0.000169  2.212857  0.0  -0.584884  -0.00056  2.206445  -0.001  -0.326773  -0.539017  0.001101  2.216431  0.002
O  O74  1  0.65700928  0.60588727  0.97966267  1  -0.607268  -0.002185  1.987959  -0.003  -0.559355  -0.000392  2.211719  -0.001  -0.585831  0.000232  2.205132  0.0  -0.327704  -0.540185  -0.001071  2.215531  -0.001
O  O75  1  0.17421635  0.15165565  0.88656651  1  -0.812758  0.071354  1.955989  0.091  -0.771326  0.053711  2.176692  0.074  -0.808529  0.042881  2.143624  0.063  -0.580637  -0.745721  0.060163  2.199373  0.08
O  O76  1  0.82524920  0.84883251  0.11389540  1  -0.811901  -0.075058  1.955916  -0.091  -0.770919  -0.055425  2.17787  -0.074  -0.808272  -0.044832  2.144708  -0.062  -0.580172  -0.745079  -0.060915  2.200891  -0.078
