# generated using pymatgen
data_Zn3H28C42(NO7)2
_symmetry_space_group_name_H-M   'P 1'
_cell_length_a   10.17218625
_cell_length_b   10.58459997
_cell_length_c   10.60140190
_cell_angle_alpha   95.46687385
_cell_angle_beta   111.71139906
_cell_angle_gamma   111.05967870
_symmetry_Int_Tables_number   1
_chemical_formula_structural   Zn3H28C42(NO7)2
_chemical_formula_sum   'Zn3 H28 C42 N2 O14'
_cell_volume   954.73572790
_cell_formula_units_Z   1
loop_
 _symmetry_equiv_pos_site_id
 _symmetry_equiv_pos_as_xyz
  1  'x, y, z'
loop_
 _atom_site_type_symbol
 _atom_site_label
 _atom_site_symmetry_multiplicity
 _atom_site_fract_x
 _atom_site_fract_y
 _atom_site_fract_z
 _atom_site_occupancy
 _atom_site_hle17_bader_spin_density
 _atom_site_hle17_ddec_charge
 _atom_site_hle17_ddec_spin_density
 _atom_site_hle17_ddec_sum_bond_order
 _atom_site_hle17_magmom
 _atom_site_hse06_10hf_bader_spin_density
 _atom_site_hse06_10hf_ddec_charge
 _atom_site_hse06_10hf_ddec_spin_density
 _atom_site_hse06_10hf_ddec_sum_bond_order
 _atom_site_hse06_10hf_magmom
 _atom_site_hse06_bader_spin_density
 _atom_site_hse06_ddec_charge
 _atom_site_hse06_ddec_spin_density
 _atom_site_hse06_ddec_sum_bond_order
 _atom_site_hse06_magmom
 _atom_site_pbe_bader_spin_density
 _atom_site_pbe_cm5_charge
 _atom_site_pbe_ddec_charge
 _atom_site_pbe_ddec_spin_density
 _atom_site_pbe_ddec_sum_bond_order
 _atom_site_pbe_magmom
Zn  Zn0  1  0.00000079  0.50000055  0.00000114  1  0  1.281224  0  1.678271  0  0  1.12649  0  2.141797  0  0  1.175002  0  2.074924  0  0  0.716526  1.092256  0  2.189644  0
Zn  Zn1  1  0.60708652  0.24979931  0.93246567  1  0  1.07266  0  1.832923  0  0  0.893945  0  2.311463  0  0  0.943047  0  2.251389  0  0  0.698817  0.859801  0  2.352663  0
Zn  Zn2  1  0.39291411  0.75020410  0.06753932  1  0  1.072689  0  1.832976  0  0  0.893961  0  2.311512  0  0  0.943066  0  2.251437  0  0  0.698815  0.859807  0  2.352726  0
H  H3  1  0.70973021  0.87234498  0.87081813  1  0  0.106212  0  0.9294  0  0  0.117814  0  0.984729  0  0  0.121335  0  0.982834  0  0  0.107554  0.115235  0  0.986496  0
H  H4  1  0.29026327  0.12765214  0.12917895  1  0  0.106285  0  0.929368  0  0  0.117886  0  0.984692  0  0  0.121406  0  0.9828  0  0  0.107598  0.115318  0  0.986451  0
H  H5  1  0.36662303  0.39378928  0.64310534  1  0  0.094829  0  0.958871  0  0  0.102132  0  1.024137  0  0  0.105437  0  1.022501  0  0  0.099949  0.099595  0  1.025792  0
H  H6  1  0.63337940  0.60621096  0.35689344  1  0  0.094894  0  0.958849  0  0  0.102176  0  1.024129  0  0  0.105481  0  1.022491  0  0  0.099967  0.099639  0  1.025783  0
H  H7  1  0.35875236  0.94913555  0.81053300  1  0  0.096661  0  0.923528  0  0  0.106682  0  0.983701  0  0  0.10947  0  0.980788  0  0  0.125347  0.104725  0  0.98575  0
H  H8  1  0.64124790  0.05086260  0.18947045  1  0  0.096618  0  0.923539  0  0  0.106663  0  0.983692  0  0  0.109449  0  0.980779  0  0  0.125339  0.104706  0  0.98574  0
H  H9  1  0.58297758  0.81239737  0.45581293  1  0  0.096393  0  1.000838  0  0  0.10345  0  1.071708  0  0  0.105906  0  1.07149  0  0  0.096708  0.101903  0  1.071564  0
H  H10  1  0.41702373  0.18760288  0.54418827  1  0  0.096396  0  1.000826  0  0  0.103447  0  1.071708  0  0  0.105905  0  1.071487  0  0  0.096724  0.101899  0  1.07157  0
H  H11  1  0.69647469  0.23525766  0.65792875  1  0  0.113352  0  0.958145  0  0  0.124301  0  1.018363  0  0  0.127109  0  1.017114  0  0  0.106327  0.122296  0  1.019551  0
H  H12  1  0.30352715  0.76474364  0.34207179  1  0  0.113366  0  0.95812  0  0  0.124311  0  1.018345  0  0  0.127118  0  1.017098  0  0  0.106328  0.122305  0  1.019532  0
H  H13  1  0.09759449  0.66689466  0.37146408  1  0  0.105784  0  0.970306  0  0  0.109546  0  1.042891  0  0  0.11376  0  1.039295  0  0  0.10416  0.106542  0  1.04543  0
H  H14  1  0.90241098  0.33310768  0.62853978  1  0  0.105806  0  0.970273  0  0  0.109565  0  1.042867  0  0  0.113778  0  1.039271  0  0  0.104172  0.106561  0  1.045408  0
H  H15  1  0.78786477  0.57973831  0.59119589  1  0  0.100457  0  0.956216  0  0  0.108216  0  1.020748  0  0  0.111304  0  1.019804  0  0  0.101384  0.105668  0  1.02241  0
H  H16  1  0.21213815  0.42026299  0.40880316  1  0  0.100447  0  0.956241  0  0  0.108203  0  1.020775  0  0  0.111291  0  1.01983  0  0  0.101386  0.105655  0  1.022438  0
H  H17  1  0.75257637  0.28327694  0.36781581  1  0  0.102552  0  0.948651  0  0  0.112508  0  1.008293  0  0  0.11598  0  1.006416  0  0  0.104986  0.11006  0  1.009741  0
H  H18  1  0.24742912  0.71672541  0.63218711  1  0  0.102549  0  0.948718  0  0  0.112508  0  1.008352  0  0  0.115977  0  1.006477  0  0  0.104987  0.110059  0  1.009798  0
H  H19  1  0.06854521  0.83282784  0.67148991  1  0  0.113484  0  0.945582  0  0  0.125496  0  1.001928  0  0  0.127887  0  1.002728  0  0  0.110674  0.123885  0  1.001581  0
H  H20  1  0.93145725  0.16717030  0.32850964  1  0  0.113531  0  0.945566  0  0  0.125547  0  1.001899  0  0  0.127939  0  1.002698  0  0  0.11069  0.123938  0  1.001552  0
H  H21  1  0.83934696  0.92080576  0.50478499  1  0  0.05941  0  0.93673  0  0  0.072543  0  1.002969  0  0  0.072337  0  1.003967  0  0  0.102187  0.073212  0  1.002402  0
H  H22  1  0.16065025  0.07919030  0.49521337  1  0  0.059394  0  0.936774  0  0  0.072549  0  1.002996  0  0  0.072344  0  1.003989  0  0  0.102191  0.07322  0  1.002427  0
H  H23  1  0.81584719  0.87412344  0.65473910  1  0  0.065926  0  0.931553  0  0  0.078947  0  0.998201  0  0  0.078785  0  0.998713  0  0  0.105933  0.07895  0  0.998561  0
H  H24  1  0.18415311  0.12587472  0.34526248  1  0  0.065948  0  0.931553  0  0  0.078975  0  0.998205  0  0  0.078814  0  0.998716  0  0  0.105952  0.078981  0  0.998566  0
H  H25  1  0.35880588  0.34071549  0.88834533  1  0  0.090224  0  0.913852  0  0  0.103491  0  0.9662  0  0  0.105878  0  0.964051  0  0  0.12495  0.101716  0  0.967727  0
H  H26  1  0.64119078  0.65928161  0.11165292  1  0  0.090213  0  0.913868  0  0  0.103485  0  0.966211  0  0  0.105872  0  0.964062  0  0  0.124947  0.101709  0  0.967738  0
H  H27  1  0.12372610  0.26096862  0.07438510  1  0  0.109568  0  0.968681  0  0  0.118191  0  1.02956  0  0  0.121237  0  1.028316  0  0  0.104116  0.115888  0  1.030617  0
H  H28  1  0.87626843  0.73903059  0.92561065  1  0  0.109528  0  0.968706  0  0  0.11817  0  1.029565  0  0  0.121211  0  1.028326  0  0  0.104099  0.115883  0  1.030602  0
H  H29  1  0.06964557  0.24138932  0.75809923  1  0  0.132801  0  0.965439  0  0  0.135511  0  1.03492  0  0  0.139303  0  1.033315  0  0  0.113418  0.132877  0  1.03605  0
H  H30  1  0.93035220  0.75860569  0.24189925  1  0  0.132757  0  0.965481  0  0  0.135466  0  1.03496  0  0  0.139257  0  1.033357  0  0  0.1134  0.132837  0  1.036083  0
C  C31  1  0.58697374  0.48586838  0.63181333  1  0  -0.058455  0  3.726935  0  0  -0.034767  0  3.954006  0  0  -0.041843  0  3.976951  0  0  -0.014845  -0.030127  0  3.93838  0
C  C32  1  0.41302909  0.51413502  0.36818776  1  0  -0.058406  0  3.727095  0  0  -0.034681  0  3.954095  0  0  -0.041755  0  3.977036  0  0  -0.014812  -0.030047  0  3.938466  0
C  C33  1  0.81072921  0.15344509  0.94000741  1  0  0.668353  0  3.878275  0  0  0.615397  0  4.167866  0  0  0.650904  0  4.159247  0  0  0.214237  0.591241  0  4.172902  0
C  C34  1  0.18926686  0.84655517  0.05998996  1  0  0.668386  0  3.878123  0  0  0.615428  0  4.167795  0  0  0.650935  0  4.159179  0  0  0.214255  0.591271  0  4.172828  0
C  C35  1  0.90803357  0.07392672  0.96894749  1  0  -0.053108  0  3.751803  0  0  -0.030201  0  3.984092  0  0  -0.036657  0  4.00557  0  0  -0.012924  -0.026163  0  3.970038  0
C  C36  1  0.09196144  0.92607355  0.03104949  1  0  -0.053019  0  3.751646  0  0  -0.030308  0  3.984251  0  0  -0.036769  0  4.005731  0  0  -0.012917  -0.02627  0  3.970204  0
C  C37  1  0.83689578  0.92689525  0.92680474  1  0  -0.071739  0  3.728928  0  0  -0.097336  0  3.981885  0  0  -0.097876  0  4.00167  0  0  -0.08347  -0.097503  0  3.969888  0
C  C38  1  0.16309823  0.07310501  0.07318903  1  0  -0.071824  0  3.728937  0  0  -0.097375  0  3.981979  0  0  -0.097913  0  4.001764  0  0  -0.08351  -0.097553  0  3.969979  0
C  C39  1  0.42429624  0.44026607  0.57965189  1  0  -0.071893  0  3.736383  0  0  -0.091963  0  3.981904  0  0  -0.092612  0  4.001536  0  0  -0.085349  -0.091299  0  3.968632  0
C  C40  1  0.57570613  0.55973628  0.42034705  1  0  -0.072017  0  3.736513  0  0  -0.092083  0  3.982028  0  0  -0.092731  0  4.001656  0  0  -0.085392  -0.091418  0  3.968756  0
C  C41  1  0.28960239  0.00950225  0.79447923  1  0  0.149849  0  3.682766  0  0  0.112402  0  3.943054  0  0  0.120591  0  3.960674  0  0  0.055027  0.106675  0  3.931314  0
C  C42  1  0.71039794  0.99049590  0.20552047  1  0  0.149927  0  3.682791  0  0  0.112459  0  3.943077  0  0  0.120651  0  3.960696  0  0  0.055061  0.106733  0  3.931338  0
C  C43  1  0.54826067  0.89521033  0.47605761  1  0  -0.18914  0  3.798739  0  0  -0.206954  0  4.049462  0  0  -0.210479  0  4.069996  0  0  -0.114032  -0.204374  0  4.035007  0
C  C44  1  0.45174061  0.10478993  0.52394546  1  0  -0.189138  0  3.798713  0  0  -0.206975  0  4.049423  0  0  -0.210497  0  4.069956  0  0  -0.114133  -0.204396  0  4.034972  0
C  C45  1  0.65806103  0.02874798  0.56358943  1  0  0.24846  0  3.82331  0  0  0.237135  0  4.082808  0  0  0.246253  0  4.099836  0  0  0.06894  0.231059  0  4.070523  0
C  C46  1  0.34194026  0.97125228  0.43641270  1  0  0.24837  0  3.823465  0  0  0.237128  0  4.082877  0  0  0.246242  0  4.099912  0  0  0.068965  0.231052  0  4.070591  0
C  C47  1  0.04484619  0.02856372  0.70039260  1  0  0.125555  0  3.719992  0  0  0.139868  0  3.957819  0  0  0.144849  0  3.978729  0  0  0.015259  0.136544  0  3.945092  0
C  C48  1  0.95515475  0.97143338  0.29960440  1  0  0.125597  0  3.719829  0  0  0.139925  0  3.957653  0  0  0.144905  0  3.978565  0  0  0.015322  0.136602  0  3.944929  0
C  C49  1  0.60949355  0.13274653  0.58746776  1  0  -0.151651  0  3.759957  0  0  -0.172926  0  4.013575  0  0  -0.175959  0  4.032987  0  0  -0.105953  -0.170607  0  4.00002  0
C  C50  1  0.39050929  0.86725477  0.41253598  1  0  -0.15169  0  3.760178  0  0  -0.17298  0  4.013761  0  0  -0.176014  0  4.033176  0  0  -0.106016  -0.170661  0  4.000203  0
C  C51  1  0.05561661  0.59489542  0.42891345  1  0  -0.074458  0  3.733912  0  0  -0.099947  0  3.989727  0  0  -0.10053  0  4.009321  0  0  -0.084948  -0.099401  0  3.976929  0
C  C52  1  0.94438881  0.40510903  0.57109057  1  0  -0.074495  0  3.733885  0  0  -0.1  0  3.989703  0  0  -0.100591  0  4.009316  0  0  -0.084973  -0.099456  0  3.976909  0
C  C53  1  0.66200610  0.54616000  0.55095487  1  0  -0.075838  0  3.736669  0  0  -0.098062  0  3.984739  0  0  -0.099103  0  4.005535  0  0  -0.085778  -0.097402  0  3.971577  0
C  C54  1  0.33799731  0.45384235  0.44904539  1  0  -0.075902  0  3.736791  0  0  -0.098137  0  3.98487  0  0  -0.099176  0  4.005663  0  0  -0.085833  -0.097476  0  3.971709  0
C  C55  1  0.86150830  0.37749021  0.42629232  1  0  -0.077791  0  3.743721  0  0  -0.100242  0  3.993271  0  0  -0.101144  0  4.013542  0  0  -0.085343  -0.099656  0  3.979845  0
C  C56  1  0.13849766  0.62251319  0.57371275  1  0  -0.077819  0  3.743819  0  0  -0.100294  0  3.993378  0  0  -0.101195  0  4.013649  0  0  -0.085356  -0.099707  0  3.979949  0
C  C57  1  0.12793448  0.94598415  0.71748764  1  0  -0.166486  0  3.69711  0  0  -0.184205  0  3.945991  0  0  -0.192996  0  3.968353  0  0  -0.081178  -0.179463  0  3.932455  0
C  C58  1  0.87206535  0.05401296  0.28251179  1  0  -0.166585  0  3.697093  0  0  -0.184313  0  3.945989  0  0  -0.193103  0  3.968348  0  0  -0.081214  -0.179567  0  3.932448  0
C  C59  1  0.87038926  0.96301392  0.61654409  1  0  0.048605  0  3.662118  0  0  -0.014498  0  3.920026  0  0  -0.006973  0  3.92409  0  0  -0.055576  -0.020169  0  3.917856  0
C  C60  1  0.12961109  0.03698423  0.38345468  1  0  0.048561  0  3.662225  0  0  -0.014577  0  3.920194  0  0  -0.007054  0  3.92426  0  0  -0.055623  -0.020254  0  3.918034  0
C  C61  1  0.91710734  0.47217836  0.35408685  1  0  -0.063841  0  3.750538  0  0  -0.040431  0  3.979706  0  0  -0.047635  0  4.002409  0  0  -0.016605  -0.035662  0  3.964785  0
C  C62  1  0.08289757  0.52782504  0.64591690  1  0  -0.063885  0  3.75051  0  0  -0.040439  0  3.979642  0  0  -0.047646  0  4.002347  0  0  -0.016619  -0.035667  0  3.964722  0
C  C63  1  0.28977691  0.22856185  0.83852163  1  0  0.142126  0  3.701301  0  0  0.110053  0  3.953903  0  0  0.117435  0  3.971987  0  0  0.053507  0.105495  0  3.940882  0
C  C64  1  0.71022187  0.77143525  0.16147741  1  0  0.142168  0  3.701322  0  0  0.110083  0  3.953918  0  0  0.117465  0  3.972003  0  0  0.053517  0.105527  0  3.940893  0
C  C65  1  0.07131708  0.14676979  0.04226899  1  0  -0.076002  0  3.717394  0  0  -0.097185  0  3.964292  0  0  -0.098438  0  3.984939  0  0  -0.084091  -0.096045  0  3.950936  0
C  C66  1  0.92867640  0.85322942  0.95772544  1  0  -0.075949  0  3.717291  0  0  -0.097092  0  3.964267  0  0  -0.09834  0  3.98492  0  0  -0.084061  -0.095965  0  3.950894  0
C  C67  1  0.67717602  0.46130961  0.76862926  1  0  0.67181  0  3.872607  0  0  0.621111  0  4.163586  0  0  0.656186  0  4.154989  0  0  0.22111  0.59714  0  4.168798  0
C  C68  1  0.32282590  0.53868958  0.23136923  1  0  0.671702  0  3.872652  0  0  0.62099  0  4.163625  0  0  0.656063  0  4.155034  0  0  0.221083  0.597029  0  4.168819  0
C  C69  1  0.83409255  0.44014955  0.19708757  1  0  0.668485  0  3.880777  0  0  0.619487  0  4.166442  0  0  0.65463  0  4.158138  0  0  0.215573  0.59511  0  4.172207  0
C  C70  1  0.16590699  0.55985595  0.80291626  1  0  0.668594  0  3.880595  0  0  0.619569  0  4.166285  0  0  0.654714  0  4.157983  0  0  0.215587  0.595185  0  4.17206  0
C  C71  1  0.12845179  0.17283241  0.76377798  1  0  -0.164236  0  3.698247  0  0  -0.18581  0  3.950956  0  0  -0.193916  0  3.97216  0  0  -0.084132  -0.180678  0  3.937029  0
C  C72  1  0.87154600  0.82716260  0.23621957  1  0  -0.164163  0  3.698162  0  0  -0.185728  0  3.950863  0  0  -0.193835  0  3.972069  0  0  -0.08411  -0.180601  0  3.936931  0
N  N73  1  0.36957279  0.14901854  0.85316054  1  0  -0.342559  0  3.306403  0  0  -0.261168  0  3.589654  0  0  -0.281089  0  3.603501  0  0  -0.333996  -0.247233  0  3.579632  0
N  N74  1  0.63042700  0.85097857  0.14684076  1  0  -0.342639  0  3.306495  0  0  -0.261241  0  3.589753  0  0  -0.281166  0  3.603601  0  0  -0.334034  -0.247307  0  3.579729  0
O  O75  1  0.59165610  0.38592813  0.82075923  1  0  -0.667732  0  2.136392  0  0  -0.598249  0  2.422737  0  0  -0.626452  0  2.405325  0  0  -0.328496  -0.578587  0  2.434107  0
O  O76  1  0.40834484  0.61406897  0.17923778  1  0  -0.667671  0  2.136395  0  0  -0.598167  0  2.422716  0  0  -0.626367  0  2.40531  0  0  -0.328469  -0.57851  0  2.434085  0
O  O77  1  0.66487821  0.08789192  0.90987865  1  0  -0.631972  0  1.994229  0  0  -0.564432  0  2.25278  0  0  -0.593572  0  2.240404  0  0  -0.318062  -0.544311  0  2.260363  0
O  O78  1  0.33511934  0.91211149  0.09012048  1  0  -0.632009  0  1.994121  0  0  -0.564444  0  2.25268  0  0  -0.593585  0  2.240303  0  0  -0.318104  -0.544309  0  2.260233  0
O  O79  1  0.82485360  0.51222291  0.81863424  1  0  -0.632236  0  2.054963  0  0  -0.573153  0  2.316799  0  0  -0.599854  0  2.304075  0  0  -0.299733  -0.553921  0  2.325294  0
O  O80  1  0.17514871  0.48777944  0.18136751  1  0  -0.632198  0  2.054955  0  0  -0.573102  0  2.316767  0  0  -0.599813  0  2.304066  0  0  -0.29973  -0.553873  0  2.325251  0
O  O81  1  0.87143017  0.28339210  0.94813193  1  0  -0.677728  0  2.125235  0  0  -0.608476  0  2.402688  0  0  -0.636709  0  2.385883  0  0  -0.314866  -0.588235  0  2.413724  0
O  O82  1  0.12857059  0.71660920  0.05186915  1  0  -0.677759  0  2.125205  0  0  -0.608475  0  2.402664  0  0  -0.636697  0  2.385837  0  0  -0.31487  -0.588238  0  2.413707  0
O  O83  1  0.81638895  0.06750448  0.63065832  1  0  -0.286873  0  2.369352  0  0  -0.210978  0  2.603383  0  0  -0.229039  0  2.60793  0  0  -0.178353  -0.197307  0  2.59997  0
O  O84  1  0.18361238  0.93249577  0.36934194  1  0  -0.286775  0  2.369396  0  0  -0.210927  0  2.60344  0  0  -0.228985  0  2.60799  0  0  -0.178322  -0.197255  0  2.60003  0
O  O85  1  0.70649474  0.32642400  0.13731382  1  0  -0.640849  0  2.04743  0  0  -0.569019  0  2.312834  0  0  -0.597373  0  2.296107  0  0  -0.326224  -0.549874  0  2.32444  0
O  O86  1  0.29350159  0.67358361  0.86268806  1  0  -0.64092  0  2.047423  0  0  -0.569077  0  2.312835  0  0  -0.597431  0  2.296108  0  0  -0.32624  -0.549928  0  2.324439  0
O  O87  1  0.89252698  0.52352437  0.13438153  1  0  -0.649526  0  2.05661  0  0  -0.591399  0  2.318846  0  0  -0.616803  0  2.303951  0  0  -0.314401  -0.573659  0  2.328971  0
O  O88  1  0.10747743  0.47647797  0.86562194  1  0  -0.649534  0  2.056517  0  0  -0.591393  0  2.318741  0  0  -0.616794  0  2.30384  0  0  -0.314382  -0.57365  0  2.328869  0
