# generated using pymatgen
data_CdH16C18N2O5
_symmetry_space_group_name_H-M   'P 1'
_cell_length_a   8.38569767
_cell_length_b   10.48334345
_cell_length_c   10.92022796
_cell_angle_alpha   112.05472526
_cell_angle_beta   94.92968303
_cell_angle_gamma   103.19669035
_symmetry_Int_Tables_number   1
_chemical_formula_structural   CdH16C18N2O5
_chemical_formula_sum   'Cd2 H32 C36 N4 O10'
_cell_volume   850.43652844
_cell_formula_units_Z   2
loop_
 _symmetry_equiv_pos_site_id
 _symmetry_equiv_pos_as_xyz
  1  'x, y, z'
loop_
 _atom_site_type_symbol
 _atom_site_label
 _atom_site_symmetry_multiplicity
 _atom_site_fract_x
 _atom_site_fract_y
 _atom_site_fract_z
 _atom_site_occupancy
 _atom_site_hle17_bader_spin_density
 _atom_site_hle17_ddec_charge
 _atom_site_hle17_ddec_spin_density
 _atom_site_hle17_ddec_sum_bond_order
 _atom_site_hle17_magmom
 _atom_site_hse06_10hf_bader_spin_density
 _atom_site_hse06_10hf_ddec_charge
 _atom_site_hse06_10hf_ddec_spin_density
 _atom_site_hse06_10hf_ddec_sum_bond_order
 _atom_site_hse06_10hf_magmom
 _atom_site_hse06_bader_spin_density
 _atom_site_hse06_ddec_charge
 _atom_site_hse06_ddec_spin_density
 _atom_site_hse06_ddec_sum_bond_order
 _atom_site_hse06_magmom
 _atom_site_pbe_bader_spin_density
 _atom_site_pbe_cm5_charge
 _atom_site_pbe_ddec_charge
 _atom_site_pbe_ddec_spin_density
 _atom_site_pbe_ddec_sum_bond_order
 _atom_site_pbe_magmom
Cd  Cd0  1  0.62742585  0.13553199  0.44141149  1  0  1.108183  0  1.69443  0  0  0.90621  0  2.145474  0  0  0.968039  0  2.091116  0  0  0.767928  0.861548  0  2.183033  0
Cd  Cd1  1  0.37257210  0.86446483  0.55858726  1  0  1.108204  0  1.694433  0  0  0.906222  0  2.145479  0  0  0.968051  0  2.09112  0  0  0.767935  0.861561  0  2.183043  0
H  H2  1  0.05310511  0.91977126  0.38270826  1  0  0.114973  0  0.940389  0  0  0.120963  0  1.006339  0  0  0.124656  0  1.003514  0  0  0.108637  0.118241  0  1.008633  0
H  H3  1  0.94689078  0.08022662  0.61728984  1  0  0.11499  0  0.940369  0  0  0.120986  0  1.006304  0  0  0.124678  0  1.003479  0  0  0.108637  0.118262  0  1.008597  0
H  H4  1  0.11212854  0.69623716  0.24233092  1  0  0.044817  0  0.931713  0  0  0.055259  0  0.994608  0  0  0.055462  0  0.994887  0  0  0.104646  0.055095  0  0.994648  0
H  H5  1  0.88786579  0.30375963  0.75766577  1  0  0.044786  0  0.931722  0  0  0.055238  0  0.994611  0  0  0.05544  0  0.99489  0  0  0.10463  0.055058  0  0.994667  0
H  H6  1  0.17287530  0.65045058  0.01549713  1  0  0.076832  0  0.943535  0  0  0.092013  0  1.007372  0  0  0.094115  0  1.006126  0  0  0.08797  0.090711  0  1.007943  0
H  H7  1  0.82712951  0.34955269  0.98450342  1  0  0.07689  0  0.943439  0  0  0.092046  0  1.007302  0  0  0.094149  0  1.006054  0  0  0.087975  0.090746  0  1.007872  0
H  H8  1  0.29073995  0.83325496  0.10232319  1  0  0.09313  0  0.935418  0  0  0.113618  0  0.988199  0  0  0.114871  0  0.988217  0  0  0.097252  0.112631  0  0.98833  0
H  H9  1  0.70926374  0.16674834  0.89768280  1  0  0.093124  0  0.935437  0  0  0.113607  0  0.988211  0  0  0.114858  0  0.988232  0  0  0.097234  0.11262  0  0.988343  0
H  H10  1  0.09673899  0.90082284  0.98052756  1  0  0.084683  0  0.940277  0  0  0.104483  0  0.997318  0  0  0.10532  0  0.997717  0  0  0.094695  0.103806  0  0.997141  0
H  H11  1  0.90327119  0.09918583  0.01947798  1  0  0.084632  0  0.94037  0  0  0.104445  0  0.997406  0  0  0.105283  0  0.997804  0  0  0.0947  0.103772  0  0.997226  0
H  H12  1  0.98333548  0.71681862  0.89157840  1  0  0.06884  0  0.957447  0  0  0.08311  0  1.025404  0  0  0.084217  0  1.025852  0  0  0.085172  0.08232  0  1.025132  0
H  H13  1  0.01667619  0.28319110  0.10842394  1  0  0.068731  0  0.957481  0  0  0.083021  0  1.02544  0  0  0.084125  0  1.02589  0  0  0.085165  0.082234  0  1.025167  0
H  H14  1  0.77923046  0.80319680  0.02894209  1  0  0.053963  0  0.928676  0  0  0.063903  0  0.989376  0  0  0.065017  0  0.987972  0  0  0.10607  0.063014  0  0.990571  0
H  H15  1  0.22077496  0.19680857  0.97105284  1  0  0.053921  0  0.928727  0  0  0.063883  0  0.989402  0  0  0.064997  0  0.987999  0  0  0.106069  0.062995  0  0.990595  0
H  H16  1  0.03863250  0.04821001  0.18510470  1  0  0.094354  0  0.930458  0  0  0.10512  0  0.991416  0  0  0.107793  0  0.989977  0  0  0.106733  0.103128  0  0.992645  0
H  H17  1  0.96136789  0.95179433  0.81489780  1  0  0.094387  0  0.930454  0  0  0.105174  0  0.99138  0  0  0.107848  0  0.98994  0  0  0.106762  0.103182  0  0.992609  0
H  H18  1  0.79020309  0.24898091  0.23187282  1  0  0.081433  0  0.944234  0  0  0.092276  0  1.004597  0  0  0.094042  0  1.003567  0  0  0.118503  0.090916  0  1.00545  0
H  H19  1  0.20979396  0.75101695  0.76812259  1  0  0.081435  0  0.944285  0  0  0.092255  0  1.004667  0  0  0.094034  0  1.003623  0  0  0.11852  0.090896  0  1.005519  0
H  H20  1  0.91704326  0.48005876  0.20993719  1  0  0.103045  0  0.962944  0  0  0.113408  0  1.023685  0  0  0.116173  0  1.023015  0  0  0.108566  0.111373  0  1.024284  0
H  H21  1  0.08296003  0.51994344  0.79006471  1  0  0.103109  0  0.962925  0  0  0.113462  0  1.023672  0  0  0.11623  0  1.023002  0  0  0.108573  0.111425  0  1.024274  0
H  H22  1  0.92009757  0.71282122  0.39896575  1  0  0.109228  0  0.946573  0  0  0.11926  0  1.00694  0  0  0.122123  0  1.004208  0  0  0.113421  0.11723  0  1.00885  0
H  H23  1  0.07990353  0.28717779  0.60103855  1  0  0.109207  0  0.946551  0  0  0.119243  0  1.006917  0  0  0.122106  0  1.004184  0  0  0.113411  0.117216  0  1.008818  0
H  H24  1  0.79239301  0.70553455  0.59154064  1  0  0.12035  0  0.97539  0  0  0.128934  0  1.036759  0  0  0.132413  0  1.035342  0  0  0.109527  0.126479  0  1.037874  0
H  H25  1  0.20760290  0.29446335  0.40845929  1  0  0.12034  0  0.975402  0  0  0.128941  0  1.03675  0  0  0.132421  0  1.035332  0  0  0.109522  0.126486  0  1.037871  0
H  H26  1  0.64990251  0.68525571  0.72592013  1  0  0.130727  0  0.976931  0  0  0.139855  0  1.037378  0  0  0.143769  0  1.034861  0  0  0.11194  0.136352  0  1.040331  0
H  H27  1  0.35009659  0.31474109  0.27407502  1  0  0.130712  0  0.976983  0  0  0.139851  0  1.037414  0  0  0.143761  0  1.034898  0  0  0.111947  0.136349  0  1.040368  0
H  H28  1  0.50209193  0.64947298  0.90257738  1  0  0.097152  0  0.924949  0  0  0.113094  0  0.975261  0  0  0.115371  0  0.973983  0  0  0.115043  0.111493  0  0.976111  0
H  H29  1  0.49790825  0.35052706  0.09742266  1  0  0.097138  0  0.924952  0  0  0.113077  0  0.975276  0  0  0.115353  0  0.974  0  0  0.115034  0.111474  0  0.976128  0
H  H30  1  0.40471886  0.39975256  0.89536592  1  0  0.109485  0  0.965907  0  0  0.116211  0  1.031275  0  0  0.119277  0  1.030458  0  0  0.109788  0.113968  0  1.032009  0
H  H31  1  0.59528528  0.60024858  0.10463566  1  0  0.109465  0  0.965936  0  0  0.116187  0  1.031314  0  0  0.119238  0  1.030516  0  0  0.109785  0.113944  0  1.032048  0
H  H32  1  0.47851856  0.20066299  0.71876107  1  0  0.087979  0  0.960137  0  0  0.093956  0  1.02774  0  0  0.096391  0  1.025924  0  0  0.115965  0.092142  0  1.029182  0
H  H33  1  0.52147854  0.79933490  0.28123801  1  0  0.087973  0  0.960196  0  0  0.094001  0  1.027739  0  0  0.096437  0  1.025923  0  0  0.11597  0.092186  0  1.029182  0
C  C34  1  0.27267305  0.01439840  0.33198434  1  0  0.690654  0  3.838574  0  0  0.638041  0  4.137789  0  0  0.672147  0  4.13158  0  0  0.207171  0.614828  0  4.140751  0
C  C35  1  0.72732491  0.98559843  0.66801533  1  0  0.690754  0  3.838624  0  0  0.638192  0  4.137737  0  0  0.672299  0  4.131527  0  0  0.207242  0.614979  0  4.140697  0
C  C36  1  0.09496725  0.91930552  0.28996983  1  0  -0.203359  0  3.605508  0  0  -0.211256  0  3.837324  0  0  -0.217888  0  3.8486  0  0  -0.094652  -0.206755  0  3.829836  0
C  C37  1  0.90502985  0.08069237  0.71002925  1  0  -0.203456  0  3.605549  0  0  -0.211341  0  3.837326  0  0  -0.217974  0  3.848599  0  0  -0.094717  -0.206836  0  3.829825  0
C  C38  1  0.07987855  0.76272208  0.19266996  1  0  0.188175  0  3.546237  0  0  0.165704  0  3.804745  0  0  0.17255  0  3.813866  0  0  -0.0026  0.160798  0  3.798863  0
C  C39  1  0.92011767  0.23727686  0.80732762  1  0  0.188187  0  3.546229  0  0  0.165714  0  3.804739  0  0  0.172559  0  3.813861  0  0  -0.0026  0.160815  0  3.798854  0
C  C40  1  0.16436503  0.75935654  0.07228785  1  0  -0.178973  0  3.62603  0  0  -0.225389  0  3.885403  0  0  -0.227187  0  3.896506  0  0  -0.171637  -0.223921  0  3.87769  0
C  C41  1  0.83563740  0.24064672  0.92771347  1  0  -0.179044  0  3.625994  0  0  -0.22542  0  3.885371  0  0  -0.227217  0  3.89647  0  0  -0.17162  -0.223953  0  3.877657  0
C  C42  1  0.03903682  0.80194715  0.99209151  1  0  -0.17175  0  3.629425  0  0  -0.219031  0  3.892845  0  0  -0.220458  0  3.904266  0  0  -0.170519  -0.217963  0  3.884967  0
C  C43  1  0.96097093  0.19806149  0.00791113  1  0  -0.17156  0  3.629447  0  0  -0.218898  0  3.892906  0  0  -0.220322  0  3.904328  0  0  -0.170513  -0.217833  0  3.885035  0
C  C44  1  0.90487141  0.81958788  0.08003422  1  0  0.184976  0  3.540491  0  0  0.161751  0  3.79599  0  0  0.168629  0  3.804651  0  0  -0.006315  0.157053  0  3.790017  0
C  C45  1  0.09513249  0.18041643  0.91996298  1  0  0.184927  0  3.540482  0  0  0.161702  0  3.795994  0  0  0.168578  0  3.804654  0  0  -0.006404  0.157002  0  3.790026  0
C  C46  1  0.97057747  0.95923491  0.20794650  1  0  -0.178962  0  3.612888  0  0  -0.189243  0  3.846769  0  0  -0.195502  0  3.85896  0  0  -0.092366  -0.184949  0  3.83841  0
C  C47  1  0.02942100  0.04076727  0.79205328  1  0  -0.178985  0  3.61286  0  0  -0.189261  0  3.846701  0  0  -0.195513  0  3.858878  0  0  -0.092394  -0.184969  0  3.838342  0
C  C48  1  0.83677953  0.01111134  0.28239041  1  0  0.656176  0  3.873681  0  0  0.605921  0  4.176527  0  0  0.639513  0  4.171555  0  0  0.19073  0.583206  0  4.17892  0
C  C49  1  0.16322085  0.98888551  0.71761033  1  0  0.6561  0  3.873799  0  0  0.605819  0  4.176683  0  0  0.639409  0  4.171713  0  0  0.190727  0.583106  0  4.179075  0
C  C50  1  0.79495237  0.35313512  0.30950415  1  0  0.131959  0  3.72097  0  0  0.10183  0  3.972048  0  0  0.108383  0  3.992062  0  0  0.049842  0.09753  0  3.958423  0
C  C51  1  0.20504864  0.64686385  0.69049372  1  0  0.131938  0  3.721107  0  0  0.101835  0  3.972164  0  0  0.108377  0  3.992176  0  0  0.049826  0.097535  0  3.958537  0
C  C52  1  0.86563445  0.48119646  0.29844426  1  0  -0.1258  0  3.733377  0  0  -0.142436  0  3.992739  0  0  -0.149456  0  4.014738  0  0  -0.083109  -0.13793  0  3.97795  0
C  C53  1  0.13436438  0.51879931  0.70155600  1  0  -0.12585  0  3.733354  0  0  -0.142476  0  3.992702  0  0  -0.149503  0  4.014707  0  0  -0.083065  -0.13797  0  3.977911  0
C  C54  1  0.86559035  0.60952839  0.40175510  1  0  0.015581  0  3.686889  0  0  -0.005658  0  3.941478  0  0  -0.001393  0  3.95888  0  0  -0.060497  -0.00831  0  3.929665  0
C  C55  1  0.13441106  0.39047167  0.59824684  1  0  0.015638  0  3.686928  0  0  -0.005604  0  3.941524  0  0  -0.001341  0  3.958928  0  0  -0.06052  -0.008253  0  3.929709  0
C  C56  1  0.79426212  0.60569359  0.51121674  1  0  -0.128781  0  3.659608  0  0  -0.148224  0  3.90744  0  0  -0.155144  0  3.928208  0  0  -0.075942  -0.14361  0  3.893335  0
C  C57  1  0.20573347  0.39430324  0.48878463  1  0  -0.128778  0  3.659663  0  0  -0.148211  0  3.90752  0  0  -0.155131  0  3.928287  0  0  -0.075891  -0.143599  0  3.893417  0
C  C58  1  0.72386900  0.47270485  0.51490038  1  0  0.17082  0  3.766376  0  0  0.16569  0  4.009768  0  0  0.172059  0  4.031722  0  0  0.119054  0.161582  0  3.994598  0
C  C59  1  0.27612895  0.52729197  0.48509837  1  0  0.170749  0  3.766314  0  0  0.165543  0  4.009818  0  0  0.171907  0  4.03177  0  0  0.119011  0.161436  0  3.994646  0
C  C60  1  0.64249542  0.46039480  0.62735465  1  0  0.173926  0  3.761458  0  0  0.168971  0  4.005363  0  0  0.17552  0  4.02657  0  0  0.118329  0.164432  0  3.991017  0
C  C61  1  0.35750252  0.53960201  0.37264319  1  0  0.174058  0  3.761325  0  0  0.169129  0  4.005227  0  0  0.175693  0  4.026413  0  0  0.118356  0.16459  0  3.990883  0
C  C62  1  0.61301024  0.57922506  0.72720256  1  0  -0.141409  0  3.670935  0  0  -0.160382  0  3.917891  0  0  -0.167137  0  3.93851  0  0  -0.077311  -0.155902  0  3.904784  0
C  C63  1  0.38698923  0.42077282  0.27279483  1  0  -0.141474  0  3.670859  0  0  -0.160459  0  3.917831  0  0  -0.167214  0  3.938443  0  0  -0.07737  -0.155981  0  3.904725  0
C  C64  1  0.52907434  0.55863259  0.82595956  1  0  -0.003627  0  3.731065  0  0  -0.022957  0  3.982935  0  0  -0.019889  0  4.002109  0  0  -0.063691  -0.024614  0  3.969698  0
C  C65  1  0.47092617  0.44136851  0.17403904  1  0  -0.003593  0  3.730939  0  0  -0.022933  0  3.982832  0  0  -0.019866  0  4.002002  0  0  -0.063664  -0.024589  0  3.969594  0
C  C66  1  0.47713746  0.42156945  0.82387422  1  0  -0.112257  0  3.718729  0  0  -0.125971  0  3.971223  0  0  -0.132406  0  3.992572  0  0  -0.07839  -0.121862  0  3.956941  0
C  C67  1  0.52286427  0.57843167  0.17612629  1  0  -0.112227  0  3.718756  0  0  -0.125936  0  3.971272  0  0  -0.132358  0  3.992629  0  0  -0.078381  -0.121826  0  3.956985  0
C  C68  1  0.51419380  0.30941569  0.72343323  1  0  0.143629  0  3.687191  0  0  0.114328  0  3.935931  0  0  0.120718  0  3.955214  0  0  0.052859  0.110059  0  3.923268  0
C  C69  1  0.48580604  0.69058328  0.27656640  1  0  0.143655  0  3.687287  0  0  0.114318  0  3.936001  0  0  0.120707  0  3.955282  0  0  0.052857  0.110049  0  3.923337  0
N  N70  1  0.72632825  0.34943814  0.41482799  1  0  -0.364181  0  3.274767  0  0  -0.291826  0  3.53547  0  0  -0.312359  0  3.555298  0  0  -0.326014  -0.277668  0  3.521492  0
N  N71  1  0.27366659  0.65055652  0.58516889  1  0  -0.36419  0  3.274913  0  0  -0.291814  0  3.53564  0  0  -0.312346  0  3.555471  0  0  -0.32606  -0.277657  0  3.521661  0
N  N72  1  0.59484720  0.32870664  0.62806822  1  0  -0.366773  0  3.248639  0  0  -0.295483  0  3.50982  0  0  -0.315365  0  3.528478  0  0  -0.326457  -0.281809  0  3.497444  0
N  N73  1  0.40515075  0.67129018  0.37193053  1  0  -0.366836  0  3.248654  0  0  -0.295535  0  3.509818  0  0  -0.315423  0  3.528477  0  0  -0.326441  -0.281861  0  3.497443  0
O  O74  1  0.37448744  0.97727384  0.39967112  1  0  -0.688751  0  2.101509  0  0  -0.599292  0  2.372946  0  0  -0.634006  0  2.361229  0  0  -0.342187  -0.574146  0  2.379958  0
O  O75  1  0.62550969  0.02272408  0.60033072  1  0  -0.688773  0  2.101535  0  0  -0.599339  0  2.372967  0  0  -0.634053  0  2.36125  0  0  -0.342197  -0.5742  0  2.379984  0
O  O76  1  0.32003935  0.11906369  0.30160918  1  0  -0.617661  0  1.918802  0  0  -0.568314  0  2.145596  0  0  -0.59189  0  2.135532  0  0  -0.318692  -0.55115  0  2.152051  0
O  O77  1  0.67996015  0.88093422  0.69839096  1  0  -0.617683  0  1.918752  0  0  -0.568372  0  2.145542  0  0  -0.591947  0  2.135476  0  0  -0.318718  -0.551208  0  2.151993  0
O  O78  1  0.69110457  0.98434314  0.21818964  1  0  -0.64605  0  1.877983  0  0  -0.592273  0  2.103971  0  0  -0.617811  0  2.09284  0  0  -0.343719  -0.574435  0  2.110937  0
O  O79  1  0.30888894  0.01564726  0.78180930  1  0  -0.646021  0  1.878226  0  0  -0.592214  0  2.104192  0  0  -0.617753  0  2.093067  0  0  -0.343714  -0.57438  0  2.111165  0
O  O80  1  0.88117391  0.08711806  0.40954932  1  0  -0.644856  0  1.968991  0  0  -0.578381  0  2.216285  0  0  -0.608913  0  2.207893  0  0  -0.335447  -0.557245  0  2.221426  0
O  O81  1  0.11882386  0.91288197  0.59044873  1  0  -0.644821  0  1.968947  0  0  -0.578335  0  2.216246  0  0  -0.608867  0  2.207858  0  0  -0.335417  -0.557197  0  2.221389  0
O  O82  1  0.90404848  0.70989455  0.13209019  1  0  -0.361889  0  2.034737  0  0  -0.307815  0  2.273734  0  0  -0.32178  0  2.27206  0  0  -0.230298  -0.297685  0  2.274457  0
O  O83  1  0.09595075  0.29010651  0.86790283  1  0  -0.361753  0  2.034635  0  0  -0.307723  0  2.27366  0  0  -0.321691  0  2.271992  0  0  -0.230199  -0.297592  0  2.274378  0
