# generated using pymatgen
data_Cu3H34C52(NO4)4
_symmetry_space_group_name_H-M   'P 1'
_cell_length_a   10.25888041
_cell_length_b   10.63698338
_cell_length_c   11.57914108
_cell_angle_alpha   83.77684101
_cell_angle_beta   85.52457217
_cell_angle_gamma   66.39567061
_symmetry_Int_Tables_number   1
_chemical_formula_structural   Cu3H34C52(NO4)4
_chemical_formula_sum   'Cu3 H34 C52 N4 O16'
_cell_volume   1150.18349292
_cell_formula_units_Z   1
loop_
 _symmetry_equiv_pos_site_id
 _symmetry_equiv_pos_as_xyz
  1  'x, y, z'
loop_
 _atom_site_type_symbol
 _atom_site_label
 _atom_site_symmetry_multiplicity
 _atom_site_fract_x
 _atom_site_fract_y
 _atom_site_fract_z
 _atom_site_occupancy
 _atom_site_pbe_bader_charge
 _atom_site_pbe_bader_spin_density
 _atom_site_pbe_cm5_charge
 _atom_site_pbe_ddec_charge
 _atom_site_pbe_ddec_spin_density
 _atom_site_pbe_ddec_sum_bond_order
 _atom_site_pbe_magmom
Cu  Cu0  1  0.19655564  0.23378419  0.31057210  1  1.111347  -0.575342  0.768822  0.837311  -0.743309  2.249068  -0.574
Cu  Cu1  1  0.80354911  0.76652410  0.68953111  1  1.110789  -0.575397  0.769191  0.837959  -0.743629  2.24927  -0.574
Cu  Cu2  1  0.49996878  0.00006387  0.49997092  1  1.118566  0.574751  0.709858  0.916221  0.76467  2.06303  0.574
H  H3  1  0.17101252  0.03259180  0.51137416  1  0.173682  -0.003073  0.125112  0.109051  -0.001488  1.016286  -0.002
H  H4  1  0.82891343  0.96754219  0.48862895  1  0.172409  -0.003073  0.124992  0.108878  -0.001485  1.016665  -0.002
H  H5  1  0.97353714  0.03472225  0.65650413  1  0.13166  -0.00111  0.11342  0.130875  -0.000566  1.007874  -0.001
H  H6  1  0.02633225  0.96535971  0.34343019  1  0.132222  -0.00111  0.113361  0.131062  -0.000565  1.008121  -0.001
H  H7  1  0.75001882  0.25123910  0.66114902  1  0.105188  -0.000133  0.111652  0.110682  -8.3e-05  0.989151  0.0
H  H8  1  0.24984442  0.74881498  0.33878439  1  0.104636  -0.000132  0.111779  0.110526  -8.3e-05  0.98934  0.0
H  H9  1  0.73717887  0.45846254  0.52892232  1  0.102694  -0.001593  0.114614  0.130241  -0.000797  1.011865  -0.001
H  H10  1  0.26269866  0.54163207  0.47107741  1  0.104292  -0.001593  0.114573  0.130035  -0.000798  1.012143  -0.001
H  H11  1  0.75951227  0.63001346  0.42842896  1  0.181503  -0.001557  0.114977  0.145619  -0.000794  1.026937  -0.001
H  H12  1  0.24033270  0.37005443  0.57162186  1  0.182632  -0.001554  0.114673  0.145128  -0.000793  1.027684  -0.001
H  H13  1  0.78910677  0.80549450  0.28413042  1  0.127286  -7.2e-05  0.116315  0.119642  -4.5e-05  0.991307  0.0
H  H14  1  0.21062587  0.19464737  0.71594883  1  0.130717  -7.3e-05  0.116155  0.119383  -4.6e-05  0.991093  0.0
H  H15  1  0.99997367  0.73487735  0.13961480  1  0.101899  -0.001393  0.116426  0.12396  -0.000713  0.980538  -0.001
H  H16  1  0.99979165  0.26538520  0.86047798  1  0.099995  -0.001398  0.116255  0.123741  -0.000714  0.980561  -0.001
H  H17  1  0.17135256  0.48834921  0.15097272  1  0.119967  -0.003553  0.125646  0.099488  -0.001692  0.996373  -0.002
H  H18  1  0.82856424  0.51195749  0.84915625  1  0.120578  -0.003548  0.125332  0.099037  -0.001691  0.996941  -0.002
H  H19  1  0.34683002  0.49886037  0.28114521  1  0.041719  3e-06  0.099486  0.092396  9e-06  1.048142  0.0
H  H20  1  0.65325438  0.50105967  0.71886314  1  0.041477  3e-06  0.099288  0.092066  9e-06  1.048602  0.0
H  H21  1  0.44485519  0.63323922  0.13503590  1  0.071161  0.000198  0.093989  0.090956  0.000102  1.053407  0.0
H  H22  1  0.55519086  0.36661743  0.86488707  1  0.069729  0.000197  0.093926  0.090861  0.000101  1.053113  0.0
H  H23  1  0.70422553  0.53630483  0.07997176  1  0.096914  -4.9e-05  0.102922  0.106989  -4e-05  1.030524  0.0
H  H24  1  0.29582817  0.46358594  0.91996603  1  0.096574  -4.8e-05  0.102863  0.106959  -4e-05  1.030578  0.0
H  H25  1  0.76456650  0.17960127  0.31762889  1  0.106561  0.000396  0.10637  0.115618  0.000338  1.012089  0.0
H  H26  1  0.23552416  0.82035393  0.68239773  1  0.106458  0.000393  0.106268  0.115514  0.000336  1.011943  0.0
H  H27  1  0.18845468  0.98533482  0.17799882  1  0.099345  7.3e-05  0.103054  0.113233  4.5e-05  1.044534  0.0
H  H28  1  0.81161308  0.01449306  0.82193416  1  0.097458  7.4e-05  0.103002  0.113232  4.6e-05  1.044407  0.0
H  H29  1  0.18693251  0.91500397  0.97967063  1  0.069309  0.000198  0.1017  0.104973  0.000111  0.987861  0.0
H  H30  1  0.81313674  0.08489804  0.02022764  1  0.069699  0.000197  0.101661  0.104987  0.00011  0.987831  0.0
H  H31  1  0.41518231  0.81780267  0.86343933  1  0.093926  -0.000308  0.102511  0.107621  -0.000255  1.037372  0.0
H  H32  1  0.58489751  0.18212424  0.13648574  1  0.094611  -0.000307  0.102484  0.107743  -0.000255  1.037151  0.0
H  H33  1  0.64612549  0.83410657  0.15039039  1  0.09901  0.000297  0.105672  0.105528  0.000294  1.042824  0.0
H  H34  1  0.35396618  0.16538775  0.84967609  1  0.100911  0.000295  0.105759  0.105622  0.000292  1.042352  0.0
H  H35  1  0.05490524  0.31370843  0.05991097  1  0.658993  -3.6e-05  0.296355  0.357716  -1.9e-05  0.997832  0.0
H  H36  1  0.94525180  0.68615214  0.94012400  1  0.659638  -3.6e-05  0.296628  0.358163  -1.8e-05  0.997468  0.0
C  C37  1  0.07201171  0.12328310  0.51855100  1  0.447141  0.000972  0.059469  0.106206  -0.000212  3.904374  0.001
C  C38  1  0.92791915  0.87685093  0.48145604  1  0.449463  0.00097  0.059609  0.106416  -0.000214  3.904347  0.001
C  C39  1  0.96201179  0.12621345  0.59853429  1  -0.012806  -0.006913  -0.074214  -0.124407  -0.004665  3.92961  -0.006
C  C40  1  0.03788037  0.87388521  0.40142935  1  -0.01467  -0.006916  -0.073913  -0.124394  -0.004669  3.92993  -0.006
C  C41  1  0.83880073  0.24664458  0.60106039  1  -0.056531  0.00349  -0.059109  -0.012332  0.002372  3.934603  0.002
C  C42  1  0.16108490  0.75344372  0.39890053  1  -0.055048  0.003486  -0.059393  -0.01233  0.002369  3.934222  0.002
C  C43  1  0.83023020  0.36168052  0.52664680  1  0.037944  -0.003598  -0.070774  -0.142051  -0.002672  3.899069  -0.003
C  C44  1  0.16966066  0.63843169  0.47335438  1  0.013695  -0.00364  -0.070568  -0.141619  -0.002672  3.899447  -0.003
C  C45  1  0.84875162  0.60041962  0.36501869  1  -0.034219  -0.004151  -0.069863  -0.13431  -0.002971  3.864765  -0.003
C  C46  1  0.15109792  0.39971126  0.63504587  1  -0.020653  -0.004152  -0.069912  -0.134688  -0.002966  3.865676  -0.003
C  C47  1  0.86686145  0.69956490  0.28409682  1  -0.067085  0.004098  -0.055761  -0.009813  0.002816  3.924111  0.003
C  C48  1  0.13293213  0.30060707  0.71597545  1  -0.082645  0.004097  -0.055542  -0.009246  0.002811  3.923803  0.003
C  C49  1  0.98329838  0.66126897  0.20556592  1  0.041692  -0.006616  -0.069401  -0.100222  -0.00454  3.935245  -0.005
C  C50  1  0.01651779  0.33895778  0.79451700  1  0.044012  -0.0066  -0.069279  -0.100217  -0.004538  3.934731  -0.005
C  C51  1  0.07958156  0.52442712  0.21104581  1  0.475208  0.001931  0.056999  0.10871  0.000383  3.923521  0.002
C  C52  1  0.92030445  0.47583505  0.78906344  1  0.472842  0.00192  0.05744  0.109592  0.000379  3.923623  0.002
C  C53  1  0.94950099  0.46502819  0.36615593  1  0.465168  -0.000967  0.116719  0.157251  -0.00137  3.991226  -0.001
C  C54  1  0.05042073  0.53513907  0.63391481  1  0.465116  -0.000962  0.116961  0.158088  -0.001369  3.991284  -0.001
C  C55  1  0.94461662  0.35172167  0.44896642  1  0.434426  -0.001181  0.121948  0.165213  -0.001313  3.992015  -0.001
C  C56  1  0.05532365  0.64842393  0.55108964  1  0.460862  -0.001144  0.121401  0.164837  -0.001318  3.99271  -0.001
C  C57  1  0.48719104  0.24927816  0.39046929  1  1.569439  -0.000324  0.201846  0.58104  0.00087  4.202948  -0.002
C  C58  1  0.51291184  0.75072474  0.60961097  1  1.572002  -0.000319  0.202302  0.581436  0.000868  4.20209  -0.002
C  C59  1  0.54959430  0.33318174  0.31052018  1  0.027706  0.007796  -0.020019  -0.033364  0.005614  3.96603  0.006
C  C60  1  0.45050133  0.66676628  0.68951287  1  0.026806  0.007752  -0.020115  -0.033596  0.005581  3.965958  0.006
C  C61  1  0.46019362  0.46079398  0.25811475  1  0.01233  0.000707  -0.080019  -0.078017  0.000478  3.945584  0.001
C  C62  1  0.53988453  0.53912908  0.74187995  1  0.012588  0.000707  -0.079899  -0.077635  0.000478  3.945598  0.001
C  C63  1  0.51504940  0.53429620  0.17577123  1  -0.025259  0.000737  -0.093445  -0.086655  0.000495  4.001144  0.001
C  C64  1  0.48501644  0.46559158  0.82418321  1  -0.024907  0.000734  -0.093078  -0.086335  0.000493  4.000684  0.001
C  C65  1  0.65969864  0.47997227  0.14381678  1  -0.062293  -0.000721  -0.078061  -0.073473  -0.000486  3.928174  0.0
C  C66  1  0.34037134  0.51991963  0.85613346  1  -0.062075  -0.000716  -0.077931  -0.073229  -0.000482  3.928805  0.0
C  C67  1  0.74966115  0.35162293  0.19503139  1  0.006762  7.2e-05  -0.025584  -0.059316  4e-06  4.009645  0.0
C  C68  1  0.25042406  0.64828978  0.80495004  1  0.009943  7.2e-05  -0.025546  -0.059552  4e-06  4.010187  0.0
C  C69  1  0.69450815  0.27975846  0.27917259  1  -0.124219  -1.4e-05  -0.077363  -0.103501  0.000106  3.940494  0.0
C  C70  1  0.30558019  0.72018531  0.72083469  1  -0.126112  -1.4e-05  -0.077238  -0.103227  0.000106  3.940544  0.0
C  C71  1  0.90372744  0.28705280  0.16097767  1  1.524653  0.00046  0.217634  0.566158  0.000383  4.172189  0.0
C  C72  1  0.09636525  0.71283931  0.83900276  1  1.522502  0.000467  0.217174  0.566054  0.000387  4.172424  0.0
C  C73  1  0.41833305  0.95429058  0.29645072  1  1.548476  -0.009911  0.215025  0.59059  -0.008127  4.146294  -0.01
C  C74  1  0.58169296  0.04583898  0.70338629  1  1.54801  -0.009909  0.214619  0.590303  -0.008116  4.146086  -0.01
C  C75  1  0.41764909  0.91034112  0.17861551  1  -0.088985  0.007  -0.021891  -0.051919  0.005248  3.986497  0.006
C  C76  1  0.58242804  0.08930867  0.82139597  1  -0.08796  0.007016  -0.021871  -0.052503  0.005262  3.987681  0.006
C  C77  1  0.28809503  0.93392662  0.12962030  1  0.013826  -0.000661  -0.080202  -0.090649  -0.00038  3.95259  0.0
C  C78  1  0.71197876  0.06577361  0.87036713  1  0.015296  -0.000659  -0.080353  -0.090814  -0.000379  3.952245  0.0
C  C79  1  0.28759883  0.89731107  0.01751498  1  -0.039556  0.001152  -0.09095  -0.085466  0.000803  3.997454  0.001
C  C80  1  0.71246972  0.10247256  0.98243987  1  -0.038897  0.001155  -0.090882  -0.085308  0.000805  3.996977  0.001
C  C81  1  0.41479495  0.84237832  0.95225389  1  -0.043018  -0.002359  -0.075259  -0.070466  -0.001581  3.928775  -0.001
C  C82  1  0.58527617  0.15741361  0.04771284  1  -0.043767  -0.00236  -0.075095  -0.070439  -0.001581  3.929588  -0.001
C  C83  1  0.54430931  0.82001377  0.00030091  1  0.016544  -0.008273  -0.018023  -0.045666  -0.005866  3.970009  -0.006
C  C84  1  0.45577474  0.17963608  0.99971954  1  -0.044373  -0.008348  -0.018124  -0.046651  -0.005875  3.970974  -0.006
C  C85  1  0.54528488  0.85156922  0.11405667  1  -0.032022  -0.003038  -0.070623  -0.09093  -0.001833  3.924385  -0.002
C  C86  1  0.45481095  0.14794571  0.88600042  1  0.025434  -0.002981  -0.070794  -0.090159  -0.001833  3.92378  -0.002
C  C87  1  0.68191859  0.76941320  0.92985547  1  1.548157  -0.001347  0.216464  0.574701  -0.002306  4.193596  0.0
C  C88  1  0.31812249  0.23045710  0.07013553  1  1.551593  -0.001363  0.217155  0.575779  -0.00232  4.192295  0.0
N  N89  1  0.06163129  0.23260114  0.44473938  1  -1.192212  -0.096405  -0.338035  -0.257984  -0.064111  3.590375  -0.082
N  N90  1  0.93833385  0.76756723  0.55531583  1  -1.194199  -0.096444  -0.338415  -0.258248  -0.064146  3.590377  -0.082
N  N91  1  0.06333606  0.42940704  0.28996358  1  -1.19733  -0.102045  -0.34585  -0.277626  -0.067622  3.632593  -0.088
N  N92  1  0.93662856  0.57082345  0.71015076  1  -1.200989  -0.102069  -0.345634  -0.278066  -0.067632  3.632673  -0.088
O  O93  1  0.35602946  0.29789038  0.41737525  1  -1.187988  0.000532  -0.329889  -0.610952  4e-05  2.291731  0.0
O  O94  1  0.64407900  0.70215706  0.58274825  1  -1.18883  0.000504  -0.330219  -0.611201  2.5e-05  2.29146  0.0
O  O95  1  0.57665958  0.12699500  0.42269773  1  -1.114747  0.093929  -0.333081  -0.548593  0.062507  2.366544  0.084
O  O96  1  0.42341412  0.87299739  0.57735909  1  -1.116136  0.093475  -0.333301  -0.549163  0.062204  2.36538  0.084
O  O97  1  0.94413633  0.35764233  0.07466635  1  -1.188182  -0.000243  -0.332529  -0.491214  -0.000176  2.340872  0.0
O  O98  1  0.05601504  0.64232363  0.92541841  1  -1.187224  -0.00024  -0.332505  -0.491374  -0.000174  2.340652  0.0
O  O99  1  0.98574254  0.17743715  0.21067472  1  -1.185531  0.000832  -0.306598  -0.552849  0.000579  2.20779  0.0
O  O100  1  0.01429269  0.82236677  0.78922613  1  -1.184307  0.000835  -0.306313  -0.552947  0.000582  2.208712  0.0
O  O101  1  0.30085963  0.03383859  0.34409070  1  -1.166455  -0.051024  -0.342435  -0.603228  -0.032738  2.46739  -0.042
O  O102  1  0.69912194  0.96637692  0.65561110  1  -1.165562  -0.051323  -0.342214  -0.60301  -0.032924  2.467553  -0.042
O  O103  1  0.53519527  0.90975963  0.34834419  1  -1.096196  0.066854  -0.294607  -0.494024  0.045522  2.276642  0.062
O  O104  1  0.46483058  0.09066480  0.65146435  1  -1.096977  0.06686  -0.294307  -0.493812  0.045521  2.276246  0.062
O  O105  1  0.67016493  0.76714111  0.82032146  1  -1.125602  -0.088118  -0.323198  -0.545969  -0.05696  2.410987  -0.079
O  O106  1  0.32978597  0.23324228  0.17960682  1  -1.125257  -0.088139  -0.323404  -0.546236  -0.056967  2.409239  -0.079
O  O107  1  0.79593099  0.73438264  0.98246931  1  -1.180359  -0.002475  -0.303468  -0.535181  -0.001255  2.272366  -0.002
O  O108  1  0.20417014  0.26521761  0.01751101  1  -1.184007  -0.002516  -0.303764  -0.535215  -0.00128  2.272456  -0.002
