# generated using pymatgen
data_GdH6(C2N3)3
_symmetry_space_group_name_H-M   'P 1'
_cell_length_a   9.37200373
_cell_length_b   9.37201133
_cell_length_c   12.68575739
_cell_angle_alpha   91.71324674
_cell_angle_beta   91.71320202
_cell_angle_gamma   119.48933140
_symmetry_Int_Tables_number   1
_chemical_formula_structural   GdH6(C2N3)3
_chemical_formula_sum   'Gd4 H24 C24 N36'
_cell_volume   968.18487031
_cell_formula_units_Z   4
loop_
 _symmetry_equiv_pos_site_id
 _symmetry_equiv_pos_as_xyz
  1  'x, y, z'
loop_
 _atom_site_type_symbol
 _atom_site_label
 _atom_site_symmetry_multiplicity
 _atom_site_fract_x
 _atom_site_fract_y
 _atom_site_fract_z
 _atom_site_occupancy
 _atom_site_hle17_bader_spin_density
 _atom_site_hle17_ddec_charge
 _atom_site_hle17_ddec_spin_density
 _atom_site_hle17_ddec_sum_bond_order
 _atom_site_hle17_magmom
 _atom_site_hse06_10hf_bader_spin_density
 _atom_site_hse06_10hf_ddec_charge
 _atom_site_hse06_10hf_ddec_spin_density
 _atom_site_hse06_10hf_ddec_sum_bond_order
 _atom_site_hse06_10hf_magmom
 _atom_site_hse06_bader_spin_density
 _atom_site_hse06_ddec_charge
 _atom_site_hse06_ddec_spin_density
 _atom_site_hse06_ddec_sum_bond_order
 _atom_site_hse06_magmom
 _atom_site_pbe_bader_spin_density
 _atom_site_pbe_cm5_charge
 _atom_site_pbe_ddec_charge
 _atom_site_pbe_ddec_spin_density
 _atom_site_pbe_ddec_sum_bond_order
 _atom_site_pbe_magmom
Gd  Gd0  1  0.51952137  0.25739224  0.42841378  1  0  1.802732  0  2.209467  0  0  1.506883  0  2.853594  0  0  1.57013  0  2.795301  0  0  1.737145  1.460771  0  2.894984  0
Gd  Gd1  1  0.74260774  0.48047831  0.07158634  1  0  1.802682  0  2.209526  0  0  1.50683  0  2.853644  0  0  1.570066  0  2.795368  0  0  1.737146  1.460715  0  2.895036  0
Gd  Gd2  1  0.48047812  0.74260831  0.57158734  1  0  1.802677  0  2.20953  0  0  1.50681  0  2.853675  0  0  1.570063  0  2.795363  0  0  1.737144  1.460698  0  2.89507  0
Gd  Gd3  1  0.25739221  0.51952101  0.92841240  1  0  1.802707  0  2.209492  0  0  1.506856  0  2.85361  0  0  1.570108  0  2.795313  0  0  1.737134  1.46075  0  2.894996  0
H  H4  1  0.22190692  0.29379031  0.23380764  1  0  0.106371  0  0.9584  0  0  0.115476  0  1.020762  0  0  0.117475  0  1.020823  0  0  0.123005  0.11405  0  1.020768  0
H  H5  1  0.70620992  0.77809287  0.26619258  1  0  0.106418  0  0.958306  0  0  0.115477  0  1.020724  0  0  0.117477  0  1.020784  0  0  0.122999  0.114051  0  1.02073  0
H  H6  1  0.77809196  0.70620901  0.76619265  1  0  0.106464  0  0.958405  0  0  0.11552  0  1.020819  0  0  0.11752  0  1.020879  0  0  0.123029  0.114091  0  1.020823  0
H  H7  1  0.29378957  0.22190768  0.73380696  1  0  0.106414  0  0.958327  0  0  0.115491  0  1.020725  0  0  0.117491  0  1.020784  0  0  0.123015  0.114062  0  1.020729  0
H  H8  1  0.13325920  0.53506429  0.27136545  1  0  0.1115  0  0.951337  0  0  0.120428  0  1.010886  0  0  0.12279  0  1.010334  0  0  0.123423  0.119122  0  1.01072  0
H  H9  1  0.46493651  0.86674006  0.22863645  1  0  0.1115  0  0.951363  0  0  0.120429  0  1.010904  0  0  0.12279  0  1.010355  0  0  0.123429  0.119123  0  1.010739  0
H  H10  1  0.86674029  0.46493626  0.72863567  1  0  0.111495  0  0.951372  0  0  0.120451  0  1.010888  0  0  0.122813  0  1.010337  0  0  0.123432  0.119146  0  1.010724  0
H  H11  1  0.53506237  0.13325926  0.77136384  1  0  0.111506  0  0.951353  0  0  0.120462  0  1.010867  0  0  0.122823  0  1.010318  0  0  0.123437  0.119156  0  1.010704  0
H  H12  1  0.09886790  0.74522274  0.66336707  1  0  0.101517  0  0.969995  0  0  0.107024  0  1.03885  0  0  0.109434  0  1.038092  0  0  0.121276  0.105208  0  1.039829  0
H  H13  1  0.25478054  0.90113229  0.83663287  1  0  0.101525  0  0.970008  0  0  0.107039  0  1.038854  0  0  0.109449  0  1.038096  0  0  0.121287  0.105224  0  1.039834  0
H  H14  1  0.90113219  0.25477903  0.33663251  1  0  0.101497  0  0.970005  0  0  0.107005  0  1.038865  0  0  0.109416  0  1.038106  0  0  0.121275  0.105189  0  1.039844  0
H  H15  1  0.74522047  0.09886703  0.16336589  1  0  0.101534  0  0.969988  0  0  0.107045  0  1.038844  0  0  0.109454  0  1.038086  0  0  0.121282  0.105229  0  1.039823  0
H  H16  1  0.02855332  0.98853320  0.59961171  1  0  0.103539  0  0.959737  0  0  0.111712  0  1.024052  0  0  0.114208  0  1.02314  0  0  0.120532  0.109992  0  1.024761  0
H  H17  1  0.01146849  0.97144709  0.90038750  1  0  0.103497  0  0.959743  0  0  0.11166  0  1.02407  0  0  0.114157  0  1.023158  0  0  0.12053  0.109941  0  1.024776  0
H  H18  1  0.97144723  0.01146735  0.40038785  1  0  0.103502  0  0.959752  0  0  0.111663  0  1.024082  0  0  0.114161  0  1.023168  0  0  0.120512  0.109945  0  1.024787  0
H  H19  1  0.98853145  0.02855223  0.09961124  1  0  0.103507  0  0.959737  0  0  0.111667  0  1.024073  0  0  0.114165  0  1.023157  0  0  0.120522  0.109949  0  1.024777  0
H  H20  1  0.10987225  0.84326059  0.33952231  1  0  0.11056  0  0.965627  0  0  0.117429  0  1.030932  0  0  0.120286  0  1.029392  0  0  0.123113  0.115277  0  1.032373  0
H  H21  1  0.15673891  0.89012778  0.16047730  1  0  0.110517  0  0.965685  0  0  0.117398  0  1.030981  0  0  0.120254  0  1.029443  0  0  0.123123  0.115245  0  1.032422  0
H  H22  1  0.89012709  0.15673750  0.66047638  1  0  0.110504  0  0.965684  0  0  0.117356  0  1.03102  0  0  0.12021  0  1.029484  0  0  0.123108  0.115214  0  1.032449  0
H  H23  1  0.84326104  0.10987154  0.83952222  1  0  0.110559  0  0.965627  0  0  0.117428  0  1.03093  0  0  0.120285  0  1.02939  0  0  0.123114  0.115276  0  1.032371  0
H  H24  1  0.91892538  0.64140550  0.49530262  1  0  0.101021  0  0.981531  0  0  0.10981  0  1.045299  0  0  0.11184  0  1.045284  0  0  0.121259  0.107974  0  1.046085  0
H  H25  1  0.35859587  0.08107481  0.00469674  1  0  0.101016  0  0.981507  0  0  0.10978  0  1.045312  0  0  0.111809  0  1.045296  0  0  0.121238  0.107944  0  1.046099  0
H  H26  1  0.08107517  0.35859505  0.50469615  1  0  0.10103  0  0.981503  0  0  0.109813  0  1.045282  0  0  0.111843  0  1.045267  0  0  0.121248  0.107976  0  1.046069  0
H  H27  1  0.64140728  0.91892451  0.99530364  1  0  0.101054  0  0.981473  0  0  0.109819  0  1.045274  0  0  0.111848  0  1.045261  0  0  0.121261  0.107983  0  1.046061  0
C  C28  1  0.26336663  0.38985825  0.29577726  1  0  0.021273  0  3.672424  0  0  -0.014682  0  3.93921  0  0  -0.011774  0  3.95589  0  0  0.020985  -0.016401  0  3.92797  0
C  C29  1  0.61014155  0.73663136  0.20422293  1  0  0.021285  0  3.672331  0  0  -0.014632  0  3.93911  0  0  -0.011726  0  3.955789  0  0  0.021022  -0.016354  0  3.927873  0
C  C30  1  0.73663346  0.61014352  0.70422468  1  0  0.02127  0  3.67235  0  0  -0.014644  0  3.939119  0  0  -0.011736  0  3.9558  0  0  0.021013  -0.016356  0  3.927875  0
C  C31  1  0.38985733  0.26336796  0.79577657  1  0  0.02128  0  3.672326  0  0  -0.014656  0  3.939107  0  0  -0.011746  0  3.955785  0  0  0.021002  -0.016368  0  3.927861  0
C  C32  1  0.21896437  0.50965705  0.31475596  1  0  0.010705  0  3.698587  0  0  -0.019495  0  3.969022  0  0  -0.018207  0  3.984951  0  0  0.014704  -0.020328  0  3.957714  0
C  C33  1  0.49034485  0.78103597  0.18524437  1  0  0.010642  0  3.698701  0  0  -0.019556  0  3.969132  0  0  -0.018265  0  3.985054  0  0  0.014663  -0.020389  0  3.957828  0
C  C34  1  0.78103893  0.49034473  0.68524526  1  0  0.010581  0  3.698649  0  0  -0.019647  0  3.969081  0  0  -0.018362  0  3.985013  0  0  0.014614  -0.020479  0  3.957771  0
C  C35  1  0.50965449  0.21896212  0.81475432  1  0  0.010651  0  3.698553  0  0  -0.019581  0  3.968999  0  0  -0.018294  0  3.984932  0  0  0.014653  -0.020413  0  3.957692  0
C  C36  1  0.16873405  0.85211104  0.61811410  1  0  0.002044  0  3.723382  0  0  -0.029697  0  3.98792  0  0  -0.026961  0  4.004342  0  0  0.018226  -0.031743  0  3.977552  0
C  C37  1  0.14789008  0.83126596  0.88188658  1  0  0.00202  0  3.723508  0  0  -0.029724  0  3.988041  0  0  -0.02699  0  4.004462  0  0  0.018237  -0.031773  0  3.977673  0
C  C38  1  0.83126543  0.14788951  0.38188623  1  0  0.002126  0  3.723375  0  0  -0.029617  0  3.987914  0  0  -0.026879  0  4.004332  0  0  0.018258  -0.031663  0  3.977544  0
C  C39  1  0.85211047  0.16873459  0.11811219  1  0  0.001981  0  3.723531  0  0  -0.029771  0  3.988082  0  0  -0.027037  0  4.004504  0  0  0.018233  -0.031819  0  3.977712  0
C  C40  1  0.13404948  0.97323373  0.58638055  1  0  -0.001838  0  3.721154  0  0  -0.030706  0  3.986515  0  0  -0.030023  0  4.00292  0  0  0.011561  -0.03119  0  3.975377  0
C  C41  1  0.02676798  0.86594900  0.91362016  1  0  -0.001748  0  3.721272  0  0  -0.03061  0  3.986654  0  0  -0.029925  0  4.003056  0  0  0.011577  -0.031095  0  3.975513  0
C  C42  1  0.86595001  0.02676682  0.41361978  1  0  -0.001871  0  3.721112  0  0  -0.030732  0  3.986493  0  0  -0.03005  0  4.002897  0  0  0.011533  -0.031217  0  3.975354  0
C  C43  1  0.97323197  0.13405032  0.08638015  1  0  -0.001815  0  3.72128  0  0  -0.030674  0  3.986655  0  0  -0.029992  0  4.003059  0  0  0.011548  -0.03116  0  3.975515  0
C  C44  1  0.99769683  0.72551622  0.33248114  1  0  -0.000702  0  3.701812  0  0  -0.029724  0  3.968627  0  0  -0.029063  0  3.984707  0  0  0.012493  -0.030148  0  3.958021  0
C  C45  1  0.27448262  0.00230239  0.16751893  1  0  -0.000564  0  3.701768  0  0  -0.029587  0  3.968561  0  0  -0.028927  0  3.984643  0  0  0.012537  -0.030009  0  3.957951  0
C  C46  1  0.00230251  0.27448188  0.66751755  1  0  -0.000558  0  3.701853  0  0  -0.029567  0  3.968661  0  0  -0.028905  0  3.984741  0  0  0.012534  -0.03  0  3.958048  0
C  C47  1  0.72551626  0.99769693  0.83248057  1  0  -0.000693  0  3.701806  0  0  -0.029716  0  3.968612  0  0  -0.029053  0  3.984692  0  0  0.012502  -0.030139  0  3.958004  0
C  C48  1  0.90349431  0.62457480  0.41020879  1  0  0.020592  0  3.691446  0  0  -0.015963  0  3.955407  0  0  -0.012809  0  3.972299  0  0  0.021108  -0.017656  0  3.943789  0
C  C49  1  0.37542773  0.09650651  0.08979061  1  0  0.020535  0  3.691453  0  0  -0.01601  0  3.955443  0  0  -0.012853  0  3.972332  0  0  0.021097  -0.017703  0  3.943822  0
C  C50  1  0.09650624  0.37542574  0.58978998  1  0  0.020553  0  3.691437  0  0  -0.015998  0  3.955393  0  0  -0.012845  0  3.972285  0  0  0.021104  -0.017691  0  3.943778  0
C  C51  1  0.62457435  0.90349281  0.91020896  1  0  0.020602  0  3.691389  0  0  -0.015934  0  3.955348  0  0  -0.012781  0  3.97224  0  0  0.021121  -0.017626  0  3.943728  0
N  N52  1  0.37894305  0.41183668  0.37125394  1  0  -0.307792  0  3.242851  0  0  -0.254808  0  3.529893  0  0  -0.266795  0  3.549589  0  0  -0.305871  -0.246414  0  3.516214  0
N  N53  1  0.58816501  0.62105733  0.12874631  1  0  -0.307724  0  3.242795  0  0  -0.254733  0  3.529814  0  0  -0.266718  0  3.549512  0  0  -0.305848  -0.246333  0  3.516122  0
N  N54  1  0.62105811  0.58816509  0.62874723  1  0  -0.307709  0  3.242727  0  0  -0.25471  0  3.529721  0  0  -0.266698  0  3.549418  0  0  -0.305839  -0.246325  0  3.516066  0
N  N55  1  0.41183494  0.37894199  0.87125321  1  0  -0.307757  0  3.242829  0  0  -0.254762  0  3.529833  0  0  -0.266751  0  3.549529  0  0  -0.305877  -0.246375  0  3.516168  0
N  N56  1  0.40450464  0.54092658  0.43282324  1  0  -0.219547  0  3.340739  0  0  -0.169532  0  3.618787  0  0  -0.178502  0  3.642037  0  0  -0.262925  -0.163003  0  3.602584  0
N  N57  1  0.45907379  0.59549594  0.06717702  1  0  -0.219677  0  3.340817  0  0  -0.169672  0  3.618883  0  0  -0.178646  0  3.642134  0  0  -0.262957  -0.163145  0  3.602681  0
N  N58  1  0.59549698  0.45907397  0.56717792  1  0  -0.219617  0  3.340817  0  0  -0.169613  0  3.618879  0  0  -0.178583  0  3.642129  0  0  -0.262923  -0.163085  0  3.602677  0
N  N59  1  0.54092555  0.40450216  0.93282247  1  0  -0.219595  0  3.340827  0  0  -0.169589  0  3.618881  0  0  -0.178557  0  3.642129  0  0  -0.262908  -0.16306  0  3.60268  0
N  N60  1  0.30967723  0.60220685  0.40101927  1  0  -0.309863  0  3.158323  0  0  -0.26315  0  3.433646  0  0  -0.273064  0  3.452931  0  0  -0.298515  -0.256366  0  3.420741  0
N  N61  1  0.39779349  0.69032205  0.09898179  1  0  -0.309812  0  3.158356  0  0  -0.263098  0  3.433677  0  0  -0.27301  0  3.452962  0  0  -0.298501  -0.256317  0  3.420772  0
N  N62  1  0.69032286  0.39779492  0.59898189  1  0  -0.309841  0  3.158386  0  0  -0.263131  0  3.433726  0  0  -0.273042  0  3.453009  0  0  -0.298527  -0.256348  0  3.420821  0
N  N63  1  0.60220478  0.30967604  0.90101766  1  0  -0.309834  0  3.158265  0  0  -0.263121  0  3.433597  0  0  -0.273031  0  3.452881  0  0  -0.298523  -0.256338  0  3.420693  0
N  N64  1  0.31534517  0.88619988  0.58037185  1  0  -0.300793  0  3.237809  0  0  -0.249325  0  3.523876  0  0  -0.260771  0  3.542513  0  0  -0.303958  -0.24098  0  3.511311  0
N  N65  1  0.11380110  0.68465453  0.91962879  1  0  -0.300825  0  3.237854  0  0  -0.249358  0  3.523927  0  0  -0.260806  0  3.542573  0  0  -0.303983  -0.241013  0  3.51136  0
N  N66  1  0.68465432  0.11380067  0.41962926  1  0  -0.300837  0  3.237832  0  0  -0.24937  0  3.523904  0  0  -0.260822  0  3.542554  0  0  -0.30398  -0.241025  0  3.511336  0
N  N67  1  0.88619885  0.31534480  0.08037152  1  0  -0.300741  0  3.237824  0  0  -0.249268  0  3.523883  0  0  -0.260711  0  3.542517  0  0  -0.303974  -0.240922  0  3.511314  0
N  N68  1  0.36763094  0.02308235  0.52796534  1  0  -0.213692  0  3.323075  0  0  -0.166729  0  3.606902  0  0  -0.175269  0  3.628301  0  0  -0.255045  -0.16024  0  3.591758  0
N  N69  1  0.97691877  0.63236911  0.97203504  1  0  -0.213653  0  3.323116  0  0  -0.166687  0  3.60694  0  0  -0.175226  0  3.628338  0  0  -0.255017  -0.160198  0  3.591796  0
N  N70  1  0.63236962  0.97691819  0.47203501  1  0  -0.213686  0  3.32318  0  0  -0.166724  0  3.607007  0  0  -0.175264  0  3.628405  0  0  -0.255021  -0.160234  0  3.591861  0
N  N71  1  0.02308117  0.36763021  0.02796527  1  0  -0.213697  0  3.323137  0  0  -0.166738  0  3.606967  0  0  -0.175278  0  3.628364  0  0  -0.255007  -0.160249  0  3.59182  0
N  N72  1  0.26094541  0.07829594  0.52998239  1  0  -0.310174  0  3.145471  0  0  -0.267187  0  3.426126  0  0  -0.276073  0  3.443904  0  0  -0.293733  -0.260759  0  3.414308  0
N  N73  1  0.92170422  0.73905426  0.97001722  1  0  -0.310217  0  3.145554  0  0  -0.267234  0  3.426208  0  0  -0.276118  0  3.443982  0  0  -0.293766  -0.260807  0  3.41439  0
N  N74  1  0.73905347  0.92170338  0.47001710  1  0  -0.310129  0  3.145445  0  0  -0.267139  0  3.426094  0  0  -0.276025  0  3.443872  0  0  -0.293718  -0.260711  0  3.414278  0
N  N75  1  0.07829465  0.26094506  0.02998228  1  0  -0.310164  0  3.14557  0  0  -0.26718  0  3.426222  0  0  -0.276065  0  3.443999  0  0  -0.293745  -0.260751  0  3.414402  0
N  N76  1  0.92576919  0.64773721  0.23786912  1  0  -0.319193  0  3.144056  0  0  -0.272764  0  3.420583  0  0  -0.281778  0  3.437696  0  0  -0.293266  -0.266567  0  3.409636  0
N  N77  1  0.35226110  0.07423014  0.26213015  1  0  -0.319221  0  3.144101  0  0  -0.272801  0  3.42064  0  0  -0.281815  0  3.437752  0  0  -0.293287  -0.266605  0  3.409693  0
N  N78  1  0.07422908  0.35226088  0.76212955  1  0  -0.319251  0  3.144129  0  0  -0.272827  0  3.42066  0  0  -0.281842  0  3.437771  0  0  -0.293286  -0.266632  0  3.409716  0
N  N79  1  0.64773732  0.92577041  0.73786937  1  0  -0.31918  0  3.144076  0  0  -0.27275  0  3.420599  0  0  -0.281765  0  3.437713  0  0  -0.293268  -0.266555  0  3.409654  0
N  N80  1  0.79408822  0.50562051  0.25789769  1  0  -0.209807  0  3.315571  0  0  -0.161935  0  3.595019  0  0  -0.170265  0  3.61687  0  0  -0.254618  -0.156217  0  3.580346  0
N  N81  1  0.49438036  0.20591079  0.24210163  1  0  -0.209821  0  3.315528  0  0  -0.161953  0  3.594977  0  0  -0.170282  0  3.616827  0  0  -0.254627  -0.156234  0  3.580304  0
N  N82  1  0.20591066  0.49437881  0.74210181  1  0  -0.209765  0  3.315553  0  0  -0.161891  0  3.595002  0  0  -0.170223  0  3.616855  0  0  -0.254619  -0.156173  0  3.580329  0
N  N83  1  0.50561959  0.79408853  0.75789789  1  0  -0.209843  0  3.315566  0  0  -0.161975  0  3.59502  0  0  -0.170306  0  3.616873  0  0  -0.254644  -0.156256  0  3.580348  0
N  N84  1  0.77684235  0.48822384  0.36160589  1  0  -0.298423  0  3.219843  0  0  -0.243009  0  3.500332  0  0  -0.254754  0  3.519717  0  0  -0.300891  -0.234325  0  3.48637  0
N  N85  1  0.51177652  0.22315774  0.13839344  1  0  -0.298416  0  3.219909  0  0  -0.242997  0  3.500389  0  0  -0.254742  0  3.519777  0  0  -0.300887  -0.234315  0  3.486426  0
N  N86  1  0.22315714  0.51177671  0.63839365  1  0  -0.298466  0  3.219889  0  0  -0.243055  0  3.500387  0  0  -0.254802  0  3.519774  0  0  -0.300897  -0.234371  0  3.486424  0
N  N87  1  0.48822343  0.77684158  0.86160687  1  0  -0.298436  0  3.219839  0  0  -0.243019  0  3.500321  0  0  -0.254765  0  3.519706  0  0  -0.300894  -0.234336  0  3.486358  0
