# generated using pymatgen
data_NbNiH8C8N4(OF2)2
_symmetry_space_group_name_H-M   'P 1'
_cell_length_a   9.74326467
_cell_length_b   9.74379545
_cell_length_c   10.01084857
_cell_angle_alpha   117.95043621
_cell_angle_beta   117.94856016
_cell_angle_gamma   92.11550677
_symmetry_Int_Tables_number   1
_chemical_formula_structural   NbNiH8C8N4(OF2)2
_chemical_formula_sum   'Nb2 Ni2 H16 C16 N8 O4 F8'
_cell_volume   700.37808537
_cell_formula_units_Z   2
loop_
 _symmetry_equiv_pos_site_id
 _symmetry_equiv_pos_as_xyz
  1  'x, y, z'
loop_
 _atom_site_type_symbol
 _atom_site_label
 _atom_site_symmetry_multiplicity
 _atom_site_fract_x
 _atom_site_fract_y
 _atom_site_fract_z
 _atom_site_occupancy
 _atom_site_pbe_bader_charge
 _atom_site_pbe_bader_spin_density
 _atom_site_pbe_cm5_charge
 _atom_site_pbe_ddec_charge
 _atom_site_pbe_ddec_spin_density
 _atom_site_pbe_ddec_sum_bond_order
 _atom_site_pbe_magmom
Nb  Nb0  1  0.00002286  0.99997559  0.99997404  1  2.820113  -0.005665  1.561202  2.390251  -0.009479  3.966361  -0.006
Nb  Nb1  1  0.50002816  0.49997780  0.00002917  1  2.82032  -0.005666  1.561247  2.390322  -0.009478  3.966201  -0.006
Ni  Ni2  1  0.24997743  0.25003098  0.50000767  1  1.261425  0.710908  0.792792  0.890525  0.847672  3.07622  0.698
Ni  Ni3  1  0.75004491  0.74995550  0.49999826  1  1.264427  0.717387  0.79007  0.888553  0.855794  3.074233  0.705
H  H4  1  0.60475906  0.45233964  0.74381604  1  0.222827  0.001423  0.128757  0.126483  0.000596  1.035967  0.001
H  H5  1  0.13874142  0.29152370  0.74386466  1  0.238929  0.001403  0.128629  0.126788  0.000594  1.033716  0.001
H  H6  1  0.28863197  0.60945672  0.74749079  1  0.193704  0.00368  0.125597  0.121559  0.001623  1.030339  0.003
H  H7  1  0.45895861  0.13795019  0.74748643  1  0.221127  0.003652  0.125626  0.121571  0.001619  1.030385  0.003
H  H8  1  0.89052190  0.21137124  0.25251681  1  0.193699  0.003679  0.125542  0.121451  0.001622  1.030505  0.003
H  H9  1  0.36207178  0.04104269  0.25251393  1  0.220748  0.003653  0.125578  0.121493  0.001619  1.030287  0.003
H  H10  1  0.20845492  0.36126328  0.25613445  1  0.240603  0.0014  0.128577  0.126731  0.000594  1.033573  0.001
H  H11  1  0.04766508  0.89523167  0.25616736  1  0.222584  0.001423  0.128741  0.126468  0.000596  1.036001  0.001
H  H12  1  0.39432283  0.54672039  0.25624526  1  0.231279  0.001485  0.128663  0.126345  0.000626  1.034808  0.001
H  H13  1  0.86188717  0.70955814  0.25590432  1  0.240356  0.001472  0.128647  0.1264  0.000625  1.03298  0.001
H  H14  1  0.71069799  0.39107760  0.25260807  1  0.212428  0.00361  0.125621  0.121281  0.0016  1.03193  0.003
H  H15  1  0.54198939  0.86146445  0.25261146  1  0.217676  0.003611  0.125913  0.122058  0.001598  1.032177  0.003
H  H16  1  0.10894441  0.78930046  0.74740323  1  0.212531  0.00361  0.125585  0.121245  0.0016  1.031939  0.003
H  H17  1  0.63852134  0.95802117  0.74738593  1  0.217123  0.003612  0.125863  0.121906  0.001598  1.032176  0.003
H  H18  1  0.79043979  0.63812001  0.74409454  1  0.240372  0.001472  0.128672  0.126435  0.000625  1.032948  0.001
H  H19  1  0.95328019  0.10566807  0.74375784  1  0.23113  0.001485  0.128707  0.126357  0.000626  1.034776  0.001
C  C20  1  0.55777014  0.47195311  0.63381250  1  0.481046  0.00087  0.074949  0.062105  0.000185  3.820539  0.001
C  C21  1  0.07571053  0.16193339  0.63373295  1  0.46745  0.000884  0.07536  0.061695  0.000183  3.821028  0.001
C  C22  1  0.15978601  0.56096499  0.63605046  1  0.446473  0.005061  0.070041  0.059692  0.002904  3.841587  0.004
C  C23  1  0.47632973  0.07499379  0.63602595  1  0.424171  0.005104  0.069981  0.059621  0.002918  3.840272  0.004
C  C24  1  0.93902345  0.34020766  0.36396256  1  0.446505  0.00506  0.070127  0.059849  0.002905  3.841633  0.004
C  C25  1  0.42501871  0.02367234  0.36397024  1  0.424571  0.005103  0.070104  0.059862  0.002918  3.840001  0.004
C  C26  1  0.33804972  0.42428952  0.36626299  1  0.465566  0.000887  0.075454  0.061946  0.000184  3.82093  0.001
C  C27  1  0.02805433  0.94222715  0.36617888  1  0.481477  0.00087  0.074898  0.062001  0.000186  3.820555  0.001
C  C28  1  0.44125895  0.52724676  0.36637580  1  0.450098  0.000618  0.074227  0.061762  -4.6e-05  3.824049  0.001
C  C29  1  0.92499903  0.83915894  0.36607430  1  0.435358  0.000632  0.073824  0.061401  -4.1e-05  3.821403  0.001
C  C30  1  0.83957265  0.43958088  0.36397758  1  0.534452  0.004909  0.070568  0.060209  0.003051  3.840525  0.004
C  C31  1  0.52448564  0.92430797  0.36397978  1  0.500007  0.004995  0.069677  0.058231  0.003036  3.841908  0.004
C  C32  1  0.06042584  0.66042888  0.63603829  1  0.534496  0.004908  0.070622  0.060281  0.00305  3.840691  0.004
C  C33  1  0.57568369  0.97551874  0.63601745  1  0.500703  0.004993  0.069779  0.058512  0.003035  3.841936  0.004
C  C34  1  0.66083547  0.57501589  0.63392257  1  0.435725  0.000631  0.073835  0.06143  -4.1e-05  3.821387  0.001
C  C35  1  0.97275540  0.05872265  0.63362049  1  0.449656  0.000617  0.074174  0.061865  -4.8e-05  3.823993  0.001
N  N36  1  0.39747912  0.39768051  0.49998684  1  -1.175  0.038605  -0.292738  -0.129946  0.023357  3.568587  0.034
N  N37  1  0.10231956  0.10251388  0.50000632  1  -1.175086  0.038605  -0.292707  -0.129722  0.023356  3.568569  0.034
N  N38  1  0.09800346  0.40198679  0.50000665  1  -1.222628  0.1004  -0.285597  -0.161576  0.059646  3.522143  0.087
N  N39  1  0.40206419  0.09795538  0.50000212  1  -1.227101  0.099951  -0.285288  -0.161058  0.059398  3.517575  0.087
N  N40  1  0.60153590  0.60154855  0.50016007  1  -1.173038  0.044521  -0.290213  -0.132076  0.026918  3.563389  0.039
N  N41  1  0.89845854  0.89845194  0.49983526  1  -1.172328  0.044521  -0.290115  -0.132048  0.026919  3.563477  0.039
N  N42  1  0.90139305  0.59861605  0.50000675  1  -1.225726  0.09592  -0.286061  -0.160037  0.057017  3.523034  0.083
N  N43  1  0.59869620  0.90129897  0.49999913  1  -1.172868  0.095752  -0.285096  -0.157983  0.057042  3.522136  0.083
O  O44  1  0.12733863  0.12734029  0.25464842  1  -1.002933  -0.015625  -0.622314  -0.96095  -0.014854  2.236946  -0.012
O  O45  1  0.37266679  0.37266835  0.74535873  1  -1.003006  -0.01562  -0.622323  -0.960947  -0.014848  2.237047  -0.012
O  O46  1  0.87273347  0.87264156  0.74529871  1  -1.002921  -0.01692  -0.622299  -0.960154  -0.01617  2.236999  -0.014
O  O47  1  0.62735654  0.62726435  0.25470061  1  -1.002962  -0.016919  -0.622354  -0.960223  -0.016168  2.237033  -0.014
F  F48  1  0.99611606  0.20254625  0.99987149  1  -0.70607  0.000206  -0.386445  -0.562701  0.00011  0.925192  0.0
F  F49  1  0.00387270  0.79732700  0.99993234  1  -0.706705  0.000207  -0.386273  -0.562592  0.000111  0.925218  0.0
F  F50  1  0.79742962  0.98923152  0.99998901  1  -0.704923  0.000554  -0.38875  -0.564354  0.000325  0.924094  0.0
F  F51  1  0.20267259  0.01075488  0.00009436  1  -0.704972  0.00055  -0.388832  -0.564338  0.000323  0.92399  0.0
F  F52  1  0.51074660  0.70255715  0.00001540  1  -0.705084  0.000554  -0.38873  -0.564363  0.000325  0.924238  0.0
F  F53  1  0.48928327  0.29733356  0.99990115  1  -0.704977  0.00055  -0.388781  -0.564338  0.000324  0.923999  0.0
F  F54  1  0.70269062  0.49616652  0.00005992  1  -0.70672  0.000208  -0.386298  -0.562582  0.000111  0.925046  0.0
F  F55  1  0.29743162  0.50384525  0.00011176  1  -0.706113  0.000205  -0.386435  -0.562695  0.00011  0.925173  0.0
