# generated using pymatgen
data_CuH22C12S2(NO)6
_symmetry_space_group_name_H-M   'P 1'
_cell_length_a   6.57999616
_cell_length_b   6.77404911
_cell_length_c   12.25781811
_cell_angle_alpha   105.75860788
_cell_angle_beta   92.82558929
_cell_angle_gamma   112.32113956
_symmetry_Int_Tables_number   1
_chemical_formula_structural   CuH22C12S2(NO)6
_chemical_formula_sum   'Cu1 H22 C12 S2 N6 O6'
_cell_volume   479.24995577
_cell_formula_units_Z   1
loop_
 _symmetry_equiv_pos_site_id
 _symmetry_equiv_pos_as_xyz
  1  'x, y, z'
loop_
 _atom_site_type_symbol
 _atom_site_label
 _atom_site_symmetry_multiplicity
 _atom_site_fract_x
 _atom_site_fract_y
 _atom_site_fract_z
 _atom_site_occupancy
 _atom_site_hle17_ddec_charge
 _atom_site_hle17_ddec_spin_density
 _atom_site_hle17_ddec_sum_bond_order
 _atom_site_hle17_magmom
 _atom_site_hse06_10hf_ddec_charge
 _atom_site_hse06_10hf_ddec_spin_density
 _atom_site_hse06_10hf_ddec_sum_bond_order
 _atom_site_hse06_10hf_magmom
 _atom_site_hse06_ddec_charge
 _atom_site_hse06_ddec_spin_density
 _atom_site_hse06_ddec_sum_bond_order
 _atom_site_hse06_magmom
 _atom_site_pbe_cm5_charge
 _atom_site_pbe_ddec_charge
 _atom_site_pbe_ddec_spin_density
 _atom_site_pbe_ddec_sum_bond_order
 _atom_site_pbe_magmom
Cu  Cu0  1  0.00000509  0.50000503  0.50000021  1  0.893292  0.666749  1.700322  0.502  0.877453  0.756195  2.079894  0.607  0.949005  0.8095  2.025704  0.676  0.713178  0.833483  0.721627  2.117742  0.565
H  H1  1  0.87433776  0.57180465  0.03154137  1  0.0961  4e-06  0.999918  0.0  0.101798  -7e-06  1.074824  0.0  0.104802  -4e-06  1.073384  0.0  0.102478  0.099569  -7e-06  1.076128  0.0
H  H2  1  0.12565436  0.42819385  0.96845649  1  0.096087  -5e-06  0.99999  0.0  0.101794  -7e-06  1.074869  0.0  0.104797  -4e-06  1.073432  0.0  0.102481  0.099564  -7e-06  1.076173  0.0
H  H3  1  0.94803737  0.33146318  0.14133700  1  0.10627  3.9e-05  0.960045  0.0  0.115157  2.2e-05  1.021017  0.0  0.118471  2.9e-05  1.018339  0.0  0.105001  0.112676  1.6e-05  1.023059  0.0
H  H4  1  0.05195253  0.66852686  0.85865956  1  0.106278  3.8e-05  0.960029  0.0  0.115129  2.2e-05  1.021056  0.0  0.11844  2.9e-05  1.018378  0.0  0.104978  0.112646  1.6e-05  1.023099  0.0
H  H5  1  0.62334497  0.05853487  0.19577651  1  0.116551  -1.9e-05  0.935756  0.0  0.126262  -2.9e-05  0.994324  0.0  0.130095  -2.3e-05  0.992864  0.0  0.107427  0.123512  -3.3e-05  0.995515  0.0
H  H6  1  0.37664272  0.94146387  0.80422293  1  0.116552  -2.4e-05  0.935698  0.0  0.126211  -3e-05  0.99433  0.0  0.130043  -2.3e-05  0.992871  0.0  0.107402  0.123465  -3.3e-05  0.995521  0.0
H  H7  1  0.20677777  0.83839440  0.14875131  1  0.138604  -6e-06  0.920752  0.0  0.153524  -3e-05  0.973693  0.0  0.156103  -2.5e-05  0.972926  0.0  0.11365  0.151735  -3.3e-05  0.974322  0.0
H  H8  1  0.79321730  0.16160396  0.85124576  1  0.138608  -7e-06  0.920717  0.0  0.15354  -2.9e-05  0.973664  0.0  0.15612  -2.5e-05  0.972897  0.0  0.113667  0.151755  -3.3e-05  0.97429  0.0
H  H9  1  0.03306302  0.94910813  0.09140238  1  0.147299  2.2e-05  0.932507  0.0  0.152783  5e-06  1.004118  0.0  0.156405  5e-06  1.001218  0.0  0.114068  0.15017  5e-06  1.006349  0.0
H  H10  1  0.96692629  0.05088718  0.90859985  1  0.147378  1.5e-05  0.932427  0.0  0.152807  5e-06  1.004116  0.0  0.15643  5e-06  1.001218  0.0  0.1141  0.150197  5e-06  1.006347  0.0
H  H11  1  0.23197210  0.85810798  0.44168471  1  0.341689  -0.000976  0.901174  -0.001  0.330772  0.000323  0.958746  0.0  0.338309  5.9e-05  0.953407  0.0  0.288059  0.325466  0.000513  0.962649  0.001
H  H12  1  0.76803732  0.14190186  0.55832005  1  0.341695  -0.000974  0.901121  -0.001  0.33078  0.000324  0.958702  0.0  0.338319  5.9e-05  0.953359  0.0  0.288067  0.325476  0.000513  0.962606  0.001
H  H13  1  0.38774452  0.83202752  0.54287384  1  0.347593  -0.000791  0.914668  -0.001  0.338222  0.000562  0.968216  0.0  0.34548  0.00021  0.963207  0.0  0.289103  0.333135  0.000826  0.971873  0.0
H  H14  1  0.61226492  0.16798234  0.45713174  1  0.347537  -0.00079  0.91478  -0.001  0.33825  0.000561  0.968206  0.0  0.345508  0.00021  0.963194  0.0  0.289089  0.33316  0.000826  0.971867  0.0
H  H15  1  0.19088636  0.92217113  0.57664612  1  0.337536  -0.001354  0.924363  -0.002  0.323511  8.2e-05  0.988465  0.0  0.331098  -0.000232  0.98306  -0.001  0.281788  0.318166  0.000328  0.992363  0.0
H  H16  1  0.80912008  0.07783542  0.42335810  1  0.337565  -0.001351  0.924363  -0.002  0.32353  8.2e-05  0.988483  0.0  0.331117  -0.000232  0.983078  -0.001  0.281797  0.318186  0.000328  0.992381  0.0
H  H17  1  0.28921380  0.34130271  0.52228161  1  0.332846  -0.001401  0.912581  -0.002  0.321035  0.000188  0.972582  0.0  0.32843  -0.000149  0.967428  -0.001  0.284236  0.31579  0.000453  0.976411  0.0
H  H18  1  0.71079178  0.65869865  0.47771774  1  0.332874  -0.001389  0.912574  -0.002  0.321051  0.000188  0.972588  0.0  0.328446  -0.00015  0.967435  -0.001  0.284237  0.315805  0.000453  0.976419  0.0
H  H19  1  0.17204712  0.34455578  0.63873221  1  0.349763  -0.000866  0.900652  -0.001  0.339387  0.00043  0.956384  0.0  0.346295  0.000122  0.952166  0.0  0.287565  0.334539  0.000658  0.959431  0.0
H  H20  1  0.82796520  0.65545388  0.36127013  1  0.349736  -0.000862  0.900691  -0.001  0.339367  0.00043  0.956413  0.0  0.346274  0.000121  0.952195  0.0  0.287563  0.334518  0.000658  0.959459  0.0
H  H21  1  0.37007665  0.57865864  0.62913254  1  0.334465  -0.000901  0.915428  -0.001  0.320346  0.000503  0.980379  0.0  0.326882  0.000165  0.976959  0.0  0.284538  0.31575  0.000754  0.982907  0.0
H  H22  1  0.62993709  0.42134748  0.37086686  1  0.334517  -0.000893  0.915419  -0.001  0.320371  0.000502  0.980396  0.0  0.326907  0.000165  0.976978  0.0  0.284563  0.315775  0.000754  0.982922  0.0
C  C23  1  0.52291642  0.42958030  0.03173082  1  0.181394  1.3e-05  3.774758  0.0  0.183418  7e-06  4.015334  0.0  0.189658  -6e-06  4.03381  0.0  0.117319  0.179264  1.8e-05  4.002726  0.0
C  C24  1  0.47707346  0.57041659  0.96826676  1  0.181371  -1e-05  3.774784  0.0  0.183324  5e-06  4.015419  0.0  0.189566  -2e-06  4.033894  0.0  0.117238  0.179171  1.8e-05  4.002808  0.0
C  C25  1  0.74106031  0.45097017  0.05847574  1  -0.143373  -4.6e-05  3.721178  0.0  -0.168166  -5e-06  3.972069  0.0  -0.173578  -9e-06  3.991657  0.0  -0.087244  -0.164712  -7e-06  3.959065  0.0
C  C26  1  0.25893559  0.54902992  0.94152405  1  -0.143315  1.1e-05  3.721299  0.0  -0.168092  -1e-06  3.972193  0.0  -0.173508  -1.5e-05  3.991781  0.0  -0.087243  -0.164636  -7e-06  3.959185  0.0
C  C27  1  0.78010680  0.31819327  0.11840622  1  -0.001573  0.0  3.723156  0.0  -0.015152  5e-06  3.970575  0.0  -0.012653  -0.0  3.988813  0.0  -0.073897  -0.016525  1.2e-05  3.958189  0.0
C  C28  1  0.21987932  0.68180206  0.88159023  1  -0.001585  1e-06  3.7231  0.0  -0.015141  3e-06  3.970495  0.0  -0.012637  2e-06  3.988726  0.0  -0.073837  -0.016512  1.2e-05  3.958111  0.0
C  C29  1  0.59959779  0.16705898  0.14973681  1  -0.161078  3.5e-05  3.683858  0.0  -0.181842  1e-06  3.934333  0.0  -0.188182  -1e-05  3.955046  0.0  -0.088225  -0.177788  1.2e-05  3.920485  0.0
C  C30  1  0.40039583  0.83293604  0.85026056  1  -0.161173  3e-05  3.683859  0.0  -0.181874  2e-06  3.934375  0.0  -0.188211  -1.3e-05  3.955085  0.0  -0.088274  -0.177822  1.2e-05  3.920531  0.0
C  C31  1  0.38591306  0.15440653  0.11907937  1  0.271995  6.2e-05  3.785987  0.0  0.276884  7.4e-05  4.037563  0.0  0.284003  5.8e-05  4.058216  0.0  0.111173  0.272115  8.4e-05  4.023562  0.0
C  C32  1  0.61407606  0.84558524  0.88091662  1  0.272089  6.7e-05  3.785785  0.0  0.276907  7.2e-05  4.037476  0.0  0.284025  6e-05  4.058121  0.0  0.111191  0.272138  8.4e-05  4.023478  0.0
C  C33  1  0.18660586  0.99226391  0.14961990  1  -0.385288  -0.000279  3.642057  0.0  -0.427325  -0.000196  3.890487  0.0  -0.433176  -0.000168  3.895979  0.0  -0.152985  -0.423372  -0.000212  3.886936  0.0
C  C34  1  0.81338778  0.00773454  0.85037880  1  -0.385364  -0.000231  3.641923  0.0  -0.427341  -0.0002  3.890356  0.0  -0.433191  -0.000165  3.895847  0.0  -0.153052  -0.42339  -0.000212  3.886812  0.0
S  S35  1  0.14035844  0.10193336  0.29325570  1  1.330062  -0.000195  5.601933  0.0  1.24128  -0.000102  6.129215  0.0  1.285554  -0.000142  6.108124  0.0  0.502986  1.210922  -5.1e-05  6.142341  0.0
S  S36  1  0.85964568  0.89806465  0.70674395  1  1.329782  -0.0002  5.602326  0.0  1.240976  -9.8e-05  6.129652  0.0  1.28525  -0.000142  6.108566  0.0  0.50284  1.210619  -5.1e-05  6.142777  0.0
N  N37  1  0.34754131  0.28273279  0.06137367  1  -0.378151  3.7e-05  3.02549  0.0  -0.346098  4.8e-05  3.282383  0.0  -0.358377  4e-05  3.297106  0.0  -0.309903  -0.337504  5.9e-05  3.272233  0.0
N  N38  1  0.65245225  0.71725533  0.93862023  1  -0.378098  3.2e-05  3.025331  0.0  -0.345986  5e-05  3.282236  0.0  -0.358264  3.8e-05  3.296957  0.0  -0.309811  -0.337392  5.9e-05  3.272086  0.0
N  N39  1  0.22936396  0.81082820  0.51449498  1  -0.858552  0.086513  2.914858  0.11  -0.850762  0.059506  3.149945  0.077  -0.882588  0.047814  3.135434  0.067  -0.795783  -0.830239  0.066776  3.160682  0.082
N  N40  1  0.77064766  0.18918324  0.48550925  1  -0.858547  0.086506  2.914873  0.11  -0.850874  0.059505  3.149973  0.077  -0.882693  0.047814  3.135437  0.067  -0.795833  -0.83035  0.066776  3.160714  0.082
N  N41  1  0.23356511  0.43559602  0.58400801  1  -0.852586  0.087767  2.90922  0.112  -0.844497  0.061347  3.143251  0.079  -0.876491  0.049175  3.130895  0.069  -0.787104  -0.823858  0.068939  3.152526  0.085
N  N42  1  0.76644570  0.56441027  0.41599299  1  -0.85264  0.087744  2.909262  0.112  -0.844508  0.061349  3.143325  0.079  -0.876501  0.049177  3.130972  0.069  -0.787135  -0.823866  0.068941  3.152597  0.085
O  O43  1  0.12526919  0.31617092  0.30368027  1  -0.67702  -0.001609  1.934428  0.0  -0.635519  -0.001677  2.186281  0.0  -0.656613  -0.002005  2.171275  0.0  -0.347266  -0.620844  -0.001289  2.196277  0.0
O  O44  1  0.87472377  0.68382246  0.69631930  1  -0.676996  -0.001618  1.934572  0.0  -0.635478  -0.001676  2.18642  0.0  -0.656574  -0.002007  2.17142  0.0  -0.347256  -0.6208  -0.001289  2.196414  0.0
O  O45  1  0.33631909  0.13098024  0.37204197  1  -0.731473  0.000739  1.980938  0.001  -0.663524  0.000828  2.21065  0.001  -0.683903  0.000457  2.197159  0.0  -0.353782  -0.648971  0.001208  2.219458  0.001
O  O46  1  0.66369527  0.86902405  0.62795309  1  -0.731379  0.000745  1.980978  0.001  -0.663388  0.000825  2.210672  0.001  -0.683765  0.000456  2.197182  0.0  -0.353749  -0.648836  0.001208  2.21948  0.001
O  O47  1  0.93327834  0.92599385  0.30536562  1  -0.689706  -0.000182  1.930446  0.0  -0.630199  1.7e-05  2.159897  0.0  -0.650509  -0.000109  2.147868  0.0  -0.349749  -0.615722  0.000156  2.167573  0.0
O  O48  1  0.06673115  0.07400231  0.69463794  1  -0.689631  -0.000189  1.930691  0.0  -0.630104  2e-05  2.160132  0.0  -0.650416  -0.000109  2.148108  0.0  -0.349651  -0.615629  0.000156  2.16781  0.0
