# generated using pymatgen
data_KErH27C31NO9
_symmetry_space_group_name_H-M   'P 1'
_cell_length_a   7.20467243
_cell_length_b   10.94540687
_cell_length_c   19.83315391
_cell_angle_alpha   79.97740939
_cell_angle_beta   84.42687821
_cell_angle_gamma   79.29936351
_symmetry_Int_Tables_number   1
_chemical_formula_structural   KErH27C31NO9
_chemical_formula_sum   'K2 Er2 H54 C62 N2 O18'
_cell_volume   1509.95696680
_cell_formula_units_Z   2
loop_
 _symmetry_equiv_pos_site_id
 _symmetry_equiv_pos_as_xyz
  1  'x, y, z'
loop_
 _atom_site_type_symbol
 _atom_site_label
 _atom_site_symmetry_multiplicity
 _atom_site_fract_x
 _atom_site_fract_y
 _atom_site_fract_z
 _atom_site_occupancy
 _atom_site_hle17_bader_spin_density
 _atom_site_hle17_ddec_charge
 _atom_site_hle17_ddec_spin_density
 _atom_site_hle17_ddec_sum_bond_order
 _atom_site_hle17_magmom
 _atom_site_hse06_10hf_bader_spin_density
 _atom_site_hse06_10hf_ddec_charge
 _atom_site_hse06_10hf_ddec_spin_density
 _atom_site_hse06_10hf_ddec_sum_bond_order
 _atom_site_hse06_10hf_magmom
 _atom_site_hse06_bader_spin_density
 _atom_site_hse06_ddec_charge
 _atom_site_hse06_ddec_spin_density
 _atom_site_hse06_ddec_sum_bond_order
 _atom_site_hse06_magmom
 _atom_site_pbe_bader_spin_density
 _atom_site_pbe_cm5_charge
 _atom_site_pbe_ddec_charge
 _atom_site_pbe_ddec_spin_density
 _atom_site_pbe_ddec_sum_bond_order
 _atom_site_pbe_magmom
K  K0  1  0.18573386  0.58530500  0.77161673  1  0  0.936835  0  0.514931  0  0  0.885704  0  0.702622  0  0  0.902332  0  0.678952  0  0  0.845618  0.873123  0  0.719723  0
K  K1  1  0.81426543  0.41468754  0.22839059  1  0  0.936854  0  0.51489  0  0  0.885713  0  0.702543  0  0  0.902363  0  0.678853  0  0  0.845616  0.873138  0  0.719642  0
Er  Er2  1  0.72246939  0.46111351  0.76101923  1  0  2.153915  0  1.741178  0  0  1.98596  0  2.257012  0  0  2.040481  0  2.212684  0  0  1.459503  1.94628  0  2.289443  0
Er  Er3  1  0.27752535  0.53888563  0.23898309  1  0  2.153878  0  1.741219  0  0  1.985809  0  2.257238  0  0  2.040358  0  2.212838  0  0  1.459487  1.946119  0  2.289691  0
H  H4  1  0.35193934  0.85185852  0.65876238  1  0  0.111767  0  0.956575  0  0  0.118788  0  1.023015  0  0  0.123895  0  1.02008  0  0  0.107709  0.11519  0  1.025274  0
H  H5  1  0.64806476  0.14813686  0.34124096  1  0  0.111769  0  0.95657  0  0  0.118796  0  1.022995  0  0  0.123904  0  1.020056  0  0  0.107707  0.115197  0  1.02525  0
H  H6  1  0.42710404  0.02333373  0.57818396  1  0  0.077678  0  0.950065  0  0  0.089773  0  1.00993  0  0  0.091927  0  1.008987  0  0  0.100558  0.088136  0  1.010817  0
H  H7  1  0.57290521  0.97665790  0.42181703  1  0  0.077694  0  0.950046  0  0  0.089801  0  1.0099  0  0  0.091954  0  1.008958  0  0  0.100565  0.088156  0  1.010787  0
H  H8  1  0.71746764  0.05202158  0.52018799  1  0  0.074148  0  0.985316  0  0  0.081382  0  1.057263  0  0  0.083749  0  1.057924  0  0  0.092142  0.08016  0  1.056048  0
H  H9  1  0.28254418  0.94797099  0.47981534  1  0  0.074165  0  0.985279  0  0  0.081417  0  1.057208  0  0  0.083777  0  1.05788  0  0  0.092138  0.080191  0  1.056  0
H  H10  1  0.01173428  0.91384725  0.53088681  1  0  0.069335  0  0.978849  0  0  0.083067  0  1.040451  0  0  0.085115  0  1.038394  0  0  0.097332  0.081558  0  1.041845  0
H  H11  1  0.98828077  0.08614908  0.46912059  1  0  0.069329  0  0.978821  0  0  0.083067  0  1.040433  0  0  0.085115  0  1.038373  0  0  0.097305  0.081561  0  1.041825  0
H  H12  1  0.08579182  0.72211567  0.60272956  1  0  0.101971  0  0.948878  0  0  0.113874  0  1.008986  0  0  0.118056  0  1.006978  0  0  0.108651  0.110923  0  1.010633  0
H  H13  1  0.91421788  0.27787971  0.39727711  1  0  0.101923  0  0.949036  0  0  0.113838  0  1.009104  0  0  0.118031  0  1.007081  0  0  0.108625  0.110862  0  1.010778  0
H  H14  1  0.17208352  0.37536543  0.67352292  1  0  0.128461  0  0.95958  0  0  0.13261  0  1.028056  0  0  0.138161  0  1.02429  0  0  0.114094  0.128653  0  1.030847  0
H  H15  1  0.82791215  0.62464597  0.32647365  1  0  0.128464  0  0.959662  0  0  0.132643  0  1.028098  0  0  0.138199  0  1.024328  0  0  0.114115  0.128689  0  1.030882  0
H  H16  1  0.10779813  0.33510604  0.56848980  1  0  0.08275  0  0.961615  0  0  0.092889  0  1.023237  0  0  0.096503  0  1.019259  0  0  0.099995  0.090208  0  1.0262  0
H  H17  1  0.89219352  0.66491007  0.43150597  1  0  0.082866  0  0.961607  0  0  0.092955  0  1.023273  0  0  0.096566  0  1.019304  0  0  0.100038  0.090309  0  1.026194  0
H  H18  1  0.31466861  0.30508445  0.47040086  1  0  0.072925  0  1.000923  0  0  0.079628  0  1.070667  0  0  0.080568  0  1.074383  0  0  0.089366  0.078884  0  1.068329  0
H  H19  1  0.68532616  0.69492507  0.52959592  1  0  0.072985  0  1.000926  0  0  0.079661  0  1.070687  0  0  0.080602  0  1.074402  0  0  0.089401  0.078912  0  1.068344  0
H  H20  1  0.64063089  0.30947543  0.45758542  1  0  0.073218  0  0.956257  0  0  0.08437  0  1.018871  0  0  0.086852  0  1.01694  0  0  0.098288  0.082462  0  1.020443  0
H  H21  1  0.35936687  0.69052278  0.54241436  1  0  0.073196  0  0.956258  0  0  0.084346  0  1.018876  0  0  0.086845  0  1.016925  0  0  0.098274  0.082437  0  1.020449  0
H  H22  1  0.83978585  0.33978302  0.53687842  1  0  0.095235  0  0.96101  0  0  0.106952  0  1.021947  0  0  0.110486  0  1.020582  0  0  0.099435  0.104435  0  1.023051  0
H  H23  1  0.16021190  0.66021519  0.46312085  1  0  0.095189  0  0.961044  0  0  0.106944  0  1.021937  0  0  0.110482  0  1.020566  0  0  0.099431  0.104428  0  1.023047  0
H  H24  1  0.90090807  0.71218517  0.91445790  1  0  0.098917  0  0.952445  0  0  0.108978  0  1.016309  0  0  0.113166  0  1.014374  0  0  0.105113  0.105949  0  1.018023  0
H  H25  1  0.09909284  0.28782246  0.08554641  1  0  0.09892  0  0.952403  0  0  0.108973  0  1.016269  0  0  0.11316  0  1.014329  0  0  0.105105  0.105953  0  1.017979  0
H  H26  1  0.75334187  0.78384979  0.01449255  1  0  0.073633  0  0.963242  0  0  0.084164  0  1.026184  0  0  0.085746  0  1.026075  0  0  0.096755  0.083018  0  1.026216  0
H  H27  1  0.24664564  0.21616630  0.98550791  1  0  0.073737  0  0.963298  0  0  0.0843  0  1.026202  0  0  0.085887  0  1.026084  0  0  0.096805  0.083159  0  1.026226  0
H  H28  1  0.45391258  0.75875257  0.06859927  1  0  0.097571  0  0.984761  0  0  0.101989  0  1.057532  0  0  0.105441  0  1.056757  0  0  0.101053  0.099564  0  1.058225  0
H  H29  1  0.54606957  0.24126258  0.93139743  1  0  0.097654  0  0.984669  0  0  0.10204  0  1.057474  0  0  0.105494  0  1.056695  0  0  0.101065  0.099612  0  1.058162  0
H  H30  1  0.22148044  0.67005752  0.02952050  1  0  0.083081  0  0.930048  0  0  0.096036  0  0.985983  0  0  0.09846  0  0.984553  0  0  0.105242  0.094209  0  0.987129  0
H  H31  1  0.77850585  0.32995764  0.97047303  1  0  0.083136  0  0.930008  0  0  0.096032  0  0.986025  0  0  0.098456  0  0.984596  0  0  0.105219  0.0942  0  0.987149  0
H  H32  1  0.23702121  0.56700553  0.93495083  1  0  0.098597  0  0.942485  0  0  0.10968  0  1.002438  0  0  0.113976  0  1.000852  0  0  0.10771  0.106612  0  1.003811  0
H  H33  1  0.76297016  0.43301153  0.06504132  1  0  0.098682  0  0.942458  0  0  0.109633  0  1.002572  0  0  0.113963  0  1.000947  0  0  0.107691  0.106565  0  1.003944  0
H  H34  1  0.76379078  0.05199388  0.90389243  1  0  0.09513  0  0.960525  0  0  0.107878  0  1.021398  0  0  0.111323  0  1.020179  0  0  0.101051  0.105424  0  1.022558  0
H  H35  1  0.23620958  0.94799964  0.09610366  1  0  0.095094  0  0.960484  0  0  0.107878  0  1.021334  0  0  0.111325  0  1.020108  0  0  0.101016  0.105419  0  1.022496  0
H  H36  1  0.01595384  0.90007023  0.94449823  1  0  0.074758  0  0.948701  0  0  0.087246  0  1.009856  0  0  0.089464  0  1.008235  0  0  0.099528  0.085695  0  1.010951  0
H  H37  1  0.98405231  0.09992236  0.05549522  1  0  0.074739  0  0.948654  0  0  0.087301  0  1.009741  0  0  0.08947  0  1.008172  0  0  0.099552  0.085748  0  1.010846  0
H  H38  1  0.34230590  0.90465242  0.92904763  1  0  0.076386  0  1.003221  0  0  0.08375  0  1.072047  0  0  0.085161  0  1.075169  0  0  0.090439  0.082794  0  1.069944  0
H  H39  1  0.65769925  0.09534393  0.07094449  1  0  0.076362  0  1.003231  0  0  0.083751  0  1.07203  0  0  0.085155  0  1.075156  0  0  0.090469  0.082802  0  1.069927  0
H  H40  1  0.48998156  0.07177167  0.87093330  1  0  0.076233  0  0.964625  0  0  0.086969  0  1.028408  0  0  0.090154  0  1.024797  0  0  0.100012  0.084634  0  1.031033  0
H  H41  1  0.51001728  0.92822750  0.12905928  1  0  0.076185  0  0.964493  0  0  0.086913  0  1.028299  0  0  0.090098  0  1.024685  0  0  0.099978  0.084583  0  1.030925  0
H  H42  1  0.35656304  0.26603108  0.81238702  1  0  0.132005  0  0.954567  0  0  0.138653  0  1.017866  0  0  0.144126  0  1.014429  0  0  0.116061  0.134719  0  1.020647  0
H  H43  1  0.64342860  0.73396902  0.18760776  1  0  0.132098  0  0.954502  0  0  0.138709  0  1.017846  0  0  0.144185  0  1.0144  0  0  0.116081  0.134741  0  1.020664  0
H  H44  1  0.14823698  0.02620723  0.69460180  1  0  0.107224  0  0.950129  0  0  0.128154  0  1.010007  0  0  0.129443  0  1.009309  0  0  0.108688  0.127069  0  1.010775  0
H  H45  1  0.85176964  0.97378910  0.30539884  1  0  0.107232  0  0.95014  0  0  0.128106  0  1.010052  0  0  0.129396  0  1.009357  0  0  0.108661  0.127025  0  1.010812  0
H  H46  1  0.99412955  0.17313767  0.70195619  1  0  0.108119  0  0.955843  0  0  0.125132  0  1.022244  0  0  0.12566  0  1.023025  0  0  0.107285  0.124648  0  1.021862  0
H  H47  1  0.00587338  0.82685677  0.29804477  1  0  0.108118  0  0.955832  0  0  0.125096  0  1.022282  0  0  0.125626  0  1.023065  0  0  0.107235  0.124619  0  1.021893  0
H  H48  1  0.98435869  0.09773241  0.63035730  1  0  0.085574  0  0.93794  0  0  0.10726  0  1.003186  0  0  0.106645  0  1.004575  0  0  0.096864  0.107747  0  1.001997  0
H  H49  1  0.01564336  0.90226015  0.36964488  1  0  0.085517  0  0.93799  0  0  0.107195  0  1.003237  0  0  0.106592  0  1.004615  0  0  0.096841  0.107678  0  1.002051  0
H  H50  1  0.58198254  0.00428636  0.75208885  1  0  0.094707  0  0.945367  0  0  0.11577  0  1.008668  0  0  0.116216  0  1.008755  0  0  0.104689  0.115399  0  1.008695  0
H  H51  1  0.41802530  0.99570527  0.24791018  1  0  0.09473  0  0.945295  0  0  0.115764  0  1.008634  0  0  0.116213  0  1.008719  0  0  0.104684  0.115392  0  1.00866  0
H  H52  1  0.62574589  0.09975240  0.67194706  1  0  0.086636  0  0.965305  0  0  0.105847  0  1.032342  0  0  0.105104  0  1.035236  0  0  0.094699  0.106358  0  1.030235  0
H  H53  1  0.37426991  0.90023547  0.32805203  1  0  0.086581  0  0.965145  0  0  0.105808  0  1.032191  0  0  0.105075  0  1.035078  0  0  0.094668  0.106321  0  1.03008  0
H  H54  1  0.64872057  0.15453135  0.75012169  1  0  0.111897  0  0.967909  0  0  0.125679  0  1.037019  0  0  0.126961  0  1.036994  0  0  0.106935  0.124756  0  1.037045  0
H  H55  1  0.35128283  0.84546122  0.24987640  1  0  0.111784  0  0.96798  0  0  0.125605  0  1.037031  0  0  0.126888  0  1.037006  0  0  0.106903  0.124681  0  1.037052  0
H  H56  1  0.80004961  0.85308250  0.78617951  1  0  0.02844  0  0.92472  0  0  0.037715  0  0.995355  0  0  0.039538  0  0.990991  0  0  0.115885  0.036159  0  0.998756  0
H  H57  1  0.19996099  0.14691477  0.21382594  1  0  0.028233  0  0.924402  0  0  0.03751  0  0.995101  0  0  0.039318  0  0.990766  0  0  0.115815  0.035948  0  0.998515  0
C  C58  1  0.61441761  0.73173350  0.66663656  1  0  0.318112  0  3.818271  0  0  0.310167  0  4.071853  0  0  0.327726  0  4.080362  0  0  0.115026  0.298458  0  4.065684  0
C  C59  1  0.38558953  0.26826094  0.33336727  1  0  0.317943  0  3.818263  0  0  0.310036  0  4.071805  0  0  0.327591  0  4.080318  0  0  0.114895  0.298327  0  4.065642  0
C  C60  1  0.49931804  0.84517243  0.63811167  1  0  -0.184317  0  3.691045  0  0  -0.202045  0  3.942185  0  0  -0.212979  0  3.960734  0  0  -0.093846  -0.195055  0  3.929825  0
C  C61  1  0.50069048  0.15482202  0.36189059  1  0  -0.184265  0  3.690917  0  0  -0.201994  0  3.94203  0  0  -0.212925  0  3.960581  0  0  -0.093803  -0.195003  0  3.929661  0
C  C62  1  0.54490297  0.94614626  0.59056189  1  0  -0.010086  0  3.796895  0  0  -0.023024  0  4.046412  0  0  -0.016059  0  4.065155  0  0  -0.075961  -0.027252  0  4.033481  0
C  C63  1  0.45510375  0.05384442  0.40944080  1  0  -0.010045  0  3.796958  0  0  -0.023006  0  4.046474  0  0  -0.01604  0  4.06522  0  0  -0.075916  -0.027221  0  4.033525  0
C  C64  1  0.71865397  0.96406193  0.55595816  1  0  -0.115954  0  3.798705  0  0  -0.134683  0  4.062172  0  0  -0.144082  0  4.08601  0  0  -0.105128  -0.128749  0  4.045409  0
C  C65  1  0.28135456  0.03593252  0.44404461  1  0  -0.11605  0  3.798925  0  0  -0.134785  0  4.062401  0  0  -0.144184  0  4.086247  0  0  -0.105153  -0.128851  0  4.045645  0
C  C66  1  0.89190614  0.88285199  0.56298050  1  0  -0.017608  0  3.80472  0  0  -0.033578  0  4.058407  0  0  -0.026914  0  4.077536  0  0  -0.080732  -0.037479  0  4.04516  0
C  C67  1  0.10810734  0.11713964  0.43702538  1  0  -0.017479  0  3.804597  0  0  -0.033494  0  4.058319  0  0  -0.026828  0  4.077452  0  0  -0.080663  -0.037397  0  4.045075  0
C  C68  1  0.93755841  0.76799953  0.60546182  1  0  -0.177305  0  3.71272  0  0  -0.198113  0  3.966458  0  0  -0.208371  0  3.985614  0  0  -0.095454  -0.191546  0  3.953532  0
C  C69  1  0.06244711  0.23199585  0.39454399  1  0  -0.177439  0  3.712787  0  0  -0.198205  0  3.966496  0  0  -0.208476  0  3.985652  0  0  -0.095477  -0.191619  0  3.953594  0
C  C70  1  0.82349195  0.69811074  0.65362050  1  0  0.30928  0  3.828518  0  0  0.300741  0  4.083009  0  0  0.317986  0  4.091971  0  0  0.11043  0.289405  0  4.076356  0
C  C71  1  0.17650797  0.30188464  0.34638350  1  0  0.309514  0  3.828511  0  0  0.300923  0  4.083015  0  0  0.318169  0  4.091983  0  0  0.110476  0.28958  0  4.076387  0
C  C72  1  0.46448513  0.37765152  0.66126839  1  0  0.300913  0  3.836561  0  0  0.292992  0  4.088897  0  0  0.308701  0  4.100323  0  0  0.105586  0.282322  0  4.081067  0
C  C73  1  0.53551089  0.62235328  0.33873031  1  0  0.300727  0  3.836643  0  0  0.292854  0  4.088922  0  0  0.308563  0  4.100347  0  0  0.105569  0.28219  0  4.081064  0
C  C74  1  0.29371891  0.36355359  0.63638852  1  0  -0.171397  0  3.67254  0  0  -0.190941  0  3.923694  0  0  -0.200248  0  3.94215  0  0  -0.091032  -0.184761  0  3.911389  0
C  C75  1  0.70627702  0.63645687  0.36360914  1  0  -0.171326  0  3.672652  0  0  -0.190924  0  3.923793  0  0  -0.200239  0  3.942248  0  0  -0.091111  -0.18475  0  3.911492  0
C  C76  1  0.25639463  0.33916086  0.57294844  1  0  -0.00969  0  3.775432  0  0  -0.021776  0  4.022722  0  0  -0.015952  0  4.040224  0  0  -0.07674  -0.025233  0  4.010689  0
C  C77  1  0.74360055  0.66085243  0.42704797  1  0  -0.00978  0  3.775384  0  0  -0.021822  0  4.022703  0  0  -0.015998  0  4.040198  0  0  -0.076685  -0.025302  0  4.010655  0
C  C78  1  0.37800676  0.32126567  0.51506829  1  0  -0.103754  0  3.799512  0  0  -0.119996  0  4.055755  0  0  -0.129009  0  4.082186  0  0  -0.103986  -0.114253  0  4.038096  0
C  C79  1  0.62198777  0.67874478  0.48492841  1  0  -0.103894  0  3.799625  0  0  -0.120127  0  4.055894  0  0  -0.129141  0  4.082327  0  0  -0.104109  -0.114378  0  4.038225  0
C  C80  1  0.57208086  0.32344597  0.50802421  1  0  -0.017139  0  3.804168  0  0  -0.032227  0  4.059235  0  0  -0.027124  0  4.080004  0  0  -0.079832  -0.035257  0  4.044973  0
C  C81  1  0.42791541  0.67655789  0.49197457  1  0  -0.017113  0  3.804157  0  0  -0.032202  0  4.05924  0  0  -0.027114  0  4.080009  0  0  -0.079826  -0.035228  0  4.044971  0
C  C82  1  0.69135169  0.34161988  0.55509178  1  0  -0.180091  0  3.719268  0  0  -0.198894  0  3.9716  0  0  -0.209379  0  3.992888  0  0  -0.098978  -0.192378  0  3.957108  0
C  C83  1  0.30864393  0.65838116  0.44490780  1  0  -0.180035  0  3.719174  0  0  -0.198866  0  3.971498  0  0  -0.209353  0  3.992791  0  0  -0.098958  -0.192363  0  3.957019  0
C  C84  1  0.65361469  0.36550824  0.62354699  1  0  0.296464  0  3.851797  0  0  0.289856  0  4.10296  0  0  0.306548  0  4.113479  0  0  0.10587  0.278822  0  4.095634  0
C  C85  1  0.34638183  0.63449468  0.37645238  1  0  0.296477  0  3.851793  0  0  0.289872  0  4.10292  0  0  0.306565  0  4.113445  0  0  0.10583  0.278837  0  4.095611  0
C  C86  1  0.69901954  0.61910291  0.88558251  1  0  0.310096  0  3.838052  0  0  0.302699  0  4.09182  0  0  0.319078  0  4.102345  0  0  0.108112  0.291777  0  4.084218  0
C  C87  1  0.30098210  0.38090189  0.11442002  1  0  0.310162  0  3.837756  0  0  0.302758  0  4.091579  0  0  0.319139  0  4.102092  0  0  0.108185  0.291821  0  4.084022  0
C  C88  1  0.75871194  0.69111578  0.92961360  1  0  -0.188932  0  3.722332  0  0  -0.207576  0  3.972266  0  0  -0.218432  0  3.993001  0  0  -0.098627  -0.200554  0  3.958453  0
C  C89  1  0.24128362  0.30889090  0.07038947  1  0  -0.188863  0  3.722176  0  0  -0.207476  0  3.97212  0  0  -0.218332  0  3.992847  0  0  -0.098653  -0.200453  0  3.958323  0
C  C90  1  0.66999207  0.73407548  0.98867446  1  0  -0.017845  0  3.791499  0  0  -0.029751  0  4.039515  0  0  -0.023892  0  4.058965  0  0  -0.078894  -0.033153  0  4.025862  0
C  C91  1  0.32999503  0.26593684  0.01132687  1  0  -0.018191  0  3.791839  0  0  -0.03016  0  4.039903  0  0  -0.024304  0  4.059352  0  0  -0.079022  -0.033562  0  4.02625  0
C  C92  1  0.49099156  0.72253891  0.02032187  1  0  -0.090325  0  3.7452  0  0  -0.109096  0  4.005569  0  0  -0.116788  0  4.027117  0  0  -0.095186  -0.104367  0  3.991028  0
C  C93  1  0.50899413  0.27747341  0.97967750  1  0  -0.090177  0  3.745073  0  0  -0.10888  0  4.005379  0  0  -0.116572  0  4.026927  0  0  -0.09513  -0.104151  0  3.990821  0
C  C94  1  0.35410479  0.66721082  0.99743926  1  0  -0.001683  0  3.76966  0  0  -0.018244  0  4.027782  0  0  -0.012332  0  4.046682  0  0  -0.071806  -0.021768  0  4.014867  0
C  C95  1  0.64588598  0.33280340  0.00255823  1  0  -0.001923  0  3.769481  0  0  -0.018462  0  4.027596  0  0  -0.012551  0  4.046504  0  0  -0.071789  -0.021957  0  4.014631  0
C  C96  1  0.36202841  0.60651359  0.94095991  1  0  -0.185673  0  3.721833  0  0  -0.206013  0  3.977577  0  0  -0.217038  0  3.999474  0  0  -0.092279  -0.198947  0  3.963064  0
C  C97  1  0.63796842  0.39349876  0.05903753  1  0  -0.185656  0  3.721677  0  0  -0.205856  0  3.977435  0  0  -0.216913  0  3.99933  0  0  -0.092281  -0.198797  0  3.962916  0
C  C98  1  0.51174364  0.57828787  0.89138898  1  0  0.307476  0  3.833927  0  0  0.299604  0  4.085464  0  0  0.31619  0  4.096196  0  0  0.105781  0.288339  0  4.077919  0
C  C99  1  0.48826166  0.42171883  0.10861022  1  0  0.307554  0  3.83363  0  0  0.299613  0  4.085276  0  0  0.316192  0  4.096026  0  0  0.105794  0.288358  0  4.07774  0
C  C100  1  0.89956309  0.19592925  0.84830678  1  0  0.296164  0  3.840953  0  0  0.286581  0  4.097143  0  0  0.302837  0  4.108012  0  0  0.105859  0.275794  0  4.08913  0
C  C101  1  0.10043049  0.80406895  0.15169365  1  0  0.296223  0  3.840965  0  0  0.286651  0  4.097156  0  0  0.302909  0  4.108025  0  0  0.105877  0.275875  0  4.089125  0
C  C102  1  0.90431432  0.07638184  0.88982219  1  0  -0.181398  0  3.714789  0  0  -0.201945  0  3.970059  0  0  -0.212672  0  3.992043  0  0  -0.099653  -0.195048  0  3.955376  0
C  C103  1  0.09568392  0.92361449  0.11017573  1  0  -0.181367  0  3.714714  0  0  -0.201951  0  3.970018  0  0  -0.212675  0  3.991978  0  0  -0.099622  -0.195048  0  3.955328  0
C  C104  1  0.05556937  0.98587879  0.91410715  1  0  -0.005318  0  3.791952  0  0  -0.020978  0  4.045322  0  0  -0.015214  0  4.064947  0  0  -0.076359  -0.024335  0  4.031761  0
C  C105  1  0.94443048  0.01411660  0.08588828  1  0  -0.005362  0  3.791864  0  0  -0.021078  0  4.045274  0  0  -0.015276  0  4.064903  0  0  -0.076402  -0.024438  0  4.031721  0
C  C106  1  0.24935337  0.98835122  0.90559656  1  0  -0.100186  0  3.783509  0  0  -0.116013  0  4.035239  0  0  -0.124118  0  4.059017  0  0  -0.099277  -0.111057  0  4.019218  0
C  C107  1  0.75064321  0.01164605  0.09439880  1  0  -0.10013  0  3.783614  0  0  -0.115974  0  4.035373  0  0  -0.124072  0  4.05914  0  0  -0.099279  -0.111022  0  4.019362  0
C  C108  1  0.33582196  0.08730709  0.87082385  1  0  -0.015395  0  3.785642  0  0  -0.028438  0  4.035519  0  0  -0.022602  0  4.053116  0  0  -0.076681  -0.031819  0  4.023367  0
C  C109  1  0.66417412  0.91269207  0.12917135  1  0  -0.015331  0  3.785664  0  0  -0.028353  0  4.035513  0  0  -0.022517  0  4.053119  0  0  -0.076675  -0.031742  0  4.023362  0
C  C110  1  0.25729456  0.20388475  0.83559178  1  0  -0.166146  0  3.661209  0  0  -0.185934  0  3.911431  0  0  -0.195193  0  3.9299  0  0  -0.087589  -0.180234  0  3.899453  0
C  C111  1  0.74269735  0.79611440  0.16440509  1  0  -0.166308  0  3.661209  0  0  -0.186066  0  3.911407  0  0  -0.195327  0  3.929875  0  0  -0.087613  -0.18033  0  3.899438  0
C  C112  1  0.06690819  0.25596156  0.82285309  1  0  0.299821  0  3.838493  0  0  0.292098  0  4.092639  0  0  0.308058  0  4.103293  0  0  0.107736  0.281467  0  4.084983  0
C  C113  1  0.93308399  0.74403664  0.17714689  1  0  0.299857  0  3.83839  0  0  0.29211  0  4.092557  0  0  0.308074  0  4.10321  0  0  0.107726  0.281471  0  4.084905  0
C  C114  1  0.00707153  0.08105269  0.68552628  1  0  -0.166871  0  3.650389  0  0  -0.26495  0  3.89058  0  0  -0.26139  0  3.901747  0  0  -0.135793  -0.267117  0  3.883156  0
C  C115  1  0.99293231  0.91894364  0.31447547  1  0  -0.16694  0  3.650534  0  0  -0.264932  0  3.89076  0  0  -0.261387  0  3.90192  0  0  -0.135777  -0.267103  0  3.883321  0
C  C116  1  0.67013789  0.07117334  0.72461226  1  0  -0.181096  0  3.668458  0  0  -0.283401  0  3.919373  0  0  -0.280544  0  3.931479  0  0  -0.140254  -0.285102  0  3.911013  0
C  C117  1  0.32986856  0.92881829  0.27538733  1  0  -0.180877  0  3.66819  0  0  -0.283197  0  3.919142  0  0  -0.280346  0  3.931232  0  0  -0.140138  -0.284907  0  3.910793  0
C  C118  1  0.92120844  0.89448798  0.75874245  1  0  0.384589  0  3.886266  0  0  0.312208  0  4.184538  0  0  0.338791  0  4.187148  0  0  0.160512  0.294424  0  4.182212  0
C  C119  1  0.07876251  0.10551678  0.24125969  1  0  0.385106  0  3.886778  0  0  0.312717  0  4.185084  0  0  0.339299  0  4.187672  0  0  0.160773  0.294936  0  4.182769  0
N  N120  1  0.86774216  0.01085162  0.72388182  1  0  -0.103027  0  3.513777  0  0  0.004353  0  3.742627  0  0  -0.017439  0  3.770786  0  0  -0.287794  0.018919  0  3.723276  0
N  N121  1  0.13227204  0.98913718  0.27612178  1  0  -0.103406  0  3.513532  0  0  0.003967  0  3.742399  0  0  -0.017826  0  3.770562  0  0  -0.287964  0.018547  0  3.723036  0
O  O122  1  0.46314750  0.40357367  0.72247946  1  0  -0.684869  0  2.128183  0  0  -0.63141  0  2.383233  0  0  -0.655666  0  2.379178  0  0  -0.444024  -0.614403  0  2.385474  0
O  O123  1  0.53684927  0.59642831  0.27751999  1  0  -0.684723  0  2.128188  0  0  -0.63124  0  2.383174  0  0  -0.6555  0  2.379123  0  0  -0.443951  -0.614217  0  2.385377  0
O  O124  1  0.78914843  0.37994735  0.65758367  1  0  -0.643809  0  2.0534  0  0  -0.5919  0  2.297587  0  0  -0.615859  0  2.295465  0  0  -0.37726  -0.575215  0  2.298194  0
O  O125  1  0.21084883  0.62005274  0.34241645  1  0  -0.643819  0  2.053457  0  0  -0.591913  0  2.29767  0  0  -0.615869  0  2.295532  0  0  -0.377264  -0.57523  0  2.298297  0
O  O126  1  0.53875266  0.64914728  0.70876912  1  0  -0.663138  0  2.083973  0  0  -0.609545  0  2.320134  0  0  -0.633076  0  2.317833  0  0  -0.409516  -0.592892  0  2.321066  0
O  O127  1  0.46124864  0.35084810  0.29123332  1  0  -0.663124  0  2.08398  0  0  -0.609531  0  2.320117  0  0  -0.633063  0  2.317817  0  0  -0.409494  -0.592869  0  2.321043  0
O  O128  1  0.90115569  0.59548430  0.68958737  1  0  -0.667778  0  2.118209  0  0  -0.612987  0  2.363827  0  0  -0.637702  0  2.361828  0  0  -0.441837  -0.595665  0  2.364385  0
O  O129  1  0.09884678  0.40451202  0.31041796  1  0  -0.667873  0  2.118341  0  0  -0.613036  0  2.363943  0  0  -0.637766  0  2.361952  0  0  -0.441835  -0.595715  0  2.364521  0
O  O130  1  0.81227936  0.58342798  0.83568827  1  0  -0.685846  0  2.086976  0  0  -0.632888  0  2.328779  0  0  -0.657132  0  2.326783  0  0  -0.417655  -0.615692  0  2.329543  0
O  O131  1  0.18772442  0.41657400  0.16431597  1  0  -0.685853  0  2.086993  0  0  -0.63289  0  2.328831  0  0  -0.657129  0  2.326819  0  0  -0.417633  -0.615684  0  2.329626  0
O  O132  1  0.48971393  0.51129026  0.84628546  1  0  -0.684996  0  2.107046  0  0  -0.62887  0  2.35403  0  0  -0.653649  0  2.351813  0  0  -0.456113  -0.61132  0  2.355115  0
O  O133  1  0.51028744  0.48871549  0.15371498  1  0  -0.685079  0  2.106907  0  0  -0.628865  0  2.353848  0  0  -0.653648  0  2.351633  0  0  -0.456088  -0.611314  0  2.354937  0
O  O134  1  0.02751330  0.36588041  0.78606304  1  0  -0.680736  0  2.117691  0  0  -0.62851  0  2.372333  0  0  -0.651956  0  2.367642  0  0  -0.438243  -0.611773  0  2.374817  0
O  O135  1  0.97247980  0.63411967  0.21393823  1  0  -0.680737  0  2.117647  0  0  -0.628484  0  2.372283  0  0  -0.65194  0  2.367595  0  0  -0.438233  -0.611763  0  2.374817  0
O  O136  1  0.73950363  0.26213428  0.82994427  1  0  -0.651719  0  2.059784  0  0  -0.599082  0  2.313561  0  0  -0.622577  0  2.310085  0  0  -0.375994  -0.58234  0  2.315367  0
O  O137  1  0.26049020  0.73786297  0.17005775  1  0  -0.651658  0  2.059792  0  0  -0.599054  0  2.313658  0  0  -0.622555  0  2.310174  0  0  -0.375938  -0.582305  0  2.315438  0
O  O138  1  0.08674280  0.83619675  0.76111047  1  0  -0.575943  0  1.985755  0  0  -0.53438  0  2.222507  0  0  -0.555233  0  2.216778  0  0  -0.393103  -0.519738  0  2.225942  0
O  O139  1  0.91329080  0.16378173  0.23888939  1  0  -0.575846  0  1.987276  0  0  -0.534286  0  2.224047  0  0  -0.555137  0  2.218298  0  0  -0.393119  -0.519663  0  2.227507  0
