# generated using pymatgen
data_CoH24C28(NO5)2
_symmetry_space_group_name_H-M   'P 1'
_cell_length_a   7.25394558
_cell_length_b   8.00137338
_cell_length_c   10.67408202
_cell_angle_alpha   89.63622803
_cell_angle_beta   78.51764960
_cell_angle_gamma   86.32046908
_symmetry_Int_Tables_number   1
_chemical_formula_structural   CoH24C28(NO5)2
_chemical_formula_sum   'Co1 H24 C28 N2 O10'
_cell_volume   605.87595663
_cell_formula_units_Z   1
loop_
 _symmetry_equiv_pos_site_id
 _symmetry_equiv_pos_as_xyz
  1  'x, y, z'
loop_
 _atom_site_type_symbol
 _atom_site_label
 _atom_site_symmetry_multiplicity
 _atom_site_fract_x
 _atom_site_fract_y
 _atom_site_fract_z
 _atom_site_occupancy
 _atom_site_hse06_10hf_ddec_charge
 _atom_site_hse06_10hf_ddec_spin_density
 _atom_site_hse06_10hf_ddec_sum_bond_order
 _atom_site_hse06_10hf_magmom
 _atom_site_pbe_cm5_charge
 _atom_site_pbe_ddec_charge
 _atom_site_pbe_ddec_spin_density
 _atom_site_pbe_ddec_sum_bond_order
 _atom_site_pbe_magmom
Co  Co0  1  0.49999710  0.00000001  0.99999869  1  0.911699  -1.025444  2.602446  -0.962  0.571595  0.872131  -1.040209  2.655114  -0.966
H  H1  1  0.83155403  0.21792790  0.98182026  1  0.162133  0.000271  0.984472  0.0  0.130732  0.158527  0.000224  0.987497  0.0
H  H2  1  0.16843444  0.78206559  0.01817491  1  0.161987  0.000271  0.984533  0.0  0.130695  0.15838  0.000224  0.987556  0.0
H  H3  1  0.92610059  0.41878173  0.95327908  1  0.125379  -0.000284  1.028435  0.0  0.116924  0.123214  -0.000323  1.030063  0.0
H  H4  1  0.07388321  0.58121550  0.04671942  1  0.125364  -0.000284  1.028466  0.0  0.116941  0.123188  -0.000323  1.030109  0.0
H  H5  1  0.94233841  0.00085875  0.83719911  1  0.117919  0.000159  1.040194  0.0  0.13395  0.113998  0.000107  1.044714  0.0
H  H6  1  0.05765963  0.99913620  0.16279865  1  0.117919  0.000158  1.040289  0.0  0.133941  0.114005  0.000107  1.044801  0.0
H  H7  1  0.08013635  0.91650713  0.60852370  1  0.117381  3.6e-05  1.02229  0.0  0.111222  0.115188  8.4e-05  1.022765  0.0
H  H8  1  0.91987707  0.08348808  0.39147410  1  0.117443  3.6e-05  1.02245  0.0  0.111273  0.115248  8.4e-05  1.022924  0.0
H  H9  1  0.23418047  0.12834229  0.45868398  1  0.118563  6.5e-05  1.030697  0.0  0.112237  0.115314  9.2e-05  1.034196  0.0
H  H10  1  0.76584231  0.87165565  0.54131924  1  0.118561  6.5e-05  1.030803  0.0  0.112212  0.115309  9.2e-05  1.034307  0.0
H  H11  1  0.07961595  0.49026397  0.76904608  1  0.119974  2e-06  1.012533  0.0  0.132223  0.116425  2.4e-05  1.01619  0.0
H  H12  1  0.92037454  0.50973590  0.23095440  1  0.11996  2e-06  1.012539  0.0  0.132249  0.116411  2.4e-05  1.0162  0.0
H  H13  1  0.22022663  0.33552641  0.33731398  1  0.10817  -2.5e-05  1.020887  0.0  0.102829  0.105094  -6e-06  1.023143  0.0
H  H14  1  0.77976605  0.66447735  0.66269370  1  0.108123  -2.5e-05  1.020859  0.0  0.102792  0.105053  -6e-06  1.023107  0.0
H  H15  1  0.34335843  0.56045477  0.19289207  1  0.124534  -8e-06  0.993267  0.0  0.10994  0.120515  1.3e-05  0.996761  0.0
H  H16  1  0.65663663  0.43954019  0.80711073  1  0.12451  -8e-06  0.993229  0.0  0.109935  0.120495  1.3e-05  0.996717  0.0
H  H17  1  0.40902302  0.85539227  0.51449496  1  0.114517  1.2e-05  1.029609  0.0  0.104966  0.111733  4.1e-05  1.032023  0.0
H  H18  1  0.59099688  0.14460929  0.48550106  1  0.114542  1.2e-05  1.029592  0.0  0.104991  0.111757  4.1e-05  1.032001  0.0
H  H19  1  0.29282321  0.63009291  0.66053153  1  0.112626  1.4e-05  0.997289  0.0  0.105026  0.109947  8e-06  0.998611  0.0
H  H20  1  0.70719352  0.36991116  0.33946859  1  0.11257  1.4e-05  0.997326  0.0  0.105027  0.109895  8e-06  0.998642  0.0
H  H21  1  0.62586879  0.74891339  0.88416508  1  0.373295  -0.000132  0.969681  0.0  0.288142  0.36581  0.000157  0.980126  0.0
H  H22  1  0.37412598  0.25108774  0.11583020  1  0.373204  -0.000132  0.969783  0.0  0.288115  0.365721  0.000157  0.980225  0.0
H  H23  1  0.50331260  0.86520983  0.80268004  1  0.37248  0.000297  0.979136  0.0  0.284812  0.364595  0.000282  0.989981  0.0
H  H24  1  0.49668463  0.13479510  0.19731490  1  0.372505  0.000298  0.979096  0.0  0.284821  0.364628  0.000282  0.989931  0.0
C  C25  1  0.11760150  0.22172220  0.01347304  1  0.624793  -0.000432  4.178042  -0.001  0.208858  0.602487  -0.00085  4.179098  -0.002
C  C26  1  0.88238985  0.77827009  0.98652273  1  0.624549  -0.000431  4.178024  -0.001  0.208744  0.602246  -0.000849  4.179073  -0.002
C  C27  1  0.95892044  0.28351561  0.94331434  1  -0.252878  -0.001661  3.792707  -0.002  -0.055492  -0.250657  -0.002098  3.789715  -0.003
C  C28  1  0.04106747  0.71648172  0.05668648  1  -0.252696  -0.001662  3.792639  -0.002  -0.055535  -0.250471  -0.002098  3.789653  -0.003
C  C29  1  0.00974616  0.08654574  0.76603416  1  0.067208  -0.000498  3.81701  -0.001  0.067997  0.056402  -0.000757  3.813927  -0.001
C  C30  1  0.99025301  0.91345296  0.23396156  1  0.067246  -0.000498  3.816971  -0.001  0.068008  0.056431  -0.000756  3.813896  -0.001
C  C31  1  0.08365610  0.04504664  0.63985460  1  -0.104687  0.000458  3.980394  0.0  -0.070997  -0.100178  0.001259  3.970536  0.001
C  C32  1  0.91635064  0.95495976  0.36014481  1  -0.104782  0.000458  3.98027  0.0  -0.071036  -0.100267  0.001258  3.970413  0.001
C  C33  1  0.16580874  0.16524916  0.55592106  1  -0.060355  -0.000568  3.885685  -0.001  -0.051771  -0.06548  -0.001072  3.878065  -0.001
C  C34  1  0.83420405  0.83475112  0.44408145  1  -0.060394  -0.000567  3.885898  -0.001  -0.05179  -0.06552  -0.001071  3.878276  -0.001
C  C35  1  0.16660791  0.33165501  0.59771625  1  0.036689  0.000119  4.006213  0.0  0.009406  0.03929  0.000929  3.991181  0.0
C  C36  1  0.83340017  0.66835022  0.40228770  1  0.036683  0.000119  4.006214  0.0  0.009404  0.039285  0.000928  3.991186  0.0
C  C37  1  0.09047834  0.36592976  0.72629790  1  0.006142  2.4e-05  3.785735  0.0  0.07108  -0.00066  -2.5e-05  3.780024  0.0
C  C38  1  0.90952206  0.63406902  0.27370236  1  0.006205  2.5e-05  3.785644  0.0  0.071081  -0.000598  -2.3e-05  3.779939  0.0
C  C39  1  0.24177049  0.46609967  0.51117653  1  0.061535  0.00256  4.02504  0.002  -0.008148  0.060409  0.005296  4.007831  0.003
C  C40  1  0.75823668  0.53390052  0.48882665  1  0.0615  0.002562  4.024936  0.002  -0.008124  0.060367  0.0053  4.007739  0.003
C  C41  1  0.26217283  0.44819707  0.37798314  1  -0.125461  4e-06  3.96824  0.0  -0.087034  -0.123163  0.00064  3.955862  0.0
C  C42  1  0.73782755  0.55179929  0.62202370  1  -0.125427  4e-06  3.968206  0.0  -0.086988  -0.123131  0.00064  3.955835  0.0
C  C43  1  0.32979558  0.57557764  0.29569133  1  -0.090411  0.00174  3.978152  0.001  -0.085521  -0.092763  0.002951  3.969025  0.002
C  C44  1  0.67020630  0.42441992  0.70430970  1  -0.090329  0.001741  3.978148  0.001  -0.085492  -0.092692  0.002953  3.969031  0.002
C  C45  1  0.37651870  0.72648901  0.34407414  1  -0.053524  0.000554  4.003261  0.0  -0.023045  -0.048517  0.002587  3.988796  0.001
C  C46  1  0.62348770  0.27350609  0.65592450  1  -0.053502  0.000554  4.003172  0.0  -0.023082  -0.048495  0.002588  3.988706  0.001
C  C47  1  0.36369109  0.74239958  0.47637779  1  -0.098111  0.002266  3.998313  0.001  -0.086434  -0.098085  0.003806  3.9841  0.002
C  C48  1  0.63632188  0.25760063  0.52362002  1  -0.098142  0.002266  3.998303  0.001  -0.086446  -0.098118  0.003807  3.984096  0.002
C  C49  1  0.29653284  0.61487567  0.55861766  1  -0.130063  -0.000346  3.978357  -0.001  -0.088115  -0.126968  -0.000105  3.964338  -0.001
C  C50  1  0.70347744  0.38512082  0.44138612  1  -0.130027  -0.000346  3.978403  -0.001  -0.088169  -0.126935  -0.000105  3.964386  -0.001
C  C51  1  0.43093211  0.87183960  0.25862640  1  0.569503  0.007789  4.19351  0.004  0.203111  0.542357  0.011723  4.198809  0.007
C  C52  1  0.56906722  0.12815662  0.74137120  1  0.569469  0.007791  4.193587  0.004  0.203104  0.542329  0.011727  4.198878  0.007
N  N53  1  0.01778493  0.24506393  0.80668609  1  0.134467  -0.000197  3.788713  0.0  -0.207564  0.140972  -0.000839  3.774112  -0.001
N  N54  1  0.98220946  0.75493975  0.19331295  1  0.134506  -0.000198  3.788701  0.0  -0.207477  0.141014  -0.000839  3.774103  -0.001
O  O55  1  0.20498772  0.08391473  0.97518796  1  -0.579456  -0.01837  2.306  -0.03  -0.302524  -0.556328  -0.021784  2.310117  -0.035
O  O56  1  0.79499494  0.91609137  0.02481995  1  -0.579507  -0.018378  2.30566  -0.03  -0.302527  -0.556374  -0.021794  2.30978  -0.035
O  O57  1  0.14255257  0.31252907  0.10523149  1  -0.588021  -8.5e-05  2.127235  -0.001  -0.326087  -0.567904  -0.000189  2.131696  -0.001
O  O58  1  0.85744072  0.68748712  0.89476661  1  -0.587769  -8.4e-05  2.127547  -0.001  -0.325961  -0.567657  -0.000188  2.132007  -0.001
O  O59  1  0.47195861  0.00546550  0.30783929  1  -0.554419  0.003691  2.195037  0.003  -0.314651  -0.537176  0.005942  2.201887  0.004
O  O60  1  0.52804034  0.99453448  0.69215925  1  -0.554449  0.003693  2.195136  0.003  -0.314694  -0.537208  0.005945  2.201988  0.004
O  O61  1  0.42469260  0.85095644  0.13990273  1  -0.554125  0.004414  2.457179  0.002  -0.308246  -0.52593  0.003333  2.462131  0.001
O  O62  1  0.57529953  0.14904095  0.86009758  1  -0.554135  0.004415  2.457222  0.002  -0.308222  -0.525943  0.003333  2.462176  0.001
O  O63  1  0.49724779  0.80549668  0.88849673  1  -0.731637  0.010851  2.197237  0.008  -0.563618  -0.704518  0.008648  2.21777  0.007
O  O64  1  0.50274519  0.19450820  0.11149965  1  -0.731546  0.010851  2.197292  0.008  -0.563597  -0.704435  0.008648  2.217808  0.007
