# generated using pymatgen
data_Zn5H14(C10O11)2
_symmetry_space_group_name_H-M   'P 1'
_cell_length_a   7.36297363
_cell_length_b   14.24268707
_cell_length_c   16.86230633
_cell_angle_alpha   89.99990944
_cell_angle_beta   90.00002859
_cell_angle_gamma   95.06813401
_symmetry_Int_Tables_number   1
_chemical_formula_structural   Zn5H14(C10O11)2
_chemical_formula_sum   'Zn10 H28 C40 O44'
_cell_volume   1761.41173554
_cell_formula_units_Z   2
loop_
 _symmetry_equiv_pos_site_id
 _symmetry_equiv_pos_as_xyz
  1  'x, y, z'
loop_
 _atom_site_type_symbol
 _atom_site_label
 _atom_site_symmetry_multiplicity
 _atom_site_fract_x
 _atom_site_fract_y
 _atom_site_fract_z
 _atom_site_occupancy
 _atom_site_pbe_bader_charge
 _atom_site_pbe_bader_spin_density
 _atom_site_pbe_cm5_charge
 _atom_site_pbe_ddec_charge
 _atom_site_pbe_ddec_spin_density
 _atom_site_pbe_ddec_sum_bond_order
 _atom_site_pbe_magmom
Zn  Zn0  1  0.28463779  0.81335370  0.98291011  1  1.36272  0  0.674558  1.018381  0  2.131467  0
Zn  Zn1  1  0.21536020  0.68664687  0.48291037  1  1.362694  0  0.674551  1.018353  0  2.131554  0
Zn  Zn2  1  0.71536450  0.18664583  0.01709014  1  1.362652  0  0.674577  1.018405  0  2.131404  0
Zn  Zn3  1  0.78464123  0.31335547  0.51709047  1  1.362772  0  0.67459  1.018428  0  2.131382  0
Zn  Zn4  1  0.99999953  0.99999993  0.00000052  1  1.364917  0  0.65233  1.011481  0  2.26817  0
Zn  Zn5  1  0.49999905  0.49999941  0.50000072  1  1.364863  0  0.652331  1.011493  0  2.268122  0
Zn  Zn6  1  0.31952638  0.02368138  0.87784316  1  1.370496  0  0.665229  0.995996  0  2.254589  0
Zn  Zn7  1  0.18047162  0.47631734  0.37784303  1  1.370496  0  0.665241  0.996012  0  2.254516  0
Zn  Zn8  1  0.68047456  0.97631814  0.12215709  1  1.370476  0  0.665231  0.996003  0  2.25453  0
Zn  Zn9  1  0.81952672  0.52368289  0.62215663  1  1.370496  0  0.665277  0.996056  0  2.254497  0
H  H10  1  0.09092219  0.83734945  0.70170714  1  0.099273  0  0.110339  0.119119  0  1.002627  0
H  H11  1  0.40907643  0.66264882  0.20170511  1  0.099255  0  0.110346  0.11916  0  1.002551  0
H  H12  1  0.90907603  0.16265008  0.29829311  1  0.099269  0  0.110343  0.119137  0  1.002577  0
H  H13  1  0.59092426  0.33734930  0.79829455  1  0.099256  0  0.110329  0.119086  0  1.002605  0
H  H14  1  0.42416315  0.76692375  0.72699795  1  0.064814  0  0.110383  0.120234  0  0.990506  0
H  H15  1  0.07583574  0.73307587  0.22699871  1  0.064832  0  0.110394  0.120229  0  0.990504  0
H  H16  1  0.57583668  0.23307718  0.27300349  1  0.064804  0  0.110368  0.120196  0  0.990535  0
H  H17  1  0.92416013  0.26692577  0.77300272  1  0.064804  0  0.110375  0.120216  0  0.990484  0
H  H18  1  0.32999290  0.97988060  0.03022716  1  0.616082  0  0.295409  0.394531  0  0.924871  0
H  H19  1  0.17000732  0.52012009  0.53022607  1  0.616117  0  0.295408  0.394566  0  0.92486  0
H  H20  1  0.67000681  0.02011963  0.96977250  1  0.61608  0  0.295405  0.394523  0  0.924881  0
H  H21  1  0.82999152  0.47988296  0.46977181  1  0.615956  0  0.295389  0.394504  0  0.924877  0
H  H22  1  0.25828938  0.13501930  0.74324050  1  0.613774  0  0.298822  0.366856  0  0.957609  0
H  H23  1  0.24170727  0.36498037  0.24324053  1  0.613779  0  0.298854  0.366889  0  0.957568  0
H  H24  1  0.74171032  0.86498093  0.25675916  1  0.61379  0  0.298835  0.366866  0  0.957604  0
H  H25  1  0.75828527  0.63501775  0.75676091  1  0.613769  0  0.298801  0.366855  0  0.957577  0
H  H26  1  0.25779792  0.02812494  0.72728664  1  0.631372  0  0.315495  0.406536  0  0.885146  0
H  H27  1  0.24219860  0.47187406  0.22728653  1  0.631398  0  0.315481  0.406509  0  0.885198  0
H  H28  1  0.74219759  0.97187459  0.27271479  1  0.63139  0  0.315511  0.406568  0  0.885118  0
H  H29  1  0.75779937  0.52812406  0.77271550  1  0.631364  0  0.315524  0.40657  0  0.885054  0
H  H30  1  0.97973166  0.72693629  0.91299039  1  0.633529  0  0.332389  0.414646  0  0.866  0
H  H31  1  0.52026566  0.77306351  0.41299050  1  0.633555  0  0.332407  0.4147  0  0.865934  0
H  H32  1  0.02026792  0.27306324  0.08700808  1  0.633528  0  0.332375  0.414642  0  0.866034  0
H  H33  1  0.47973762  0.22693390  0.58701035  1  0.633655  0  0.332434  0.414756  0  0.865902  0
H  H34  1  0.14461428  0.70521985  0.85912639  1  0.651401  0  0.335049  0.41975  0  0.854436  0
H  H35  1  0.35538472  0.79477953  0.35912535  1  0.651412  0  0.335015  0.419701  0  0.854482  0
H  H36  1  0.85538518  0.29477897  0.14087268  1  0.651421  0  0.335014  0.41969  0  0.854269  0
H  H37  1  0.64461658  0.20522211  0.64087786  1  0.65174  0  0.335082  0.419724  0  0.854441  0
C  C38  1  0.97151620  0.90498375  0.83673795  1  1.5956  0  0.21325  0.592552  0  4.195621  0
C  C39  1  0.52848735  0.59501337  0.33673651  1  1.595576  0  0.21323  0.592557  0  4.195599  0
C  C40  1  0.02848745  0.09501577  0.16326112  1  1.595591  0  0.213235  0.592529  0  4.19562  0
C  C41  1  0.47151470  0.40498475  0.66326196  1  1.595589  0  0.213257  0.592555  0  4.19553  0
C  C42  1  0.85622904  0.85389197  0.77410656  1  0.034373  0  -0.015593  -0.065664  0  3.960196  0
C  C43  1  0.64377064  0.64610667  0.27410568  1  0.034655  0  -0.015634  -0.065719  0  3.960343  0
C  C44  1  0.14377251  0.14611108  0.22589310  1  0.034405  0  -0.015646  -0.065698  0  3.960265  0
C  C45  1  0.35622882  0.35389215  0.72589457  1  0.034371  0  -0.015667  -0.065817  0  3.960365  0
C  C46  1  0.94429045  0.82067051  0.70761154  1  -0.047106  0  -0.076948  -0.109556  0  3.942976  0
C  C47  1  0.55570918  0.67932826  0.20761059  1  -0.047109  0  -0.076963  -0.109589  0  3.94296  0
C  C48  1  0.05571074  0.17933043  0.29238753  1  -0.047088  0  -0.076884  -0.109497  0  3.942972  0
C  C49  1  0.44429040  0.32067127  0.79238788  1  -0.047087  0  -0.076894  -0.109357  0  3.942926  0
C  C50  1  0.66623010  0.83381619  0.78186468  1  0.001583  0  -0.000892  -0.01892  0  3.915046  0
C  C51  1  0.83376946  0.66618174  0.28186382  1  0.001294  0  -0.000864  -0.018956  0  3.915107  0
C  C52  1  0.33377269  0.16618616  0.21813497  1  0.001636  0  -0.000918  -0.018905  0  3.915042  0
C  C53  1  0.16622975  0.33381567  0.71813525  1  0.001604  0  -0.00091  -0.018932  0  3.915031  0
C  C54  1  0.85136544  0.76429104  0.65030742  1  -0.046514  0  -0.006468  -0.038098  0  3.944199  0
C  C55  1  0.64863402  0.73570713  0.15030642  1  -0.046623  0  -0.0065  -0.038137  0  3.944036  0
C  C56  1  0.14863427  0.23570919  0.34969402  1  -0.046606  0  -0.006508  -0.038211  0  3.944174  0
C  C57  1  0.35136618  0.26428817  0.84969324  1  -0.046575  0  -0.006445  -0.038164  0  3.944023  0
C  C58  1  0.66147056  0.74457893  0.65783485  1  -0.05911  0  -0.006984  -0.05327  0  3.962753  0
C  C59  1  0.83853038  0.75541992  0.15783505  1  -0.059147  0  -0.006922  -0.053191  0  3.962819  0
C  C60  1  0.33853050  0.25542130  0.34216658  1  -0.057835  0  -0.00697  -0.053295  0  3.962829  0
C  C61  1  0.16147018  0.24457749  0.84216638  1  -0.059138  0  -0.007008  -0.053283  0  3.962813  0
C  C62  1  0.57183585  0.78095653  0.72260888  1  0.010815  0  -0.080475  -0.131091  0  3.950809  0
C  C63  1  0.92816255  0.71904291  0.22260796  1  0.01081  0  -0.080496  -0.131062  0  3.950948  0
C  C64  1  0.42816545  0.21904511  0.27739256  1  0.01081  0  -0.080469  -0.13104  0  3.950821  0
C  C65  1  0.07183567  0.28095661  0.77739229  1  0.010848  0  -0.080471  -0.131069  0  3.950798  0
C  C66  1  0.55043407  0.86966730  0.84721692  1  1.598711  0  0.221789  0.616407  0  4.179591  0
C  C67  1  0.94956579  0.63033192  0.34721672  1  1.598868  0  0.22175  0.616397  0  4.179696  0
C  C68  1  0.44956761  0.13033646  0.15278096  1  1.598632  0  0.221828  0.616312  0  4.179605  0
C  C69  1  0.05043230  0.36966691  0.65278235  1  1.598829  0  0.221757  0.616314  0  4.179733  0
C  C70  1  0.54707904  0.68631395  0.59894910  1  1.616264  0  0.229481  0.623202  0  4.150145  0
C  C71  1  0.95292444  0.81368431  0.09894984  1  1.616286  0  0.22953  0.623277  0  4.150129  0
C  C72  1  0.45291782  0.31368558  0.40105293  1  1.614932  0  0.229498  0.623291  0  4.150057  0
C  C73  1  0.04708020  0.18631310  0.90105100  1  1.616235  0  0.229479  0.623282  0  4.150087  0
C  C74  1  0.96525883  0.72609260  0.58626640  1  1.580522  0  0.214396  0.588154  0  4.172653  0
C  C75  1  0.53474007  0.77391062  0.08626651  1  1.58068  0  0.21445  0.588234  0  4.172241  0
C  C76  1  0.03473692  0.27390834  0.41373445  1  1.580678  0  0.214469  0.588316  0  4.17245  0
C  C77  1  0.46526062  0.22608749  0.91373375  1  1.580658  0  0.21445  0.588163  0  4.172381  0
O  O78  1  0.12977872  0.93965700  0.81430081  1  -1.189881  0  -0.322458  -0.58982  0  2.354941  0
O  O79  1  0.37022036  0.56034317  0.31430127  1  -1.189864  0  -0.322477  -0.589857  0  2.354899  0
O  O80  1  0.87022418  0.06034605  0.18569767  1  -1.18979  0  -0.322436  -0.589813  0  2.354958  0
O  O81  1  0.62977873  0.43965354  0.68569838  1  -1.189842  0  -0.322463  -0.589837  0  2.354954  0
O  O82  1  0.90755227  0.90598665  0.90642769  1  -1.170261  0  -0.308243  -0.549461  0  2.302472  0
O  O83  1  0.59244615  0.59401175  0.40642806  1  -1.170232  0  -0.308214  -0.549427  0  2.30243  0
O  O84  1  0.09245150  0.09401358  0.09357078  1  -1.170334  0  -0.308241  -0.549455  0  2.302547  0
O  O85  1  0.40754787  0.40598707  0.59357219  1  -1.170276  0  -0.308253  -0.549442  0  2.302471  0
O  O86  1  0.55028509  0.95866993  0.85414533  1  -1.157038  0  -0.317295  -0.550099  0  2.297288  0
O  O87  1  0.94971218  0.54132998  0.35414584  1  -1.157062  0  -0.317221  -0.550054  0  2.297407  0
O  O88  1  0.44971634  0.04133241  0.14585433  1  -1.156924  0  -0.317269  -0.55007  0  2.297249  0
O  O89  1  0.05028098  0.45867167  0.64585678  1  -1.157069  0  -0.317264  -0.550042  0  2.297203  0
O  O90  1  0.45209946  0.80681230  0.88470115  1  -1.171522  0  -0.317208  -0.573952  0  2.312693  0
O  O91  1  0.04789832  0.69318775  0.38470196  1  -1.171645  0  -0.317237  -0.57396  0  2.312658  0
O  O92  1  0.54789826  0.19319216  0.11529851  1  -1.171568  0  -0.31725  -0.573895  0  2.312688  0
O  O93  1  0.95210656  0.30681107  0.61529829  1  -1.171617  0  -0.317203  -0.573903  0  2.312813  0
O  O94  1  0.58945229  0.60239423  0.58631388  1  -1.189727  0  -0.307198  -0.579211  0  2.476345  0
O  O95  1  0.91054846  0.89760405  0.08631272  1  -1.189636  0  -0.307227  -0.579256  0  2.476287  0
O  O96  1  0.41054309  0.39760459  0.41368815  1  -1.189737  0  -0.307216  -0.579244  0  2.4763  0
O  O97  1  0.08945507  0.10239477  0.91368753  1  -1.189747  0  -0.307227  -0.579231  0  2.476339  0
O  O98  1  0.41608340  0.72430736  0.56842121  1  -1.159319  0  -0.297262  -0.522052  0  2.285251  0
O  O99  1  0.08392499  0.77569326  0.06842489  1  -1.159392  0  -0.2973  -0.522118  0  2.285331  0
O  O100  1  0.58391495  0.27569288  0.43158082  1  -1.159304  0  -0.297249  -0.52206  0  2.285148  0
O  O101  1  0.91608286  0.22430697  0.93157714  1  -1.159303  0  -0.297217  -0.522079  0  2.285179  0
O  O102  1  0.97368462  0.63682617  0.57967187  1  -1.185357  0  -0.314299  -0.571185  0  2.398346  0
O  O103  1  0.52631551  0.86317635  0.07967304  1  -1.185443  0  -0.314286  -0.571164  0  2.398276  0
O  O104  1  0.02631101  0.36317406  0.42032720  1  -1.185433  0  -0.314322  -0.571217  0  2.398246  0
O  O105  1  0.47368382  0.13682177  0.92032602  1  -1.185469  0  -0.314285  -0.571159  0  2.398396  0
O  O106  1  0.06273452  0.78293509  0.54332789  1  -1.124053  0  -0.298722  -0.498934  0  2.175125  0
O  O107  1  0.43726743  0.71706769  0.04332697  1  -1.124016  0  -0.298767  -0.499004  0  2.174856  0
O  O108  1  0.93726530  0.21706584  0.45667296  1  -1.12407  0  -0.298768  -0.499023  0  2.175048  0
O  O109  1  0.56273351  0.28293184  0.95667090  1  -1.123943  0  -0.298765  -0.498953  0  2.17487  0
O  O110  1  0.25658468  0.95457766  0.98535807  1  -1.221719  0  -0.560322  -0.879552  0  2.28304  0
O  O111  1  0.24341479  0.54542361  0.48535616  1  -1.221724  0  -0.5603  -0.87959  0  2.283001  0
O  O112  1  0.74341490  0.04542187  0.01464218  1  -1.221726  0  -0.560322  -0.879563  0  2.283053  0
O  O113  1  0.75658540  0.45457944  0.51464172  1  -1.221544  0  -0.560314  -0.879554  0  2.283028  0
O  O114  1  0.10832882  0.71584565  0.91366814  1  -1.221758  0  -0.544027  -0.720025  0  2.081089  0
O  O115  1  0.39166775  0.78415505  0.41366654  1  -1.221799  0  -0.54401  -0.720024  0  2.08109  0
O  O116  1  0.89167236  0.28415528  0.08633033  1  -1.221777  0  -0.543974  -0.719956  0  2.080938  0
O  O117  1  0.60833799  0.21584870  0.58633609  1  -1.222304  0  -0.544108  -0.720122  0  2.081094  0
O  O118  1  0.33676754  0.08323067  0.74464842  1  -1.22043  0  -0.568381  -0.731232  0  2.00032  0
O  O119  1  0.16322763  0.41676829  0.24464658  1  -1.220437  0  -0.568408  -0.731246  0  2.000348  0
O  O120  1  0.66323204  0.91676885  0.25535006  1  -1.220446  0  -0.568412  -0.731283  0  2.000333  0
O  O121  1  0.83676516  0.58323124  0.75535130  1  -1.220381  0  -0.568391  -0.731265  0  2.000251  0
