# generated using pymatgen
data_ZnB4H12C3(NO4)2
_symmetry_space_group_name_H-M   'P 1'
_cell_length_a   7.98002443
_cell_length_b   9.31232002
_cell_length_c   14.22769699
_cell_angle_alpha   105.21581867
_cell_angle_beta   89.99984141
_cell_angle_gamma   90.00036111
_symmetry_Int_Tables_number   1
_chemical_formula_structural   ZnB4H12C3(NO4)2
_chemical_formula_sum   'Zn4 B16 H48 C12 N8 O32'
_cell_volume   1020.23181470
_cell_formula_units_Z   4
loop_
 _symmetry_equiv_pos_site_id
 _symmetry_equiv_pos_as_xyz
  1  'x, y, z'
loop_
 _atom_site_type_symbol
 _atom_site_label
 _atom_site_symmetry_multiplicity
 _atom_site_fract_x
 _atom_site_fract_y
 _atom_site_fract_z
 _atom_site_occupancy
 _atom_site_hle17_bader_spin_density
 _atom_site_hle17_ddec_charge
 _atom_site_hle17_ddec_spin_density
 _atom_site_hle17_ddec_sum_bond_order
 _atom_site_hle17_magmom
 _atom_site_hse06_10hf_bader_spin_density
 _atom_site_hse06_10hf_ddec_charge
 _atom_site_hse06_10hf_ddec_spin_density
 _atom_site_hse06_10hf_ddec_sum_bond_order
 _atom_site_hse06_10hf_magmom
 _atom_site_hse06_bader_spin_density
 _atom_site_hse06_ddec_charge
 _atom_site_hse06_ddec_spin_density
 _atom_site_hse06_ddec_sum_bond_order
 _atom_site_hse06_magmom
 _atom_site_pbe_bader_spin_density
 _atom_site_pbe_cm5_charge
 _atom_site_pbe_ddec_charge
 _atom_site_pbe_ddec_spin_density
 _atom_site_pbe_ddec_sum_bond_order
 _atom_site_pbe_magmom
Zn  Zn0  1  0.71955058  0.04665016  0.76917136  1  0  1.113716  0  1.711926  0  0  0.924379  0  2.168969  0  0  0.96749  0  2.116112  0  0  0.761915  0.894195  0  2.20529  0
Zn  Zn1  1  0.21954657  0.45334867  0.73083740  1  0  1.113714  0  1.711882  0  0  0.924393  0  2.168983  0  0  0.967515  0  2.116119  0  0  0.761927  0.894216  0  2.205314  0
Zn  Zn2  1  0.28044532  0.95335647  0.23082898  1  0  1.113593  0  1.71206  0  0  0.924284  0  2.169096  0  0  0.967407  0  2.116238  0  0  0.761892  0.894099  0  2.205416  0
Zn  Zn3  1  0.78044808  0.54665076  0.26916779  1  0  1.11364  0  1.711926  0  0  0.924345  0  2.168996  0  0  0.967467  0  2.116136  0  0  0.761922  0.894156  0  2.205317  0
B  B4  1  0.38195097  0.04371198  0.86839227  1  0  1.207622  0  2.774071  0  0  1.041032  0  3.112942  0  0  1.073202  0  3.087908  0  0  0.05613  1.018661  0  3.130394  0
B  B5  1  0.88194845  0.45628267  0.63160724  1  0  1.207695  0  2.773979  0  0  1.041036  0  3.112941  0  0  1.073222  0  3.087909  0  0  0.056169  1.018699  0  3.130285  0
B  B6  1  0.61804493  0.95628916  0.13160623  1  0  1.207565  0  2.774193  0  0  1.040996  0  3.113032  0  0  1.073167  0  3.088001  0  0  0.056155  1.018617  0  3.130486  0
B  B7  1  0.11804244  0.54371099  0.36838620  1  0  1.207415  0  2.774437  0  0  1.040736  0  3.113578  0  0  1.072918  0  3.088542  0  0  0.056145  1.018372  0  3.130975  0
B  B8  1  0.18881551  0.14362033  0.76346003  1  0  1.176496  0  2.846718  0  0  1.014417  0  3.173461  0  0  1.057168  0  3.13133  0  0  0.121108  0.984146  0  3.203311  0
B  B9  1  0.68880815  0.35638169  0.73654400  1  0  1.176666  0  2.846563  0  0  1.014588  0  3.173233  0  0  1.057327  0  3.131126  0  0  0.121245  0.98432  0  3.203068  0
B  B10  1  0.81118666  0.85638303  0.23653893  1  0  1.176604  0  2.846581  0  0  1.014526  0  3.173284  0  0  1.057259  0  3.131191  0  0  0.121197  0.984262  0  3.203117  0
B  B11  1  0.31119402  0.64361828  0.26345496  1  0  1.176657  0  2.846314  0  0  1.014607  0  3.173015  0  0  1.057358  0  3.130871  0  0  0.121253  0.984338  0  3.202857  0
B  B12  1  0.44583754  0.28501054  0.83569444  1  0  1.216666  0  2.773423  0  0  1.045272  0  3.11087  0  0  1.078883  0  3.083121  0  0  0.071019  1.022213  0  3.129252  0
B  B13  1  0.94583842  0.21498649  0.66430434  1  0  1.216522  0  2.773456  0  0  1.045234  0  3.110664  0  0  1.078842  0  3.082913  0  0  0.070966  1.022171  0  3.129058  0
B  B14  1  0.55416086  0.71498510  0.16430223  1  0  1.21653  0  2.773404  0  0  1.045268  0  3.110537  0  0  1.078898  0  3.082738  0  0  0.070972  1.022198  0  3.128933  0
B  B15  1  0.05416625  0.78501278  0.33568956  1  0  1.216631  0  2.77348  0  0  1.045334  0  3.110712  0  0  1.07893  0  3.083003  0  0  0.071034  1.022264  0  3.129107  0
B  B16  1  0.36481380  0.27618717  0.00068156  1  0  1.142584  0  2.916764  0  0  0.990368  0  3.241021  0  0  1.032194  0  3.198487  0  0  0.093615  0.959946  0  3.272983  0
B  B17  1  0.86481475  0.22381687  0.49931785  1  0  1.142672  0  2.916806  0  0  0.990412  0  3.241088  0  0  1.032259  0  3.198546  0  0  0.093669  0.959996  0  3.273053  0
B  B18  1  0.63517709  0.72382472  0.99932338  1  0  1.142685  0  2.916554  0  0  0.990407  0  3.241022  0  0  1.032219  0  3.198517  0  0  0.093718  0.959985  0  3.272981  0
B  B19  1  0.13517739  0.77618550  0.50067949  1  0  1.142702  0  2.916701  0  0  0.990381  0  3.241207  0  0  1.032203  0  3.198688  0  0  0.093665  0.959961  0  3.273176  0
H  H20  1  0.51575298  0.88616661  0.90679517  1  0  0.401911  0  0.892623  0  0  0.3728  0  0.97056  0  0  0.382054  0  0.956633  0  0  0.311966  0.366319  0  0.978961  0
H  H21  1  0.01575136  0.61382923  0.59320081  1  0  0.401915  0  0.892704  0  0  0.372804  0  0.970574  0  0  0.382063  0  0.956641  0  0  0.311959  0.366323  0  0.979047  0
H  H22  1  0.48424292  0.11383056  0.09319688  1  0  0.401899  0  0.892638  0  0  0.372813  0  0.970527  0  0  0.382069  0  0.9566  0  0  0.31199  0.366336  0  0.978918  0
H  H23  1  0.98424204  0.38617512  0.40679976  1  0  0.401899  0  0.892645  0  0  0.372785  0  0.970576  0  0  0.382045  0  0.95664  0  0  0.311997  0.366305  0  0.978997  0
H  H24  1  0.37109058  0.44372368  0.12332090  1  0  0.425401  0  0.875028  0  0  0.395568  0  0.935754  0  0  0.405886  0  0.920779  0  0  0.32329  0.388462  0  0.946054  0
H  H25  1  0.87108304  0.05628156  0.37667659  1  0  0.425393  0  0.875068  0  0  0.395582  0  0.935754  0  0  0.405898  0  0.920782  0  0  0.323338  0.388478  0  0.946053  0
H  H26  1  0.62891159  0.55628676  0.87667459  1  0  0.425322  0  0.875166  0  0  0.395581  0  0.935764  0  0  0.405903  0  0.92078  0  0  0.323282  0.388473  0  0.946069  0
H  H27  1  0.12892038  0.94371994  0.62331776  1  0  0.425446  0  0.874986  0  0  0.395607  0  0.935716  0  0  0.405923  0  0.920743  0  0  0.323339  0.388506  0  0.946011  0
H  H28  1  0.65832140  0.83094259  0.43753911  1  0  0.081217  0  0.932875  0  0  0.099459  0  0.991932  0  0  0.10058  0  0.991952  0  0  0.09867  0.098531  0  0.992123  0
H  H29  1  0.15832087  0.66905994  0.06247037  1  0  0.081293  0  0.93274  0  0  0.099466  0  0.991867  0  0  0.10059  0  0.991884  0  0  0.098704  0.098533  0  0.992058  0
H  H30  1  0.34169330  0.16904303  0.56246887  1  0  0.081229  0  0.932817  0  0  0.099434  0  0.991936  0  0  0.100559  0  0.991951  0  0  0.09869  0.098513  0  0.992114  0
H  H31  1  0.84168130  0.33095225  0.93753110  1  0  0.081318  0  0.932757  0  0  0.099504  0  0.991872  0  0  0.100629  0  0.991887  0  0  0.098718  0.09858  0  0.992049  0
H  H32  1  0.67421180  0.40828007  0.38578330  1  0  0.310245  0  0.87975  0  0  0.302648  0  0.930558  0  0  0.30833  0  0.926804  0  0  0.309505  0.29859  0  0.933284  0
H  H33  1  0.17421365  0.09171605  0.11421395  1  0  0.310221  0  0.879796  0  0  0.302598  0  0.930615  0  0  0.308277  0  0.926867  0  0  0.309478  0.298538  0  0.933341  0
H  H34  1  0.32578535  0.59170726  0.61421799  1  0  0.310195  0  0.879924  0  0  0.302657  0  0.930637  0  0  0.308338  0  0.926886  0  0  0.309498  0.298598  0  0.93337  0
H  H35  1  0.82579729  0.90829070  0.88578500  1  0  0.310274  0  0.879887  0  0  0.30269  0  0.930628  0  0  0.308371  0  0.926879  0  0  0.309518  0.298632  0  0.933358  0
H  H36  1  0.60857420  0.57372403  0.53170158  1  0  0.050247  0  0.953019  0  0  0.069105  0  1.015404  0  0  0.069097  0  1.01624  0  0  0.106043  0.069008  0  1.014945  0
H  H37  1  0.10856115  0.92626876  0.96829864  1  0  0.050271  0  0.953079  0  0  0.069134  0  1.015433  0  0  0.069135  0  1.016254  0  0  0.106031  0.069032  0  1.014985  0
H  H38  1  0.39141669  0.42626546  0.46830086  1  0  0.050087  0  0.953305  0  0  0.069004  0  1.015602  0  0  0.068992  0  1.016426  0  0  0.105927  0.068902  0  1.015147  0
H  H39  1  0.89144102  0.07373940  0.03169708  1  0  0.050209  0  0.953067  0  0  0.069165  0  1.015343  0  0  0.069158  0  1.016182  0  0  0.106022  0.069068  0  1.014883  0
H  H40  1  0.51756218  0.97331023  0.58931872  1  0  0.056191  0  0.92826  0  0  0.075319  0  0.991493  0  0  0.0752  0  0.992032  0  0  0.107195  0.075313  0  0.99118  0
H  H41  1  0.01756872  0.52667855  0.91069339  1  0  0.056095  0  0.928404  0  0  0.07535  0  0.991482  0  0  0.075228  0  0.992032  0  0  0.107253  0.075349  0  0.99115  0
H  H42  1  0.48244375  0.02668587  0.41068578  1  0  0.05616  0  0.928394  0  0  0.075347  0  0.991542  0  0  0.075233  0  0.992072  0  0  0.107226  0.075349  0  0.991211  0
H  H43  1  0.98243847  0.47331644  0.08931089  1  0  0.05609  0  0.92843  0  0  0.075308  0  0.991548  0  0  0.075185  0  0.992099  0  0  0.107246  0.075307  0  0.991217  0
H  H44  1  0.51428365  0.50446110  0.35785698  1  0  0.311881  0  0.911063  0  0  0.29716  0  0.970983  0  0  0.304324  0  0.965439  0  0  0.299183  0.292072  0  0.974934  0
H  H45  1  0.01428556  0.99554576  0.14214332  1  0  0.31196  0  0.910999  0  0  0.297198  0  0.970957  0  0  0.304366  0  0.965398  0  0  0.299202  0.292109  0  0.97491  0
H  H46  1  0.48571225  0.49553511  0.64214614  1  0  0.311927  0  0.91106  0  0  0.297149  0  0.97107  0  0  0.304313  0  0.965521  0  0  0.299174  0.292062  0  0.975021  0
H  H47  1  0.98571786  0.00446561  0.85785447  1  0  0.312085  0  0.910753  0  0  0.297289  0  0.970783  0  0  0.30446  0  0.965217  0  0  0.299226  0.292201  0  0.974735  0
H  H48  1  0.45717068  0.75857619  0.45154644  1  0  0.079798  0  0.952628  0  0  0.098777  0  1.013217  0  0  0.099675  0  1.013202  0  0  0.106404  0.098181  0  1.013152  0
H  H49  1  0.95716399  0.74141970  0.04845568  1  0  0.07979  0  0.95264  0  0  0.09873  0  1.013271  0  0  0.099628  0  1.013261  0  0  0.106389  0.098132  0  1.013201  0
H  H50  1  0.54284026  0.24142360  0.54845460  1  0  0.079792  0  0.952585  0  0  0.098765  0  1.013191  0  0  0.099662  0  1.013181  0  0  0.106402  0.098166  0  1.013125  0
H  H51  1  0.04283693  0.25858823  0.95154281  1  0  0.079753  0  0.952699  0  0  0.098731  0  1.013288  0  0  0.09963  0  1.013273  0  0  0.106383  0.098131  0  1.013222  0
H  H52  1  0.49077701  0.81233381  0.62970404  1  0  0.068016  0  0.926933  0  0  0.087318  0  0.985947  0  0  0.088007  0  0.985743  0  0  0.109426  0.086672  0  0.986306  0
H  H53  1  0.99077705  0.68764545  0.87030008  1  0  0.068048  0  0.926885  0  0  0.087357  0  0.985889  0  0  0.088049  0  0.985685  0  0  0.109472  0.08671  0  0.986248  0
H  H54  1  0.50923017  0.18766001  0.37030070  1  0  0.068029  0  0.926822  0  0  0.087321  0  0.985846  0  0  0.088002  0  0.985655  0  0  0.10943  0.086676  0  0.986203  0
H  H55  1  0.00923138  0.31234550  0.12969844  1  0  0.068065  0  0.926777  0  0  0.087318  0  0.985854  0  0  0.08801  0  0.985652  0  0  0.109442  0.08667  0  0.986212  0
H  H56  1  0.79669938  0.62947596  0.48910372  1  0  0.066431  0  0.953276  0  0  0.081472  0  1.017608  0  0  0.082541  0  1.016888  0  0  0.11451  0.080607  0  1.018249  0
H  H57  1  0.29669016  0.87052879  0.01089240  1  0  0.06641  0  0.953345  0  0  0.081468  0  1.01762  0  0  0.08253  0  1.016911  0  0  0.114532  0.080605  0  1.018259  0
H  H58  1  0.20329527  0.37050966  0.51090426  1  0  0.066433  0  0.953211  0  0  0.081494  0  1.017513  0  0  0.082561  0  1.016794  0  0  0.114478  0.080629  0  1.018147  0
H  H59  1  0.70331201  0.12947914  0.98910609  1  0  0.066478  0  0.953169  0  0  0.081517  0  1.017547  0  0  0.082582  0  1.016835  0  0  0.114525  0.080651  0  1.018187  0
H  H60  1  0.79269453  0.79584857  0.64508923  1  0  0.318188  0  0.894301  0  0  0.30713  0  0.946638  0  0  0.313773  0  0.942094  0  0  0.298119  0.30236  0  0.949948  0
H  H61  1  0.29269784  0.70414288  0.85491693  1  0  0.318032  0  0.894393  0  0  0.307004  0  0.946669  0  0  0.313645  0  0.942135  0  0  0.298119  0.302234  0  0.949977  0
H  H62  1  0.20731391  0.20414729  0.35491805  1  0  0.318174  0  0.894345  0  0  0.307128  0  0.946678  0  0  0.313769  0  0.942139  0  0  0.29816  0.302357  0  0.949983  0
H  H63  1  0.70730809  0.29585369  0.14508204  1  0  0.318063  0  0.894341  0  0  0.307031  0  0.946649  0  0  0.313672  0  0.942112  0  0  0.298099  0.30226  0  0.949957  0
H  H64  1  0.81744433  0.94162990  0.59916868  1  0  0.313544  0  0.895357  0  0  0.301106  0  0.950701  0  0  0.307473  0  0.946537  0  0  0.305275  0.296561  0  0.953673  0
H  H65  1  0.31744287  0.55835783  0.90083651  1  0  0.313469  0  0.895393  0  0  0.301036  0  0.950728  0  0  0.307398  0  0.946579  0  0  0.305289  0.296493  0  0.953693  0
H  H66  1  0.18256159  0.05836169  0.40083560  1  0  0.313464  0  0.895359  0  0  0.301039  0  0.950705  0  0  0.307401  0  0.946557  0  0  0.305276  0.296495  0  0.953677  0
H  H67  1  0.68256306  0.44164085  0.09916430  1  0  0.313488  0  0.895287  0  0  0.301075  0  0.950603  0  0  0.307436  0  0.946454  0  0  0.305305  0.296531  0  0.953571  0
C  C68  1  0.57406412  0.86492447  0.58705501  1  0  0.08817  0  3.627844  0  0  0.026653  0  3.899282  0  0  0.031313  0  3.911845  0  0  -0.068652  0.023588  0  3.890593  0
C  C69  1  0.07405765  0.63506284  0.91294999  1  0  0.08827  0  3.627713  0  0  0.026698  0  3.899113  0  0  0.031356  0  3.911673  0  0  -0.068751  0.023632  0  3.890415  0
C  C70  1  0.42594055  0.13506947  0.41294835  1  0  0.088226  0  3.627862  0  0  0.026714  0  3.899287  0  0  0.031381  0  3.91185  0  0  -0.068652  0.023648  0  3.890595  0
C  C71  1  0.92593700  0.36494092  0.08705749  1  0  0.088356  0  3.627581  0  0  0.026835  0  3.899011  0  0  0.031492  0  3.911573  0  0  -0.068629  0.023769  0  3.890318  0
C  C72  1  0.58535246  0.77150423  0.48129242  1  0  -0.173089  0  3.66061  0  0  -0.213574  0  3.92527  0  0  -0.216005  0  3.93925  0  0  -0.163402  -0.211691  0  3.915497  0
C  C73  1  0.08534163  0.72848671  0.01870824  1  0  -0.173169  0  3.660333  0  0  -0.213618  0  3.924961  0  0  -0.216058  0  3.938945  0  0  -0.163365  -0.211724  0  3.915173  0
C  C74  1  0.41466224  0.22847959  0.51871026  1  0  -0.173068  0  3.660383  0  0  -0.213576  0  3.92511  0  0  -0.216014  0  3.939097  0  0  -0.163402  -0.211688  0  3.915325  0
C  C75  1  0.91465928  0.27152046  0.98128587  1  0  -0.173285  0  3.660166  0  0  -0.21373  0  3.924884  0  0  -0.216167  0  3.938871  0  0  -0.163481  -0.211847  0  3.9151  0
C  C76  1  0.66197521  0.61966013  0.47469559  1  0  0.089231  0  3.622433  0  0  0.031578  0  3.886749  0  0  0.036164  0  3.898819  0  0  -0.075468  0.02853  0  3.878551  0
C  C77  1  0.16197280  0.88034756  0.02530577  1  0  0.089156  0  3.622303  0  0  0.031503  0  3.886485  0  0  0.036092  0  3.898557  0  0  -0.075548  0.028451  0  3.878284  0
C  C78  1  0.33801944  0.38033339  0.52531261  1  0  0.089308  0  3.622612  0  0  0.03168  0  3.886798  0  0  0.036277  0  3.898861  0  0  -0.075342  0.028639  0  3.878594  0
C  C79  1  0.83803187  0.11966412  0.97468856  1  0  0.089261  0  3.622185  0  0  0.031456  0  3.886672  0  0  0.036036  0  3.898758  0  0  -0.07547  0.028407  0  3.87847  0
N  N80  1  0.73731515  0.89348284  0.63889447  1  0  -0.652729  0  3.077275  0  0  -0.581414  0  3.338655  0  0  -0.601588  0  3.332247  0  0  -0.618265  -0.567372  0  3.342978  0
N  N81  1  0.23731816  0.60650393  0.86111118  1  0  -0.652522  0  3.077187  0  0  -0.581253  0  3.338619  0  0  -0.601429  0  3.332212  0  0  -0.618326  -0.567215  0  3.342943  0
N  N82  1  0.26268827  0.10651331  0.36110934  1  0  -0.652559  0  3.077254  0  0  -0.581327  0  3.338684  0  0  -0.601501  0  3.332277  0  0  -0.618301  -0.567288  0  3.343007  0
N  N83  1  0.76268526  0.39349253  0.13888917  1  0  -0.652521  0  3.077099  0  0  -0.581279  0  3.338531  0  0  -0.601451  0  3.332126  0  0  -0.618312  -0.567241  0  3.342854  0
N  N84  1  0.63907804  0.51079893  0.37830861  1  0  -0.650724  0  3.089269  0  0  -0.586938  0  3.361077  0  0  -0.606173  0  3.353513  0  0  -0.621727  -0.573577  0  3.366216  0
N  N85  1  0.13907563  0.98920585  0.12169164  1  0  -0.650762  0  3.089317  0  0  -0.586886  0  3.361015  0  0  -0.606125  0  3.353451  0  0  -0.621696  -0.573528  0  3.36616  0
N  N86  1  0.36092288  0.48919741  0.62169313  1  0  -0.650754  0  3.089637  0  0  -0.587001  0  3.361403  0  0  -0.606238  0  3.353839  0  0  -0.621741  -0.573647  0  3.36655  0
N  N87  1  0.86093030  0.01079868  0.87830686  1  0  -0.651062  0  3.089351  0  0  -0.587124  0  3.361061  0  0  -0.606369  0  3.353505  0  0  -0.62181  -0.573767  0  3.366203  0
O  O88  1  0.50719341  0.13406963  0.82671003  1  0  -0.96329  0  2.198001  0  0  -0.823361  0  2.482214  0  0  -0.852866  0  2.460515  0  0  -0.239687  -0.8027  0  2.496497  0
O  O89  1  0.00718825  0.36593093  0.67329380  1  0  -0.963298  0  2.197979  0  0  -0.823455  0  2.482266  0  0  -0.852967  0  2.460567  0  0  -0.23974  -0.802795  0  2.496541  0
O  O90  1  0.49279998  0.86593004  0.17329239  1  0  -0.963301  0  2.197953  0  0  -0.823359  0  2.482057  0  0  -0.852894  0  2.460381  0  0  -0.23972  -0.802667  0  2.496316  0
O  O91  1  0.99280765  0.63407366  0.32670400  1  0  -0.963309  0  2.198005  0  0  -0.823405  0  2.48219  0  0  -0.852935  0  2.460518  0  0  -0.239766  -0.802723  0  2.496449  0
O  O92  1  0.28871189  0.26862076  0.77159592  1  0  -0.903825  0  2.218802  0  0  -0.772148  0  2.505826  0  0  -0.80216  0  2.479649  0  0  -0.209127  -0.751008  0  2.52301  0
O  O93  1  0.78870439  0.23137362  0.72839868  1  0  -0.903794  0  2.218556  0  0  -0.772179  0  2.505657  0  0  -0.802182  0  2.479481  0  0  -0.209231  -0.751037  0  2.522831  0
O  O94  1  0.71129404  0.73138056  0.22840051  1  0  -0.903835  0  2.218651  0  0  -0.772183  0  2.505687  0  0  -0.802194  0  2.47951  0  0  -0.209168  -0.751043  0  2.522868  0
O  O95  1  0.21129276  0.76862605  0.27160374  1  0  -0.903846  0  2.218651  0  0  -0.772224  0  2.505713  0  0  -0.802233  0  2.47954  0  0  -0.209195  -0.751082  0  2.522893  0
O  O96  1  0.43947214  0.89325899  0.85415908  1  0  -0.854391  0  1.891751  0  0  -0.786292  0  2.122551  0  0  -0.805781  0  2.097279  0  0  -0.418536  -0.77231  0  2.138432  0
O  O97  1  0.93947822  0.60674314  0.64583891  1  0  -0.854415  0  1.891698  0  0  -0.786352  0  2.122509  0  0  -0.805838  0  2.097221  0  0  -0.418592  -0.772371  0  2.138439  0
O  O98  1  0.56051749  0.10674302  0.14584242  1  0  -0.854359  0  1.891715  0  0  -0.78633  0  2.122565  0  0  -0.805817  0  2.097281  0  0  -0.41861  -0.772352  0  2.138439  0
O  O99  1  0.06051392  0.39326361  0.35416004  1  0  -0.854319  0  1.891797  0  0  -0.786233  0  2.122637  0  0  -0.805732  0  2.09738  0  0  -0.418593  -0.772254  0  2.138525  0
O  O100  1  0.22111388  0.04311905  0.81537877  1  0  -0.854434  0  2.068653  0  0  -0.740739  0  2.31737  0  0  -0.768439  0  2.29577  0  0  -0.193895  -0.721337  0  2.331807  0
O  O101  1  0.72111610  0.45688615  0.68462143  1  0  -0.854562  0  2.068689  0  0  -0.740731  0  2.317292  0  0  -0.768424  0  2.295689  0  0  -0.193891  -0.721344  0  2.331732  0
O  O102  1  0.77887701  0.95688957  0.18462479  1  0  -0.854455  0  2.068817  0  0  -0.740763  0  2.317563  0  0  -0.768462  0  2.295973  0  0  -0.193895  -0.72137  0  2.332007  0
O  O103  1  0.27888231  0.54311270  0.31537731  1  0  -0.854392  0  2.068514  0  0  -0.740744  0  2.317274  0  0  -0.768438  0  2.295673  0  0  -0.193914  -0.72135  0  2.331712  0
O  O104  1  0.05643649  0.11704946  0.69964251  1  0  -0.874518  0  2.170175  0  0  -0.760461  0  2.432815  0  0  -0.787903  0  2.408594  0  0  -0.18936  -0.741234  0  2.44898  0
O  O105  1  0.55644988  0.38295395  0.80035799  1  0  -0.874679  0  2.170418  0  0  -0.760653  0  2.433104  0  0  -0.788097  0  2.408877  0  0  -0.189518  -0.741426  0  2.44927  0
O  O106  1  0.94356191  0.88295858  0.30035460  1  0  -0.874556  0  2.170071  0  0  -0.760532  0  2.432745  0  0  -0.787953  0  2.4085  0  0  -0.189478  -0.741307  0  2.448912  0
O  O107  1  0.44355480  0.61704595  0.19964167  1  0  -0.874614  0  2.170357  0  0  -0.760554  0  2.432977  0  0  -0.788003  0  2.408754  0  0  -0.189449  -0.741327  0  2.449147  0
O  O108  1  0.35937046  0.12280160  0.97307404  1  0  -0.894932  0  2.112918  0  0  -0.779961  0  2.365848  0  0  -0.80752  0  2.344352  0  0  -0.208474  -0.760477  0  2.380148  0
O  O109  1  0.85937120  0.37719445  0.52692665  1  0  -0.894982  0  2.113039  0  0  -0.779907  0  2.365959  0  0  -0.807549  0  2.344512  0  0  -0.208461  -0.760441  0  2.380277  0
O  O110  1  0.64062168  0.87720737  0.02692537  1  0  -0.894944  0  2.113001  0  0  -0.779952  0  2.36593  0  0  -0.807504  0  2.344431  0  0  -0.208468  -0.760464  0  2.380233  0
O  O111  1  0.14062470  0.62280230  0.47307025  1  0  -0.894926  0  2.112988  0  0  -0.779876  0  2.365923  0  0  -0.807452  0  2.344438  0  0  -0.208468  -0.760403  0  2.380237  0
O  O112  1  0.39799761  0.35947009  0.93603960  1  0  -0.876292  0  2.094805  0  0  -0.769985  0  2.352163  0  0  -0.795584  0  2.328662  0  0  -0.20386  -0.751777  0  2.367698  0
O  O113  1  0.89800572  0.14052367  0.56395397  1  0  -0.876269  0  2.094629  0  0  -0.769979  0  2.35201  0  0  -0.795572  0  2.328497  0  0  -0.203896  -0.751775  0  2.367552  0
O  O114  1  0.60199579  0.64053005  0.06395729  1  0  -0.876234  0  2.094712  0  0  -0.76997  0  2.352109  0  0  -0.79556  0  2.328597  0  0  -0.20386  -0.751768  0  2.367652  0
O  O115  1  0.10199018  0.85947332  0.43604016  1  0  -0.876331  0  2.094686  0  0  -0.770018  0  2.352062  0  0  -0.795606  0  2.328557  0  0  -0.203954  -0.751811  0  2.367603  0
O  O116  1  0.33513652  0.33951260  0.09789799  1  0  -0.819204  0  1.950446  0  0  -0.746574  0  2.172707  0  0  -0.769199  0  2.143276  0  0  -0.382795  -0.730369  0  2.192618  0
O  O117  1  0.83513131  0.16048840  0.40210315  1  0  -0.819244  0  1.950522  0  0  -0.746616  0  2.172791  0  0  -0.769238  0  2.143356  0  0  -0.38285  -0.730403  0  2.192696  0
O  O118  1  0.66484685  0.66049556  0.90209774  1  0  -0.819106  0  1.950327  0  0  -0.746579  0  2.172522  0  0  -0.769207  0  2.1431  0  0  -0.382811  -0.730384  0  2.192459  0
O  O119  1  0.16486961  0.83951427  0.59789073  1  0  -0.819303  0  1.95051  0  0  -0.746631  0  2.172813  0  0  -0.769268  0  2.143411  0  0  -0.38282  -0.730396  0  2.192671  0
