# generated using pymatgen
data_ZnH6C10N4O5
_symmetry_space_group_name_H-M   'P 1'
_cell_length_a   7.33710813
_cell_length_b   8.04363098
_cell_length_c   9.65970407
_cell_angle_alpha   112.56278257
_cell_angle_beta   104.94220318
_cell_angle_gamma   94.33489182
_symmetry_Int_Tables_number   1
_chemical_formula_structural   ZnH6C10N4O5
_chemical_formula_sum   'Zn2 H12 C20 N8 O10'
_cell_volume   498.82571723
_cell_formula_units_Z   2
loop_
 _symmetry_equiv_pos_site_id
 _symmetry_equiv_pos_as_xyz
  1  'x, y, z'
loop_
 _atom_site_type_symbol
 _atom_site_label
 _atom_site_symmetry_multiplicity
 _atom_site_fract_x
 _atom_site_fract_y
 _atom_site_fract_z
 _atom_site_occupancy
 _atom_site_hle17_bader_spin_density
 _atom_site_hle17_ddec_charge
 _atom_site_hle17_ddec_spin_density
 _atom_site_hle17_ddec_sum_bond_order
 _atom_site_hle17_magmom
 _atom_site_hse06_10hf_bader_spin_density
 _atom_site_hse06_10hf_ddec_charge
 _atom_site_hse06_10hf_ddec_spin_density
 _atom_site_hse06_10hf_ddec_sum_bond_order
 _atom_site_hse06_10hf_magmom
 _atom_site_hse06_bader_spin_density
 _atom_site_hse06_ddec_charge
 _atom_site_hse06_ddec_spin_density
 _atom_site_hse06_ddec_sum_bond_order
 _atom_site_hse06_magmom
 _atom_site_pbe_bader_spin_density
 _atom_site_pbe_cm5_charge
 _atom_site_pbe_ddec_charge
 _atom_site_pbe_ddec_spin_density
 _atom_site_pbe_ddec_sum_bond_order
 _atom_site_pbe_magmom
Zn  Zn0  1  0.44642652  0.65310228  0.89541681  1  0  1.133981  0  1.774085  0  0  0.951028  0  2.267866  0  0  0.999167  0  2.203333  0  0  0.715011  0.918272  0  2.310534  0
Zn  Zn1  1  0.55357282  0.34689769  0.10458624  1  0  1.13401  0  1.773995  0  0  0.951048  0  2.26777  0  0  0.99919  0  2.203231  0  0  0.715042  0.918285  0  2.310436  0
H  H2  1  0.81547398  0.71997308  0.49203147  1  0  0.123692  0  0.9592  0  0  0.123754  0  1.035212  0  0  0.129119  0  1.030346  0  0  0.114212  0.119756  0  1.038889  0
H  H3  1  0.18453290  0.28002260  0.50796866  1  0  0.123709  0  0.959213  0  0  0.123762  0  1.035224  0  0  0.129127  0  1.030356  0  0  0.114232  0.119765  0  1.038899  0
H  H4  1  0.66323131  0.08728388  0.78492023  1  0  0.113524  0  0.985371  0  0  0.119302  0  1.052827  0  0  0.124075  0  1.048951  0  0  0.107494  0.115776  0  1.055821  0
H  H5  1  0.33676713  0.91271193  0.21507824  1  0  0.113548  0  0.985364  0  0  0.119314  0  1.052841  0  0  0.124087  0  1.048964  0  0  0.107491  0.115788  0  1.055835  0
H  H6  1  0.14555763  0.41931962  0.33332143  1  0  0.296077  0  0.917639  0  0  0.274191  0  0.983441  0  0  0.283045  0  0.976052  0  0  0.318481  0.267819  0  0.988888  0
H  H7  1  0.85443472  0.58068036  0.66667400  1  0  0.296073  0  0.917688  0  0  0.274191  0  0.983482  0  0  0.283045  0  0.976092  0  0  0.318482  0.267818  0  0.988932  0
H  H8  1  0.77336469  0.92405713  0.98036657  1  0  0.315456  0  0.86654  0  0  0.29138  0  0.936723  0  0  0.300121  0  0.929247  0  0  0.335495  0.285496  0  0.941345  0
H  H9  1  0.22663980  0.07594683  0.01963460  1  0  0.315391  0  0.86663  0  0  0.291352  0  0.936785  0  0  0.300089  0  0.929321  0  0  0.335472  0.285469  0  0.941404  0
H  H10  1  0.19034847  0.65442310  0.04728066  1  0  0.443996  0  0.860219  0  0  0.409227  0  0.928943  0  0  0.42099  0  0.912228  0  0  0.292354  0.40156  0  0.939859  0
H  H11  1  0.80964699  0.34557819  0.95271476  1  0  0.443961  0  0.860263  0  0  0.409172  0  0.929022  0  0  0.420937  0  0.912301  0  0  0.292333  0.401504  0  0.939939  0
H  H12  1  0.11095466  0.73305158  0.91077547  1  0  0.429167  0  0.874083  0  0  0.393752  0  0.944918  0  0  0.40541  0  0.927827  0  0  0.294293  0.385689  0  0.956687  0
H  H13  1  0.88904251  0.26695108  0.08922176  1  0  0.429026  0  0.874271  0  0  0.393653  0  0.945029  0  0  0.40531  0  0.927941  0  0  0.294256  0.38559  0  0.956796  0
C  C14  1  0.86590060  0.87082439  0.35983326  1  0  -0.038724  0  3.723693  0  0  -0.025559  0  3.957433  0  0  -0.028874  0  3.977475  0  0  0.003979  -0.02379  0  3.94465  0
C  C15  1  0.13409986  0.12917412  0.64016542  1  0  -0.038629  0  3.723608  0  0  -0.025602  0  3.95744  0  0  -0.028918  0  3.977479  0  0  0.003947  -0.023833  0  3.944655  0
C  C16  1  0.71763371  0.74349274  0.21425811  1  0  0.495079  0  3.885268  0  0  0.450142  0  4.166182  0  0  0.475614  0  4.171913  0  0  0.227802  0.432825  0  4.162207  0
C  C17  1  0.28236061  0.25651004  0.78574376  1  0  0.495201  0  3.885035  0  0  0.450277  0  4.16598  0  0  0.475752  0  4.171705  0  0  0.227881  0.432961  0  4.162003  0
C  C18  1  0.89725971  0.84235963  0.49721881  1  0  -0.044956  0  3.628769  0  0  -0.080188  0  3.883617  0  0  -0.078834  0  3.899227  0  0  -0.059762  -0.081085  0  3.873612  0
C  C19  1  0.10274657  0.15763326  0.50277827  1  0  -0.045028  0  3.628893  0  0  -0.080173  0  3.883784  0  0  -0.078816  0  3.89939  0  0  -0.05973  -0.08107  0  3.873779  0
C  C20  1  0.96999520  0.02855500  0.36240423  1  0  -0.051396  0  3.741163  0  0  -0.040597  0  3.982685  0  0  -0.044638  0  4.002738  0  0  0.001513  -0.038839  0  3.969853  0
C  C21  1  0.03001195  0.97144212  0.63760054  1  0  -0.051632  0  3.741278  0  0  -0.040639  0  3.98272  0  0  -0.04468  0  4.002776  0  0  0.00154  -0.03888  0  3.969887  0
C  C22  1  0.93884654  0.05017620  0.21490428  1  0  0.503598  0  3.832487  0  0  0.448121  0  4.126335  0  0  0.475731  0  4.128008  0  0  0.237605  0.430532  0  4.123351  0
C  C23  1  0.06115623  0.94982643  0.78509716  1  0  0.503674  0  3.832261  0  0  0.448066  0  4.126299  0  0  0.475675  0  4.127976  0  0  0.237608  0.430475  0  4.123316  0
C  C24  1  0.59350307  0.04928293  0.66023800  1  0  -0.071391  0  3.668362  0  0  -0.101809  0  3.91546  0  0  -0.10165  0  3.931966  0  0  -0.075782  -0.102025  0  3.904727  0
C  C25  1  0.40649537  0.95071288  0.33976047  1  0  -0.071406  0  3.668349  0  0  -0.101882  0  3.915418  0  0  -0.101723  0  3.931921  0  0  -0.075793  -0.102099  0  3.904687  0
C  C26  1  0.42509281  0.75578133  0.63944818  1  0  0.431957  0  3.92437  0  0  0.393936  0  4.217591  0  0  0.414608  0  4.226306  0  0  0.195708  0.380015  0  4.211004  0
C  C27  1  0.57490966  0.24421993  0.36055278  1  0  0.431926  0  3.924322  0  0  0.393926  0  4.217487  0  0  0.4146  0  4.2262  0  0  0.19575  0.380004  0  4.2109  0
C  C28  1  0.24454408  0.65154220  0.31373881  1  0  0.488417  0  3.855282  0  0  0.437338  0  4.146595  0  0  0.4645  0  4.149446  0  0  0.2258  0.419542  0  4.144081  0
C  C29  1  0.75544684  0.34845783  0.68625842  1  0  0.488333  0  3.855349  0  0  0.437354  0  4.146584  0  0  0.464526  0  4.149419  0  0  0.225804  0.419554  0  4.144078  0
C  C30  1  0.46672489  0.88067541  0.56976259  1  0  -0.036982  0  3.741559  0  0  -0.025062  0  3.975461  0  0  -0.026917  0  3.995227  0  0  -0.004083  -0.024109  0  3.962373  0
C  C31  1  0.53327415  0.11932316  0.43023789  1  0  -0.036945  0  3.741435  0  0  -0.024944  0  3.975291  0  0  -0.026799  0  3.995056  0  0  -0.004058  -0.023991  0  3.962201  0
C  C32  1  0.37300386  0.83077607  0.40728119  1  0  -0.053244  0  3.757008  0  0  -0.037493  0  3.988691  0  0  -0.041614  0  4.009195  0  0  -0.004781  -0.03476  0  3.974724  0
C  C33  1  0.62699067  0.16922117  0.59271693  1  0  -0.053091  0  3.756905  0  0  -0.037511  0  3.98873  0  0  -0.041637  0  4.009236  0  0  -0.004765  -0.034777  0  3.974765  0
N  N34  1  0.22522830  0.55113320  0.39615300  1  0  -0.244296  0  3.43511  0  0  -0.185376  0  3.686701  0  0  -0.203334  0  3.701033  0  0  -0.281442  -0.173654  0  3.676986  0
N  N35  1  0.77476965  0.44886675  0.60384665  1  0  -0.244281  0  3.435252  0  0  -0.185386  0  3.686804  0  0  -0.203345  0  3.70113  0  0  -0.281425  -0.173663  0  3.677092  0
N  N36  1  0.30611617  0.59614555  0.55307592  1  0  -0.316111  0  2.969535  0  0  -0.3053  0  3.259264  0  0  -0.316948  0  3.272411  0  0  -0.245626  -0.297326  0  3.249688  0
N  N37  1  0.69388299  0.40385986  0.44692463  1  0  -0.316135  0  2.969562  0  0  -0.30535  0  3.259297  0  0  -0.316999  0  3.272444  0  0  -0.245692  -0.297374  0  3.249721  0
N  N38  1  0.68954648  0.77290145  0.08446076  1  0  -0.348649  0  3.158841  0  0  -0.294358  0  3.46295  0  0  -0.314016  0  3.471804  0  0  -0.255197  -0.281457  0  3.456882  0
N  N39  1  0.31045459  0.22709981  0.91553889  1  0  -0.348732  0  3.158812  0  0  -0.294387  0  3.46293  0  0  -0.314042  0  3.47178  0  0  -0.255218  -0.281486  0  3.45686  0
N  N40  1  0.80410471  0.91813378  0.08800777  1  0  -0.229349  0  3.398185  0  0  -0.176727  0  3.643129  0  0  -0.192446  0  3.656351  0  0  -0.275371  -0.165802  0  3.632708  0
N  N41  1  0.19589946  0.08186884  0.91199500  1  0  -0.229125  0  3.39804  0  0  -0.176578  0  3.643117  0  0  -0.192299  0  3.656338  0  0  -0.275261  -0.165655  0  3.632697  0
O  O42  1  0.50552552  0.80583709  0.79117134  1  0  -0.660311  0  2.066928  0  0  -0.589248  0  2.353737  0  0  -0.617305  0  2.34038  0  0  -0.347809  -0.568724  0  2.360821  0
O  O43  1  0.49447663  0.19416282  0.20883121  1  0  -0.660281  0  2.066962  0  0  -0.589223  0  2.35375  0  0  -0.61728  0  2.340397  0  0  -0.34779  -0.568696  0  2.360829  0
O  O44  1  0.15375516  0.58608767  0.16773633  1  0  -0.576601  0  1.975698  0  0  -0.525093  0  2.201056  0  0  -0.547389  0  2.193845  0  0  -0.313814  -0.510717  0  2.206061  0
O  O45  1  0.84624280  0.41391224  0.83226123  1  0  -0.576601  0  1.975743  0  0  -0.525084  0  2.201028  0  0  -0.547385  0  2.193815  0  0  -0.313814  -0.510707  0  2.206035  0
O  O46  1  0.60664775  0.61264431  0.21459146  1  0  -0.648096  0  2.169128  0  0  -0.581176  0  2.472903  0  0  -0.608357  0  2.456737  0  0  -0.32782  -0.562195  0  2.483263  0
O  O47  1  0.39334329  0.38736259  0.78540687  1  0  -0.648233  0  2.169076  0  0  -0.5813  0  2.472853  0  0  -0.608484  0  2.45669  0  0  -0.327882  -0.562321  0  2.483215  0
O  O48  1  0.03094453  0.18013064  0.20146733  1  0  -0.587608  0  2.007528  0  0  -0.531762  0  2.233357  0  0  -0.554025  0  2.225246  0  0  -0.299122  -0.516456  0  2.23765  0
O  O49  1  0.96905650  0.81987072  0.79853855  1  0  -0.587699  0  2.007274  0  0  -0.53179  0  2.23319  0  0  -0.554053  0  2.225078  0  0  -0.299218  -0.516481  0  2.23748  0
O  O50  1  0.22670072  0.71061782  0.97664853  1  0  -0.8672  0  1.967238  0  0  -0.792407  0  2.209666  0  0  -0.816017  0  2.168475  0  0  -0.579176  -0.776324  0  2.236899  0
O  O51  1  0.77329413  0.28938074  0.02334696  1  0  -0.867063  0  1.967428  0  0  -0.792283  0  2.209839  0  0  -0.815894  0  2.168651  0  0  -0.579156  -0.7762  0  2.237073  0
