# generated using pymatgen
data_CoH17C20N2O5
_symmetry_space_group_name_H-M   'P 1'
_cell_length_a   8.55980141
_cell_length_b   11.31879092
_cell_length_c   23.24781505
_cell_angle_alpha   101.80549971
_cell_angle_beta   89.98996489
_cell_angle_gamma   112.23714370
_symmetry_Int_Tables_number   1
_chemical_formula_structural   CoH17C20N2O5
_chemical_formula_sum   'Co4 H68 C80 N8 O20'
_cell_volume   2033.34939806
_cell_formula_units_Z   4
loop_
 _symmetry_equiv_pos_site_id
 _symmetry_equiv_pos_as_xyz
  1  'x, y, z'
loop_
 _atom_site_type_symbol
 _atom_site_label
 _atom_site_symmetry_multiplicity
 _atom_site_fract_x
 _atom_site_fract_y
 _atom_site_fract_z
 _atom_site_occupancy
 _atom_site_pbe_bader_charge
 _atom_site_pbe_bader_spin_density
 _atom_site_pbe_cm5_charge
 _atom_site_pbe_ddec_charge
 _atom_site_pbe_ddec_spin_density
 _atom_site_pbe_ddec_sum_bond_order
 _atom_site_pbe_magmom
Co  Co0  1  0.36785765  0.91693423  0.98746540  1  1.195048  2.608264  0.610583  0.772638  2.823522  2.730959  2.594
Co  Co1  1  0.45104417  0.08315762  0.51263288  1  1.19415  2.608392  0.610328  0.77249  2.823378  2.727699  2.594
Co  Co2  1  0.63213614  0.08297107  0.01250958  1  1.193501  2.607871  0.610683  0.772695  2.823408  2.730578  2.594
Co  Co3  1  0.54900475  0.91696772  0.48740489  1  1.191882  2.608052  0.610449  0.772531  2.82357  2.728206  2.594
H  H4  1  0.46817839  0.67928033  0.82807314  1  0.117663  0.000331  0.10713  0.111447  0.000162  0.996599  0.0
H  H5  1  0.78902392  0.32043897  0.67192340  1  0.094332  0.000335  0.106978  0.111306  0.000163  0.997032  0.0
H  H6  1  0.53177309  0.32056607  0.17188717  1  0.117975  0.000332  0.107104  0.111309  0.000162  0.996562  0.0
H  H7  1  0.21112364  0.67979015  0.32812646  1  0.093421  0.000334  0.106988  0.111056  0.000163  0.996788  0.0
H  H8  1  0.60114661  0.58159762  0.74539013  1  0.083228  0.000171  0.108318  0.125693  8.7e-05  0.994094  0.0
H  H9  1  0.01963601  0.41819267  0.75461979  1  0.110788  0.000168  0.108024  0.125335  8.7e-05  0.993288  0.0
H  H10  1  0.39885303  0.41826567  0.25458426  1  0.084428  0.000171  0.108224  0.125461  8.7e-05  0.993637  0.0
H  H11  1  0.98057240  0.58199693  0.24540692  1  0.112206  0.000168  0.108067  0.125225  8.7e-05  0.993153  0.0
H  H12  1  0.09253606  0.80130077  0.84057934  1  0.079369  0.000226  0.112769  0.131548  0.0001  1.001831  0.0
H  H13  1  0.29122864  0.19838302  0.65953938  1  0.112073  0.00022  0.11259  0.131954  9.9e-05  1.001638  0.0
H  H14  1  0.90744224  0.19864365  0.15939852  1  0.079458  0.000225  0.112806  0.131474  0.0001  1.001745  0.0
H  H15  1  0.70873814  0.80161779  0.34047442  1  0.11184  0.00022  0.112588  0.131918  9.9e-05  1.001596  0.0
H  H16  1  0.96113835  0.90184222  0.92112823  1  0.127086  0.000379  0.114085  0.125711  0.000163  0.987668  0.0
H  H17  1  0.05930110  0.09773163  0.57898111  1  0.116981  0.000379  0.114038  0.125604  0.000162  0.988904  0.0
H  H18  1  0.03880257  0.09809518  0.07884036  1  0.126144  0.000379  0.114066  0.125498  0.000163  0.98784  0.0
H  H19  1  0.94061464  0.90232129  0.42105060  1  0.115654  0.00038  0.113986  0.125663  0.000162  0.988673  0.0
H  H20  1  0.14120177  0.55958491  0.68360747  1  0.089081  0.00013  0.100904  0.115105  6.4e-05  1.044731  0.0
H  H21  1  0.58135432  0.44003272  0.81642052  1  0.099506  0.000129  0.101077  0.115517  6.4e-05  1.043978  0.0
H  H22  1  0.85892343  0.44044765  0.31638098  1  0.089403  0.00013  0.100865  0.115023  6.4e-05  1.044809  0.0
H  H23  1  0.41872211  0.55990472  0.18359797  1  0.099014  0.000129  0.101164  0.115595  6.4e-05  1.043886  0.0
H  H24  1  0.32785508  0.68441625  0.61511668  1  0.096234  0.000372  0.100482  0.095133  0.000226  1.046226  0.0
H  H25  1  0.64310342  0.31516757  0.88489153  1  0.085267  0.000376  0.100765  0.095597  0.000226  1.046033  0.0
H  H26  1  0.67227559  0.31570668  0.38489806  1  0.096566  0.000372  0.100597  0.095308  0.000226  1.046187  0.0
H  H27  1  0.35687768  0.68469137  0.11510998  1  0.085806  0.000376  0.100786  0.09572  0.000226  1.045946  0.0
H  H28  1  0.13148836  0.98420859  0.66108657  1  0.11383  0.000365  0.101712  0.099435  0.000193  1.046719  0.0
H  H29  1  0.14642427  0.01568249  0.83916207  1  0.116994  0.000363  0.101939  0.09958  0.000193  1.046517  0.0
H  H30  1  0.86847786  0.01581213  0.33894635  1  0.114535  0.000366  0.101758  0.099284  0.000193  1.047057  0.0
H  H31  1  0.85349983  0.98426568  0.16080798  1  0.117708  0.000363  0.102033  0.099683  0.000193  1.046647  0.0
H  H32  1  0.94721462  0.86366778  0.72994580  1  0.074421  0.000127  0.105726  0.121251  5.8e-05  1.003363  0.0
H  H33  1  0.08274700  0.13628400  0.77034309  1  0.064715  0.000127  0.105988  0.122258  5.8e-05  1.003471  0.0
H  H34  1  0.05273107  0.13626049  0.27005504  1  0.073824  0.000126  0.105657  0.121151  5.8e-05  1.003383  0.0
H  H35  1  0.91727131  0.86376144  0.22965520  1  0.064975  0.000127  0.105983  0.122197  5.8e-05  1.003547  0.0
H  H36  1  0.18697711  0.64829394  0.88919455  1  0.110827  0.000405  0.116719  0.112325  0.000107  1.011127  0.0
H  H37  1  0.53873344  0.35191026  0.61079100  1  0.107414  0.000402  0.116581  0.111751  0.000106  1.012454  0.0
H  H38  1  0.81299503  0.35162883  0.11077479  1  0.110228  0.000405  0.116659  0.112247  0.000107  1.011384  0.0
H  H39  1  0.46121198  0.64821135  0.38925631  1  0.106927  0.000402  0.11651  0.11181  0.000106  1.012522  0.0
H  H40  1  0.87955536  0.44824790  0.89717162  1  0.106213  0.000502  0.119263  0.121199  0.000185  1.023159  0.0
H  H41  1  0.43136679  0.55186641  0.60287952  1  0.101984  0.000499  0.11889  0.120471  0.000185  1.024315  0.0
H  H42  1  0.12041622  0.55166206  0.10279176  1  0.107068  0.000501  0.119278  0.121208  0.000185  1.023481  0.0
H  H43  1  0.56852181  0.44820699  0.39715027  1  0.102965  0.000499  0.119054  0.120795  0.000185  1.023886  0.0
H  H44  1  0.09944157  0.86158878  0.07986388  1  0.096589  -4.8e-05  0.105891  0.168973  -7.7e-05  1.00658  0.0
H  H45  1  0.23784290  0.13879300  0.42006925  1  0.100045  -4.5e-05  0.106051  0.168958  -7.5e-05  1.006492  0.0
H  H46  1  0.90052183  0.13830483  0.92011256  1  0.094997  -4.8e-05  0.105905  0.168843  -7.7e-05  1.006748  0.0
H  H47  1  0.76224679  0.86134843  0.57994253  1  0.09948  -4.6e-05  0.105976  0.168986  -7.5e-05  1.006732  0.0
H  H48  1  0.93930079  0.71781297  0.09519440  1  0.026045  6.2e-05  0.091805  0.128439  2.4e-05  1.019029  0.0
H  H49  1  0.22168513  0.28269750  0.40487053  1  0.031965  6.2e-05  0.091579  0.127929  2.4e-05  1.019168  0.0
H  H50  1  0.06065302  0.28208248  0.90477663  1  0.026543  6.2e-05  0.091716  0.128425  2.4e-05  1.018854  0.0
H  H51  1  0.77834071  0.71743539  0.59515420  1  0.032093  6.2e-05  0.091804  0.128247  2.4e-05  1.019111  0.0
H  H52  1  0.88329324  0.82055381  0.05862860  1  0.067619  0.000133  0.098847  0.148629  4.8e-05  0.996662  0.0
H  H53  1  0.06268087  0.17977249  0.44132275  1  0.047041  0.000132  0.099046  0.148912  4.7e-05  0.996309  0.0
H  H54  1  0.11667986  0.17934750  0.94134255  1  0.066616  0.000133  0.09887  0.148577  4.8e-05  0.996521  0.0
H  H55  1  0.93735952  0.82030541  0.55868682  1  0.046698  0.000132  0.099026  0.149035  4.7e-05  0.996392  0.0
H  H56  1  0.75426619  0.52439054  0.04957026  1  0.036687  8e-06  0.107972  0.082783  -1.8e-05  0.999311  0.0
H  H57  1  0.22980070  0.47568747  0.45050925  1  0.036195  8e-06  0.107728  0.081888  -1.8e-05  0.999182  0.0
H  H58  1  0.24570133  0.47547158  0.95039456  1  0.091239  5e-06  0.107959  0.082783  -1.8e-05  0.999398  0.0
H  H59  1  0.77022440  0.52443461  0.54951187  1  0.036187  8e-06  0.107732  0.081788  -1.8e-05  0.999164  0.0
H  H60  1  0.70103019  0.40369637  0.98380600  1  0.067656  0.0003  0.113696  0.102354  9.1e-05  0.994073  0.0
H  H61  1  0.29724894  0.59639642  0.51627028  1  0.068348  0.000299  0.113688  0.101917  9.2e-05  0.994515  0.0
H  H62  1  0.29893046  0.59619872  0.01614692  1  0.068078  0.000299  0.113628  0.10232  9.1e-05  0.993986  0.0
H  H63  1  0.70271084  0.40369549  0.48375698  1  0.069158  0.000299  0.113702  0.102132  9.2e-05  0.994231  0.0
H  H64  1  0.55826089  0.52857845  0.93976696  1  0.029847  1.5e-05  0.090272  0.08805  -1e-06  0.999563  0.0
H  H65  1  0.02943110  0.47166047  0.56028398  1  0.028603  1.5e-05  0.090055  0.087842  -1e-06  0.999558  0.0
H  H66  1  0.44170685  0.47134251  0.06020995  1  0.030501  1.4e-05  0.090226  0.088015  -1e-06  0.999632  0.0
H  H67  1  0.97051501  0.52839478  0.43971698  1  0.02919  1.5e-05  0.090067  0.087892  -1e-06  0.999527  0.0
H  H68  1  0.60877374  0.64654315  0.00694845  1  0.038597  -1.6e-05  0.094301  0.095441  -6e-05  0.983138  0.0
H  H69  1  0.96204069  0.35347704  0.49317859  1  0.043348  -1.4e-05  0.09415  0.095323  -6e-05  0.983452  0.0
H  H70  1  0.39121426  0.35336226  0.99303214  1  0.038086  -1.5e-05  0.094214  0.095273  -6e-05  0.983642  0.0
H  H71  1  0.03796004  0.64659865  0.50681830  1  0.042837  -1.4e-05  0.094024  0.095113  -6e-05  0.983819  0.0
C  C72  1  0.63037755  0.86210648  0.92671289  1  1.535631  -0.010886  0.213814  0.561259  -0.014929  4.184225  -0.01
C  C73  1  0.76831617  0.13760779  0.57331261  1  1.538952  -0.010915  0.214093  0.561043  -0.014925  4.183104  -0.01
C  C74  1  0.36958989  0.13779285  0.07325678  1  1.53438  -0.010877  0.21409  0.56163  -0.014919  4.182933  -0.01
C  C75  1  0.23167928  0.86253445  0.42674011  1  1.537213  -0.010906  0.213868  0.561044  -0.014916  4.182722  -0.01
C  C76  1  0.70645875  0.79699510  0.87937024  1  -0.051075  0.009818  -0.021799  -0.047955  0.005265  3.990355  0.008
C  C77  1  0.90944380  0.20257773  0.62068640  1  -0.052104  0.009841  -0.021511  -0.04728  0.005263  3.989611  0.008
C  C78  1  0.29349139  0.20289535  0.12059472  1  -0.016073  0.009796  -0.021649  -0.048069  0.005265  3.989416  0.008
C  C79  1  0.09056231  0.79756243  0.37936054  1  -0.051799  0.009838  -0.021662  -0.047701  0.005262  3.990496  0.008
C  C80  1  0.60472601  0.70577115  0.83029389  1  -0.036773  -0.002369  -0.081601  -0.075022  -0.002764  3.981058  -0.001
C  C81  1  0.89899796  0.29387027  0.66973763  1  -0.013013  -0.002358  -0.081599  -0.0751  -0.002764  3.981679  -0.001
C  C82  1  0.39522772  0.29410079  0.16967360  1  -0.074964  -0.002351  -0.081952  -0.075135  -0.002764  3.980949  -0.001
C  C83  1  0.10110911  0.70631292  0.33031127  1  -0.015861  -0.002355  -0.081506  -0.074334  -0.00276  3.981471  -0.001
C  C84  1  0.67822394  0.65139394  0.78420971  1  -0.003919  0.001524  -0.100642  -0.204489  0.000607  4.016806  0.001
C  C85  1  0.02683583  0.34828792  0.71582543  1  -0.083762  0.001522  -0.100653  -0.204629  0.000606  4.017103  0.001
C  C86  1  0.32176053  0.34848106  0.21576409  1  -0.001725  0.001524  -0.100408  -0.204204  0.000607  4.016146  0.001
C  C87  1  0.97331116  0.65185598  0.28421154  1  -0.082127  0.001522  -0.100726  -0.204734  0.000605  4.016447  0.001
C  C88  1  0.85327218  0.68682797  0.78856143  1  0.368381  -0.003323  0.079639  0.243552  -0.003771  4.06562  -0.002
C  C89  1  0.16639053  0.31283490  0.71151086  1  0.410603  -0.003319  0.080035  0.245082  -0.003773  4.064652  -0.002
C  C90  1  0.14671383  0.31307347  0.21141576  1  0.368404  -0.003324  0.079392  0.243705  -0.003773  4.065163  -0.002
C  C91  1  0.83369710  0.68723935  0.28851170  1  0.413059  -0.003316  0.08007  0.245141  -0.00377  4.064175  -0.002
C  C92  1  0.95619725  0.77575983  0.83759248  1  0.031858  0.001605  -0.095893  -0.202706  0.000641  4.015539  0.001
C  C93  1  0.18039061  0.22385075  0.66250676  1  -0.065461  0.001607  -0.09546  -0.20327  0.000639  4.013915  0.001
C  C94  1  0.04378071  0.22415820  0.16238415  1  0.034269  0.001604  -0.095829  -0.202717  0.000641  4.014861  0.001
C  C95  1  0.81959653  0.77618143  0.33751263  1  -0.064885  0.001606  -0.09546  -0.203155  0.000639  4.014221  0.001
C  C96  1  0.88243023  0.83172163  0.88271298  1  -0.05234  -0.001967  -0.07576  -0.06185  -0.002418  3.942423  -0.001
C  C97  1  0.05066285  0.16784811  0.61738025  1  0.030681  -0.001984  -0.07613  -0.062901  -0.002421  3.943801  -0.001
C  C98  1  0.11752440  0.16820115  0.11725679  1  -0.053197  -0.001968  -0.07569  -0.061539  -0.002419  3.941948  -0.001
C  C99  1  0.94928456  0.83222143  0.38265175  1  0.031157  -0.001983  -0.075952  -0.062873  -0.002419  3.94391  -0.001
C  C100  1  0.03252650  0.70370495  0.71011312  1  0.355478  -0.003394  0.088793  0.27089  -0.003824  4.042012  -0.002
C  C101  1  0.32837973  0.29602696  0.79002428  1  0.389915  -0.003395  0.089105  0.272042  -0.003831  4.042978  -0.002
C  C102  1  0.96750501  0.29626411  0.28987528  1  0.355099  -0.003395  0.089179  0.271181  -0.003825  4.041544  -0.002
C  C103  1  0.67167536  0.70396589  0.20998145  1  0.390219  -0.003398  0.088991  0.271732  -0.003833  4.043257  -0.002
C  C104  1  0.14088080  0.65295782  0.67849598  1  0.01586  0.001513  -0.108082  -0.20959  0.000598  4.000507  0.001
C  C105  1  0.48755169  0.34672539  0.82157872  1  -0.016153  0.001517  -0.108161  -0.209634  0.0006  3.999908  0.001
C  C106  1  0.85920685  0.34706506  0.32149713  1  0.01768  0.001512  -0.108197  -0.209536  0.000598  4.000323  0.001
C  C107  1  0.51249405  0.65321372  0.17842616  1  -0.017666  0.001518  -0.1082  -0.209505  0.0006  3.999619  0.001
C  C108  1  0.24353612  0.72198049  0.64055052  1  -0.088594  -0.001921  -0.084256  -0.068346  -0.002308  4.006752  -0.001
C  C109  1  0.52117176  0.27771443  0.85949728  1  -0.075158  -0.00193  -0.084027  -0.068156  -0.002312  4.005304  -0.001
C  C110  1  0.75656339  0.27810817  0.35945964  1  -0.091302  -0.001922  -0.084376  -0.068758  -0.002309  4.006506  -0.001
C  C111  1  0.47882947  0.72218241  0.14049409  1  -0.076048  -0.001932  -0.084517  -0.068915  -0.002314  4.006211  -0.001
C  C112  1  0.24054918  0.84101285  0.63321761  1  0.028383  0.010288  -0.031232  -0.066784  0.005568  4.006788  0.008
C  C113  1  0.39902683  0.15873957  0.86687455  1  0.038067  0.010266  -0.03161  -0.06777  0.005566  4.006776  0.008
C  C114  1  0.75947671  0.15905942  0.36680432  1  0.028459  0.010291  -0.031325  -0.066575  0.005569  4.005814  0.008
C  C115  1  0.60092904  0.84115999  0.13310633  1  0.039415  0.010267  -0.031348  -0.067675  0.005565  4.00683  0.008
C  C116  1  0.13491118  0.89199687  0.66651605  1  -0.040973  -0.002201  -0.078893  -0.057543  -0.002629  3.979667  -0.001
C  C117  1  0.24223309  0.10781549  0.83367843  1  -0.050094  -0.002215  -0.079424  -0.05757  -0.002643  3.980306  -0.001
C  C118  1  0.86507914  0.10802763  0.33351034  1  -0.040998  -0.002203  -0.078788  -0.057223  -0.00263  3.979385  -0.001
C  C119  1  0.75773519  0.89212990  0.16629910  1  -0.051338  -0.002216  -0.07957  -0.057532  -0.002644  3.980481  -0.001
C  C120  1  0.03111172  0.82443097  0.70493786  1  -0.018611  0.00146  -0.106561  -0.218849  0.000545  4.00056  0.001
C  C121  1  0.20600310  0.17541311  0.79528264  1  -0.019527  0.001459  -0.10699  -0.221046  0.000545  4.002957  0.001
C  C122  1  0.96886882  0.17552963  0.29506736  1  -0.018325  0.001461  -0.106764  -0.219095  0.000545  4.000279  0.001
C  C123  1  0.79401343  0.82458438  0.20471106  1  -0.019457  0.00146  -0.106966  -0.220955  0.000545  4.002966  0.001
C  C124  1  0.34126073  0.90621167  0.58824326  1  1.510027  -0.009596  0.208039  0.559776  -0.013392  4.188964  -0.009
C  C125  1  0.43472298  0.09355072  0.91178226  1  1.522678  -0.009621  0.207624  0.559126  -0.013404  4.188823  -0.009
C  C126  1  0.65877227  0.09387248  0.41178670  1  1.510093  -0.009608  0.208075  0.559918  -0.013397  4.189408  -0.009
C  C127  1  0.56524761  0.90634090  0.08819227  1  1.522846  -0.009631  0.2077  0.559439  -0.013409  4.188803  -0.009
C  C128  1  0.09795457  0.64218005  0.92268444  1  0.428302  0.000606  -0.00688  -0.03587  -8.9e-05  4.06981  0.001
C  C129  1  0.45576269  0.35796846  0.57732021  1  0.450127  0.000593  -0.007258  -0.03534  -8.1e-05  4.070544  0.001
C  C130  1  0.90201691  0.35773203  0.07728775  1  0.429766  0.000605  -0.006917  -0.035845  -8.9e-05  4.069986  0.001
C  C131  1  0.54419286  0.64215004  0.42271820  1  0.45034  0.000593  -0.007467  -0.035781  -8e-05  4.070347  0.001
C  C132  1  0.94684599  0.54290549  0.92612783  1  0.272795  0.002553  -0.010093  -0.128044  0.001286  3.978248  0.002
C  C133  1  0.40393271  0.45722380  0.57391916  1  0.251476  0.002557  -0.009522  -0.128144  0.001279  3.977987  0.002
C  C134  1  0.05312928  0.45700950  0.07384291  1  0.271641  0.002555  -0.010192  -0.128348  0.001287  3.97834  0.002
C  C135  1  0.59600109  0.54287691  0.42610851  1  0.253415  0.002557  -0.009488  -0.127962  0.00128  3.977226  0.002
C  C136  1  0.00103257  0.70496261  0.00530525  1  0.97033  0.00182  0.219316  0.339562  0.00088  3.922297  0.002
C  C137  1  0.29601774  0.29521453  0.49472399  1  0.980236  0.001828  0.219288  0.338079  0.00086  3.923383  0.002
C  C138  1  0.99893482  0.29494364  0.99466809  1  0.969883  0.001824  0.218969  0.338548  0.000881  3.923244  0.002
C  C139  1  0.70398519  0.70490759  0.50529971  1  0.978184  0.00183  0.219223  0.338485  0.000862  3.923373  0.002
C  C140  1  0.97973844  0.77988989  0.06291099  1  -0.025363  0.000285  -0.233275  -0.466544  1.7e-05  3.954823  0.0
C  C141  1  0.19985848  0.22044689  0.43708680  1  -0.035142  0.000291  -0.233182  -0.465804  1.9e-05  3.955085  0.0
C  C142  1  0.02022737  0.22000854  0.93706204  1  -0.023591  0.000285  -0.233351  -0.466353  1.7e-05  3.954675  0.0
C  C143  1  0.80019085  0.77967223  0.56293317  1  -0.034575  0.000291  -0.233335  -0.46638  1.9e-05  3.955788  0.0
C  C144  1  0.72947835  0.50795405  0.00166894  1  0.334967  0.000727  -0.053373  -0.059983  0.000403  3.884943  0.001
C  C145  1  0.22146381  0.49212837  0.49841161  1  0.35036  0.000724  -0.052666  -0.057363  0.000402  3.88233  0.001
C  C146  1  0.27050162  0.49194231  0.99829830  1  0.279793  0.00073  -0.053125  -0.060027  0.000403  3.88514  0.001
C  C147  1  0.77851984  0.50796922  0.50160630  1  0.34995  0.000724  -0.052834  -0.057386  0.000402  3.882013  0.001
C  C148  1  0.57980812  0.54243682  0.98780737  1  -0.02599  8.5e-05  -0.163702  -0.162354  3.4e-05  3.925959  0.0
C  C149  1  0.03725282  0.45762046  0.51224545  1  -0.040906  8.6e-05  -0.163694  -0.163054  3.4e-05  3.926475  0.0
C  C150  1  0.42017808  0.45747433  0.01216731  1  -0.005815  8.5e-05  -0.163675  -0.162253  3.4e-05  3.926527  0.0
C  C151  1  0.96272802  0.54245048  0.48775873  1  -0.01565  8.5e-05  -0.16353  -0.162807  3.4e-05  3.926482  0.0
N  N152  1  0.13088820  0.74242703  0.97193913  1  -1.211715  0.042079  -0.342954  -0.331278  0.024623  3.412492  0.032
N  N153  1  0.38840842  0.25772760  0.52806333  1  -1.195832  0.041916  -0.342501  -0.330785  0.024573  3.410887  0.032
N  N154  1  0.86908583  0.25748314  0.02803546  1  -1.211554  0.042064  -0.342782  -0.330577  0.024621  3.412325  0.032
N  N155  1  0.61159382  0.74240250  0.47196887  1  -1.197377  0.041925  -0.342156  -0.330426  0.024579  3.410666  0.032
N  N156  1  0.88633941  0.58327094  0.97857418  1  -1.225628  0.002507  -0.244444  -0.019625  0.001047  3.730987  0.002
N  N157  1  0.30298930  0.41684906  0.52149558  1  -1.22777  0.002497  -0.244736  -0.018792  0.001045  3.729884  0.002
N  N158  1  0.11364050  0.41663231  0.02139587  1  -1.225215  0.002507  -0.244065  -0.018842  0.001048  3.730945  0.002
N  N159  1  0.69698011  0.58325743  0.47852834  1  -1.227985  0.002498  -0.244705  -0.019564  0.001045  3.729919  0.002
O  O160  1  0.47139186  0.81057363  0.93122053  1  -1.129043  0.08798  -0.301176  -0.51655  0.045729  2.375028  0.079
O  O161  1  0.66101973  0.18927094  0.56883673  1  -1.125358  0.088197  -0.301214  -0.516094  0.045797  2.372549  0.079
O  O162  1  0.52857672  0.18930464  0.06877036  1  -1.128314  0.087953  -0.301252  -0.516738  0.045706  2.374807  0.078
O  O163  1  0.33898829  0.81088473  0.43120395  1  -1.124776  0.088135  -0.301243  -0.516351  0.045772  2.37266  0.079
O  O164  1  0.72960760  0.96970383  0.95995438  1  -1.135775  0.089507  -0.301288  -0.513723  0.046589  2.396721  0.08
O  O165  1  0.75989988  0.03011729  0.53997478  1  -1.135353  0.089365  -0.301512  -0.513342  0.046551  2.395239  0.08
O  O166  1  0.27034197  0.03022518  0.03998501  1  -1.135323  0.089519  -0.301355  -0.513713  0.046603  2.395929  0.08
O  O167  1  0.24009238  0.97002791  0.46007952  1  -1.135484  0.08937  -0.301236  -0.512991  0.046549  2.394481  0.08
O  O168  1  0.42686657  0.84931018  0.55726309  1  -1.139978  0.078971  -0.30624  -0.538933  0.040653  2.37911  0.073
O  O169  1  0.57744208  0.15043023  0.94263558  1  -1.147915  0.078894  -0.306152  -0.538633  0.040534  2.379219  0.073
O  O170  1  0.57316959  0.15078964  0.44276836  1  -1.140108  0.078999  -0.306413  -0.539201  0.040669  2.379474  0.073
O  O171  1  0.42247708  0.84950573  0.05735868  1  -1.148391  0.078934  -0.306058  -0.538691  0.040558  2.37885  0.073
O  O172  1  0.33365868  0.01328130  0.58144052  1  -1.12522  0.092238  -0.302893  -0.510098  0.048221  2.350337  0.081
O  O173  1  0.32003840  0.98651634  0.91867015  1  -1.133885  0.092428  -0.302646  -0.509361  0.048308  2.349726  0.081
O  O174  1  0.66639646  0.98682845  0.41859920  1  -1.12533  0.092205  -0.302731  -0.510075  0.048197  2.351039  0.081
O  O175  1  0.67996791  0.01331123  0.08127588  1  -1.13336  0.092372  -0.302603  -0.509279  0.048265  2.350503  0.081
O  O176  1  0.92483595  0.62638702  0.74394814  1  -1.106947  -0.001455  -0.159181  -0.225194  -0.001332  2.548717  -0.001
O  O177  1  0.29830273  0.37331882  0.75613895  1  -1.116155  -0.001461  -0.159039  -0.225923  -0.001333  2.551063  -0.001
O  O178  1  0.07517588  0.37354268  0.25602573  1  -1.107679  -0.001456  -0.159127  -0.22535  -0.001332  2.548659  -0.001
O  O179  1  0.70179319  0.62671830  0.24388263  1  -1.115573  -0.001461  -0.158999  -0.225813  -0.001333  2.55101  -0.001
