# generated using pymatgen
data_MnH14C14(NO2)2
_symmetry_space_group_name_H-M   'P 1'
_cell_length_a   7.80776312
_cell_length_b   9.21855832
_cell_length_c   10.80663795
_cell_angle_alpha   109.51431518
_cell_angle_beta   101.35580767
_cell_angle_gamma   100.60369482
_symmetry_Int_Tables_number   1
_chemical_formula_structural   MnH14C14(NO2)2
_chemical_formula_sum   'Mn2 H28 C28 N4 O8'
_cell_volume   692.03331818
_cell_formula_units_Z   2
loop_
 _symmetry_equiv_pos_site_id
 _symmetry_equiv_pos_as_xyz
  1  'x, y, z'
loop_
 _atom_site_type_symbol
 _atom_site_label
 _atom_site_symmetry_multiplicity
 _atom_site_fract_x
 _atom_site_fract_y
 _atom_site_fract_z
 _atom_site_occupancy
 _atom_site_pbe_cm5_charge
 _atom_site_pbe_ddec_charge
 _atom_site_pbe_ddec_spin_density
 _atom_site_pbe_ddec_sum_bond_order
 _atom_site_pbe_magmom
Mn  Mn0  1  0.33226152  0.02113698  0.84616111  1  0.594182  0.852651  -4.66861  2.423338  -4.441
Mn  Mn1  1  0.66772650  0.97886413  0.15384033  1  0.594204  0.852713  -4.668611  2.4233  -4.441
H  H2  1  0.04784111  0.27901928  0.60071646  1  0.088486  0.140729  -0.000708  1.014851  -0.001
H  H3  1  0.95217576  0.72099492  0.39929169  1  0.088502  0.14072  -0.000708  1.01484  -0.001
H  H4  1  0.88556955  0.23651638  0.68918525  1  0.096235  0.150966  -0.000508  1.011861  -0.001
H  H5  1  0.11443056  0.76349903  0.31080988  1  0.096195  0.150962  -0.000508  1.011823  -0.001
H  H6  1  0.88090078  0.09058973  0.53293630  1  0.100002  0.15787  -0.0001  1.011235  -0.001
H  H7  1  0.11910359  0.90942686  0.46705789  1  0.100035  0.157879  -0.0001  1.01127  -0.001
H  H8  1  0.02619467  0.59376815  0.90906159  1  0.091339  0.1446  -0.000758  1.016162  -0.001
H  H9  1  0.97380725  0.40623172  0.09093582  1  0.091346  0.144627  -0.000758  1.016168  -0.001
H  H10  1  0.03299149  0.71470296  0.07825751  1  0.102021  0.161352  -0.000576  1.004382  -0.001
H  H11  1  0.96701347  0.28528973  0.92174011  1  0.101973  0.161305  -0.000576  1.004421  -0.001
H  H12  1  0.18273646  0.59108566  0.05443686  1  0.091564  0.141373  -0.000532  1.030888  -0.001
H  H13  1  0.81726754  0.40890823  0.94555912  1  0.091591  0.141392  -0.000531  1.030949  -0.001
H  H14  1  0.55973163  0.97112564  0.63211068  1  0.123426  0.097528  -0.000343  0.992496  0.0
H  H15  1  0.44029661  0.02886583  0.36789992  1  0.123439  0.097555  -0.000343  0.992474  0.0
H  H16  1  0.56109165  0.76982726  0.41239475  1  0.109259  0.127009  -0.000123  1.038005  0.0
H  H17  1  0.43894375  0.23016181  0.58762076  1  0.109257  0.127032  -0.000123  1.038018  0.0
H  H18  1  0.14961872  0.43439508  0.47290276  1  0.106204  0.106375  -0.000407  1.038713  0.0
H  H19  1  0.85036518  0.56561439  0.52708848  1  0.106236  0.106439  -0.000407  1.038609  0.0
H  H20  1  0.16643869  0.65301280  0.68864448  1  0.117213  0.088318  -0.000201  1.017266  0.0
H  H21  1  0.83355496  0.34699426  0.31135017  1  0.117205  0.088396  -0.000201  1.017089  0.0
H  H22  1  0.51706892  0.38481617  0.01556912  1  0.117404  0.080646  -0.000635  1.023343  0.0
H  H23  1  0.48289853  0.61519093  0.98441645  1  0.11742  0.080486  -0.000636  1.023568  0.0
H  H24  1  0.53624302  0.60518992  0.22923964  1  0.108341  0.127034  8.1e-05  1.051161  0.0
H  H25  1  0.46373180  0.39481119  0.77074984  1  0.108372  0.127029  8.1e-05  1.051137  0.0
H  H26  1  0.15058184  0.26010263  0.30406988  1  0.110225  0.120535  -1.6e-05  1.026406  0.0
H  H27  1  0.84944496  0.73988407  0.69594193  1  0.110285  0.120596  -1.5e-05  1.026273  0.0
H  H28  1  0.14703964  0.06232500  0.08959590  1  0.124708  0.095467  -0.000186  1.006547  0.0
H  H29  1  0.85297360  0.93766888  0.91040873  1  0.124697  0.09543  -0.000186  1.006576  0.0
C  C30  1  0.09815873  0.11928216  0.70303103  1  0.197925  0.658111  -0.010086  4.170439  -0.006
C  C31  1  0.90182579  0.88072016  0.29697306  1  0.197991  0.658299  -0.010086  4.169929  -0.006
C  C32  1  0.97198223  0.18669106  0.62700235  1  -0.250337  -0.523009  0.000585  3.898434  0.001
C  C33  1  0.02802284  0.81332316  0.37300051  1  -0.25031  -0.522993  0.000585  3.898439  0.001
C  C34  1  0.25529202  0.80245105  0.01250823  1  0.222354  0.689409  -0.023296  4.144212  -0.021
C  C35  1  0.74470755  0.19754524  0.98749154  1  0.222315  0.689335  -0.02329  4.144221  -0.021
C  C36  1  0.11571180  0.66548893  0.01206182  1  -0.252539  -0.533211  -0.003438  3.907363  -0.002
C  C37  1  0.88428660  0.33451214  0.98793639  1  -0.252537  -0.533242  -0.003439  3.907376  -0.002
C  C38  1  0.46873566  0.85074516  0.59100185  1  0.058413  0.102752  -0.007426  3.929066  -0.006
C  C39  1  0.53128220  0.14925109  0.40900131  1  0.058409  0.102792  -0.007428  3.929084  -0.006
C  C40  1  0.46895242  0.73645463  0.46834449  1  -0.078174  -0.170359  -0.000618  3.898112  0.0
C  C41  1  0.53106608  0.26353925  0.53166363  1  -0.07812  -0.170395  -0.000617  3.898064  0.0
C  C42  1  0.35208518  0.58146207  0.41998179  1  0.01102  0.101407  -0.007775  3.969664  -0.006
C  C43  1  0.64791909  0.41853662  0.58002208  1  0.011021  0.101395  -0.007775  3.969732  -0.006
C  C44  1  0.24185418  0.55167976  0.50185644  1  -0.083925  -0.180017  -0.000688  3.96214  0.0
C  C45  1  0.75813935  0.44832252  0.49814053  1  -0.083896  -0.18004  -0.000687  3.962014  0.0
C  C46  1  0.24956881  0.67285791  0.62260787  1  0.04761  0.087523  -0.007293  3.966962  -0.006
C  C47  1  0.75042638  0.32714556  0.37738874  1  0.047562  0.087485  -0.007293  3.966745  -0.006
C  C48  1  0.43745749  0.36381425  0.08326449  1  0.046331  0.090746  -0.005653  3.958047  -0.005
C  C49  1  0.56252625  0.63619043  0.91672629  1  0.046376  0.090964  -0.005651  3.958256  -0.005
C  C50  1  0.44719830  0.48686307  0.20356003  1  -0.084281  -0.178864  -0.001123  3.926313  -0.001
C  C51  1  0.55279092  0.51313802  0.79643417  1  -0.084342  -0.178825  -0.001123  3.926278  -0.001
C  C52  1  0.34470943  0.45521261  0.28980013  1  0.010584  0.094275  -0.005931  3.971168  -0.004
C  C53  1  0.65529667  0.54478367  0.71020145  1  0.010533  0.094108  -0.005929  3.971449  -0.004
C  C54  1  0.23517057  0.29861267  0.24596031  1  -0.075472  -0.162189  -0.001145  3.918292  -0.001
C  C55  1  0.76484201  0.70137884  0.75404911  1  -0.075479  -0.162185  -0.001146  3.918261  -0.001
C  C56  1  0.23267420  0.18334231  0.12320617  1  0.06289  0.120149  -0.006105  3.915739  -0.005
C  C57  1  0.76733197  0.81665398  0.87680004  1  0.06294  0.120268  -0.006102  3.915748  -0.005
N  N58  1  0.36010386  0.82140376  0.66744490  1  -0.314829  -0.238556  -0.035255  3.486129  -0.019
N  N59  1  0.63990144  0.17859850  0.33255458  1  -0.314874  -0.238703  -0.035259  3.486229  -0.019
N  N60  1  0.33315124  0.21328454  0.04236293  1  -0.313941  -0.252639  -0.034999  3.505275  -0.017
N  N61  1  0.66684020  0.78671534  0.95763029  1  -0.314019  -0.252759  -0.034998  3.505492  -0.017
O  O62  1  0.03400198  0.01833975  0.75005479  1  -0.324522  -0.569344  -0.033902  2.131888  -0.026
O  O63  1  0.96596435  0.98165900  0.24993934  1  -0.324621  -0.569492  -0.03391  2.131842  -0.026
O  O64  1  0.26970924  0.16516625  0.71953705  1  -0.325512  -0.579896  -0.03586  2.198674  -0.027
O  O65  1  0.73027992  0.83483369  0.28047717  1  -0.325517  -0.579927  -0.035857  2.198264  -0.027
O  O66  1  0.22684051  0.83948912  0.90825875  1  -0.314594  -0.572768  -0.053787  2.360153  -0.035
O  O67  1  0.77316277  0.16051075  0.09174163  1  -0.314541  -0.572664  -0.053783  2.360162  -0.035
O  O68  1  0.39122762  0.87250716  0.11771314  1  -0.319622  -0.575975  -0.052585  2.340822  -0.035
O  O69  1  0.60877232  0.12749033  0.88228703  1  -0.319636  -0.575978  -0.052583  2.340768  -0.035
