# generated using pymatgen
data_Sn3P2H8C10N2O7
_symmetry_space_group_name_H-M   'P 1'
_cell_length_a   7.05706989
_cell_length_b   9.93561988
_cell_length_c   12.72412711
_cell_angle_alpha   104.61896291
_cell_angle_beta   90.35702506
_cell_angle_gamma   109.69009794
_symmetry_Int_Tables_number   1
_chemical_formula_structural   Sn3P2H8C10N2O7
_chemical_formula_sum   'Sn6 P4 H16 C20 N4 O14'
_cell_volume   808.71972618
_cell_formula_units_Z   2
loop_
 _symmetry_equiv_pos_site_id
 _symmetry_equiv_pos_as_xyz
  1  'x, y, z'
loop_
 _atom_site_type_symbol
 _atom_site_label
 _atom_site_symmetry_multiplicity
 _atom_site_fract_x
 _atom_site_fract_y
 _atom_site_fract_z
 _atom_site_occupancy
 _atom_site_hle17_bader_spin_density
 _atom_site_hle17_ddec_charge
 _atom_site_hle17_ddec_spin_density
 _atom_site_hle17_ddec_sum_bond_order
 _atom_site_hle17_magmom
 _atom_site_hse06_10hf_bader_spin_density
 _atom_site_hse06_10hf_ddec_charge
 _atom_site_hse06_10hf_ddec_spin_density
 _atom_site_hse06_10hf_ddec_sum_bond_order
 _atom_site_hse06_10hf_magmom
 _atom_site_hse06_bader_spin_density
 _atom_site_hse06_ddec_charge
 _atom_site_hse06_ddec_spin_density
 _atom_site_hse06_ddec_sum_bond_order
 _atom_site_hse06_magmom
 _atom_site_pbe_bader_spin_density
 _atom_site_pbe_cm5_charge
 _atom_site_pbe_ddec_charge
 _atom_site_pbe_ddec_spin_density
 _atom_site_pbe_ddec_sum_bond_order
 _atom_site_pbe_magmom
Sn  Sn0  1  0.85314398  0.52245382  0.39125648  1  0  0.954843  0  2.20591  0  0  0.78799  0  2.654257  0  0  0.822181  0  2.634071  0  0  0.504451  0.764104  0  2.667635  0
Sn  Sn1  1  0.14686834  0.47757314  0.60873260  1  0  0.954953  0  2.205719  0  0  0.788168  0  2.653906  0  0  0.822331  0  2.633786  0  0  0.504493  0.764309  0  2.667229  0
Sn  Sn2  1  0.85111503  0.48614509  0.10861938  1  0  0.936238  0  2.298156  0  0  0.765645  0  2.763977  0  0  0.798716  0  2.745575  0  0  0.49372  0.741543  0  2.77626  0
Sn  Sn3  1  0.14887954  0.51384522  0.89136633  1  0  0.936199  0  2.298284  0  0  0.765693  0  2.763983  0  0  0.798763  0  2.745585  0  0  0.493765  0.741585  0  2.776257  0
Sn  Sn4  1  0.60115407  0.48528122  0.75556434  1  0  1.085639  0  2.05663  0  0  0.922171  0  2.495954  0  0  0.955764  0  2.473687  0  0  0.528058  0.895599  0  2.51254  0
Sn  Sn5  1  0.39882549  0.51471027  0.24443727  1  0  1.085715  0  2.056475  0  0  0.922272  0  2.495769  0  0  0.955855  0  2.473515  0  0  0.528115  0.895708  0  2.512343  0
P  P6  1  0.62136995  0.70443613  0.58148132  1  0  1.454804  0  4.835591  0  0  1.290755  0  5.318875  0  0  1.34348  0  5.277328  0  0  0.371704  1.253581  0  5.347482  0
P  P7  1  0.37863989  0.29556523  0.41852313  1  0  1.45482  0  4.835563  0  0  1.2908  0  5.318826  0  0  1.343565  0  5.277253  0  0  0.37169  1.253615  0  5.347436  0
P  P8  1  0.63119092  0.70555526  0.01471795  1  0  1.45064  0  4.853026  0  0  1.284334  0  5.338712  0  0  1.337542  0  5.296437  0  0  0.367006  1.24769  0  5.366006  0
P  P9  1  0.36880620  0.29444616  0.98528253  1  0  1.450673  0  4.852987  0  0  1.284354  0  5.338666  0  0  1.337565  0  5.29639  0  0  0.367029  1.247713  0  5.365946  0
H  H10  1  0.22602151  0.16905757  0.67878157  1  0  0.072018  0  0.942324  0  0  0.077626  0  1.016035  0  0  0.080261  0  1.013325  0  0  0.113189  0.075573  0  1.018205  0
H  H11  1  0.77397891  0.83093604  0.32121346  1  0  0.071998  0  0.942449  0  0  0.077615  0  1.016124  0  0  0.08025  0  1.01341  0  0  0.113182  0.07556  0  1.018297  0
H  H12  1  0.04995244  0.89523079  0.65344531  1  0  0.105998  0  0.943803  0  0  0.116543  0  1.00421  0  0  0.119385  0  1.003862  0  0  0.110005  0.115351  0  1.003049  0
H  H13  1  0.95004940  0.10476282  0.34655129  1  0  0.105989  0  0.943756  0  0  0.116559  0  1.004124  0  0  0.119402  0  1.003777  0  0  0.110019  0.115365  0  1.002968  0
H  H14  1  0.49128783  0.95632614  0.58131095  1  0  0.103325  0  0.960761  0  0  0.115308  0  1.019091  0  0  0.118162  0  1.018679  0  0  0.106411  0.113244  0  1.019576  0
H  H15  1  0.50871346  0.04366636  0.41869407  1  0  0.103341  0  0.960759  0  0  0.115323  0  1.019095  0  0  0.118172  0  1.018689  0  0  0.106421  0.113261  0  1.019583  0
H  H16  1  0.69317846  0.22553784  0.60192149  1  0  0.042724  0  1.014866  0  0  0.04303  0  1.100555  0  0  0.044479  0  1.101063  0  0  0.103902  0.042699  0  1.098796  0
H  H17  1  0.30682303  0.77445799  0.39808105  1  0  0.042692  0  1.014917  0  0  0.042974  0  1.100612  0  0  0.044421  0  1.101125  0  0  0.103865  0.042642  0  1.098851  0
H  H18  1  0.89049892  0.20156070  0.94336094  1  0  0.071804  0  0.950154  0  0  0.081528  0  1.015659  0  0  0.084233  0  1.013248  0  0  0.115804  0.08057  0  1.016287  0
H  H19  1  0.10950385  0.79844069  0.05664035  1  0  0.071825  0  0.950147  0  0  0.081554  0  1.015651  0  0  0.084254  0  1.013252  0  0  0.115818  0.080598  0  1.016273  0
H  H20  1  0.80754136  0.92594581  0.89269090  1  0  0.118367  0  0.93477  0  0  0.129016  0  0.990476  0  0  0.132113  0  0.990215  0  0  0.112538  0.127136  0  0.990664  0
H  H21  1  0.19246478  0.07405668  0.10731219  1  0  0.118369  0  0.934723  0  0  0.129012  0  0.990444  0  0  0.132105  0  0.990183  0  0  0.11255  0.127133  0  0.99063  0
H  H22  1  0.57340761  0.92717226  0.20527452  1  0  0.093094  0  0.952159  0  0  0.105872  0  1.013303  0  0  0.108434  0  1.013339  0  0  0.10635  0.104748  0  1.012383  0
H  H23  1  0.42658224  0.07282586  0.79472372  1  0  0.093086  0  0.95217  0  0  0.105858  0  1.013321  0  0  0.108418  0  1.013364  0  0  0.106326  0.104732  0  1.012406  0
H  H24  1  0.65925228  0.20139068  0.24200607  1  0  0.083149  0  0.975953  0  0  0.09054  0  1.042617  0  0  0.093643  0  1.039584  0  0  0.112748  0.088343  0  1.044631  0
H  H25  1  0.34073899  0.79860743  0.75799454  1  0  0.083114  0  0.975887  0  0  0.090452  0  1.042652  0  0  0.093557  0  1.039618  0  0  0.112701  0.08826  0  1.044654  0
C  C26  1  0.06362612  0.11638856  0.65530863  1  0  0.155055  0  3.673598  0  0  0.122982  0  3.932114  0  0  0.130269  0  3.948388  0  0  0.054546  0.118392  0  3.92182  0
C  C27  1  0.93636972  0.88360731  0.34468840  1  0  0.155029  0  3.673547  0  0  0.122981  0  3.932019  0  0  0.130272  0  3.948294  0  0  0.05451  0.118393  0  3.921715  0
C  C28  1  0.96526067  0.96490536  0.64172974  1  0  -0.092877  0  3.702904  0  0  -0.114256  0  3.949635  0  0  -0.119731  0  3.971862  0  0  -0.075039  -0.111826  0  3.935133  0
C  C29  1  0.03474311  0.03508935  0.35827102  1  0  -0.092777  0  3.70276  0  0  -0.114168  0  3.949489  0  0  -0.119645  0  3.971716  0  0  -0.074999  -0.111742  0  3.934995  0
C  C30  1  0.75572633  0.90358970  0.61296997  1  0  -0.163354  0  3.718781  0  0  -0.129051  0  3.961122  0  0  -0.133465  0  3.981183  0  0  -0.002573  -0.12583  0  3.947958  0
C  C31  1  0.24427941  0.09640611  0.38703494  1  0  -0.163221  0  3.718546  0  0  -0.128999  0  3.961003  0  0  -0.133409  0  3.981055  0  0  -0.00251  -0.125782  0  3.947848  0
C  C32  1  0.65451910  0.99913317  0.60169985  1  0  -0.105859  0  3.745847  0  0  -0.124413  0  3.982195  0  0  -0.129991  0  4.004325  0  0  -0.082385  -0.120722  0  3.967594  0
C  C33  1  0.34548933  0.00086819  0.39830302  1  0  -0.106004  0  3.745753  0  0  -0.124555  0  3.982126  0  0  -0.13013  0  4.004261  0  0  -0.08246  -0.120865  0  3.967531  0
C  C34  1  0.76580389  0.14859609  0.61427955  1  0  0.093584  0  3.783634  0  0  0.069725  0  4.034868  0  0  0.074955  0  4.055185  0  0  0.043415  0.066457  0  4.02054  0
C  C35  1  0.23419835  0.85140419  0.38572388  1  0  0.093675  0  3.783326  0  0  0.069859  0  4.034553  0  0  0.075087  0  4.054873  0  0  0.043457  0.066594  0  4.020216  0
C  C36  1  0.81960463  0.13658037  0.99925000  1  0  0.13409  0  3.692168  0  0  0.103973  0  3.944271  0  0  0.110563  0  3.960351  0  0  0.052655  0.099756  0  3.931661  0
C  C37  1  0.18039673  0.86342103  0.00075286  1  0  0.134056  0  3.692164  0  0  0.103902  0  3.944289  0  0  0.110491  0  3.960368  0  0  0.052623  0.099687  0  3.931677  0
C  C38  1  0.77471464  0.98374540  0.97129853  1  0  -0.094107  0  3.723075  0  0  -0.11455  0  3.96944  0  0  -0.119699  0  3.991635  0  0  -0.07365  -0.111281  0  3.954151  0
C  C39  1  0.22528814  0.01625600  0.02870276  1  0  -0.094072  0  3.723056  0  0  -0.114505  0  3.969438  0  0  -0.119648  0  3.991627  0  0  -0.07365  -0.111237  0  3.954149  0
C  C40  1  0.68650852  0.90458311  0.04578879  1  0  -0.169125  0  3.72119  0  0  -0.134266  0  3.962557  0  0  -0.138791  0  3.982316  0  0  -0.001783  -0.131149  0  3.948575  0
C  C41  1  0.31348665  0.09541721  0.95421069  1  0  -0.169152  0  3.721197  0  0  -0.134296  0  3.962565  0  0  -0.138821  0  3.982323  0  0  -0.001783  -0.131179  0  3.948582  0
C  C42  1  0.64591986  0.98405719  0.14537733  1  0  -0.096689  0  3.742387  0  0  -0.116708  0  3.988214  0  0  -0.121787  0  4.010873  0  0  -0.076771  -0.113347  0  3.971171  0
C  C43  1  0.35407302  0.01594426  0.85462158  1  0  -0.096628  0  3.742438  0  0  -0.116633  0  3.988224  0  0  -0.121713  0  4.010882  0  0  -0.076716  -0.113272  0  3.971184  0
C  C44  1  0.69391309  0.13682895  0.16653492  1  0  0.114885  0  3.692846  0  0  0.085414  0  3.944203  0  0  0.090788  0  3.96182  0  0  0.045664  0.082517  0  3.9313  0
C  C45  1  0.30608316  0.86317359  0.83346736  1  0  0.114919  0  3.692815  0  0  0.085447  0  3.944182  0  0  0.090822  0  3.961796  0  0  0.045701  0.082548  0  3.931289  0
N  N46  1  0.96668063  0.20664269  0.64038423  1  0  -0.324597  0  3.227494  0  0  -0.252902  0  3.475244  0  0  -0.269075  0  3.495674  0  0  -0.295283  -0.243041  0  3.461703  0
N  N47  1  0.03331857  0.79335427  0.35961931  1  0  -0.324664  0  3.227333  0  0  -0.252932  0  3.474995  0  0  -0.269111  0  3.495429  0  0  -0.295245  -0.243064  0  3.46144  0
N  N48  1  0.78006019  0.21187792  0.09473350  1  0  -0.304634  0  3.242479  0  0  -0.229754  0  3.492212  0  0  -0.245546  0  3.512813  0  0  -0.294144  -0.219148  0  3.476791  0
N  N49  1  0.21994029  0.78812460  0.90526958  1  0  -0.304623  0  3.242364  0  0  -0.2297  0  3.492037  0  0  -0.24549  0  3.512637  0  0  -0.294133  -0.219097  0  3.47662  0
O  O50  1  0.66138922  0.64300351  0.46215104  1  0  -0.802176  0  2.105703  0  0  -0.693857  0  2.366469  0  0  -0.721214  0  2.348808  0  0  -0.32442  -0.674411  0  2.378497  0
O  O51  1  0.33861113  0.35700457  0.53784842  1  0  -0.802345  0  2.105868  0  0  -0.693954  0  2.366539  0  0  -0.721364  0  2.348914  0  0  -0.324468  -0.674504  0  2.378571  0
O  O52  1  0.39629669  0.68227034  0.58706707  1  0  -0.807573  0  2.01871  0  0  -0.712644  0  2.278496  0  0  -0.738372  0  2.260413  0  0  -0.342731  -0.694357  0  2.290493  0
O  O53  1  0.60371517  0.31774103  0.41293857  1  0  -0.807525  0  2.018432  0  0  -0.71264  0  2.278252  0  0  -0.738385  0  2.260169  0  0  -0.342742  -0.69434  0  2.290244  0
O  O54  1  0.71849659  0.64926802  0.66253900  1  0  -0.819685  0  2.042799  0  0  -0.722385  0  2.309044  0  0  -0.747855  0  2.290277  0  0  -0.337053  -0.703054  0  2.320449  0
O  O55  1  0.28150182  0.35071558  0.33745719  1  0  -0.819723  0  2.042871  0  0  -0.722438  0  2.30911  0  0  -0.747914  0  2.290338  0  0  -0.337045  -0.703066  0  2.320453  0
O  O56  1  0.67753722  0.47757959  0.24309510  1  0  -0.857262  0  1.880546  0  0  -0.7182  0  2.138168  0  0  -0.74959  0  2.125533  0  0  -0.436921  -0.695293  0  2.14669  0
O  O57  1  0.32247188  0.52244070  0.75690050  1  0  -0.857257  0  1.880549  0  0  -0.718202  0  2.138155  0  0  -0.749589  0  2.125532  0  0  -0.436942  -0.695247  0  2.146559  0
O  O58  1  0.70626852  0.66449475  0.90181698  1  0  -0.80147  0  2.075311  0  0  -0.699425  0  2.339084  0  0  -0.72558  0  2.321593  0  0  -0.331003  -0.681194  0  2.351173  0
O  O59  1  0.29373123  0.33550332  0.09818364  1  0  -0.801479  0  2.075319  0  0  -0.699426  0  2.339116  0  0  -0.72558  0  2.321626  0  0  -0.331016  -0.681199  0  2.351203  0
O  O60  1  0.74759766  0.68330882  0.10714521  1  0  -0.817906  0  2.035982  0  0  -0.720405  0  2.299496  0  0  -0.748319  0  2.283382  0  0  -0.338945  -0.702788  0  2.309869  0
O  O61  1  0.25239401  0.31669597  0.89285671  1  0  -0.817902  0  2.035987  0  0  -0.720438  0  2.299563  0  0  -0.748357  0  2.283454  0  0  -0.33895  -0.70282  0  2.309934  0
O  O62  1  0.40079328  0.63080970  0.01653679  1  0  -0.812986  0  2.113452  0  0  -0.709782  0  2.379209  0  0  -0.736056  0  2.36207  0  0  -0.329547  -0.690073  0  2.390296  0
O  O63  1  0.59920404  0.36919507  0.98345807  1  0  -0.813037  0  2.113571  0  0  -0.709793  0  2.379291  0  0  -0.73607  0  2.362159  0  0  -0.329524  -0.690075  0  2.390368  0
