# generated using pymatgen
data_NiH16C14(N7O)2
_symmetry_space_group_name_H-M   'P 1'
_cell_length_a   7.41355635
_cell_length_b   8.45456835
_cell_length_c   8.45462703
_cell_angle_alpha   108.09215281
_cell_angle_beta   99.01923365
_cell_angle_gamma   99.02010535
_symmetry_Int_Tables_number   1
_chemical_formula_structural   NiH16C14(N7O)2
_chemical_formula_sum   'Ni1 H16 C14 N14 O2'
_cell_volume   485.43344212
_cell_formula_units_Z   1
loop_
 _symmetry_equiv_pos_site_id
 _symmetry_equiv_pos_as_xyz
  1  'x, y, z'
loop_
 _atom_site_type_symbol
 _atom_site_label
 _atom_site_symmetry_multiplicity
 _atom_site_fract_x
 _atom_site_fract_y
 _atom_site_fract_z
 _atom_site_occupancy
 _atom_site_pbe_bader_charge
 _atom_site_pbe_bader_spin_density
 _atom_site_pbe_cm5_charge
 _atom_site_pbe_ddec_charge
 _atom_site_pbe_ddec_spin_density
 _atom_site_pbe_ddec_sum_bond_order
 _atom_site_pbe_magmom
Ni  Ni0  1  0.49999597  0.99999192  0.49999225  1  0.91037  0  0.682787  0.466962  0  2.947149  0
H  H1  1  0.58716534  0.81266498  0.13366973  1  0.179323  0  0.14421  0.12241  0  0.970969  0
H  H2  1  0.41283970  0.36632697  0.68732601  1  0.18148  0  0.144232  0.122446  0  0.971037  0
H  H3  1  0.41283526  0.18732839  0.86631099  1  0.179294  0  0.144186  0.122474  0  0.97099  0
H  H4  1  0.58717332  0.63366126  0.31267256  1  0.181483  0  0.144207  0.122387  0  0.971079  0
H  H5  1  0.75483370  0.31904464  0.47676304  1  0.215602  0  0.141879  0.110148  0  1.056217  0
H  H6  1  0.24516472  0.02324087  0.18094927  1  0.215515  0  0.141842  0.110089  0  1.056267  0
H  H7  1  0.24515276  0.68094106  0.52323228  1  0.215569  0  0.1419  0.110137  0  1.056093  0
H  H8  1  0.75482376  0.97675887  0.81904952  1  0.215043  0  0.141832  0.110075  0  1.056292  0
H  H9  1  0.91430496  0.45281970  0.29908247  1  0.112628  0  0.118702  0.103678  0  1.01536  0
H  H10  1  0.08569358  0.20092507  0.04718278  1  0.11273  0  0.118754  0.103703  0  1.015333  0
H  H11  1  0.08568929  0.54718129  0.70093169  1  0.1128  0  0.118729  0.103644  0  1.015288  0
H  H12  1  0.91430040  0.79908614  0.95282389  1  0.112686  0  0.118721  0.103671  0  1.015315  0
H  H13  1  0.82569051  0.34838419  0.07393695  1  0.15799  0  0.118645  0.124873  0  1.001957  0
H  H14  1  0.17431357  0.42607110  0.15161955  1  0.158123  0  0.118652  0.124838  0  1.002007  0
H  H15  1  0.17431228  0.65162955  0.92607526  1  0.158143  0  0.118633  0.124863  0  1.001984  0
H  H16  1  0.82568799  0.57393754  0.84839445  1  0.158333  0  0.118642  0.124831  0  1.002029  0
C  C17  1  0.65348360  0.94699554  0.18915060  1  0.990731  0  0.164597  0.157573  0  3.937574  0
C  C18  1  0.34652458  0.31085295  0.55300238  1  0.990706  0  0.16454  0.15742  0  3.93757  0
C  C19  1  0.34651823  0.05300292  0.81084253  1  0.990479  0  0.164625  0.157343  0  3.937584  0
C  C20  1  0.65348346  0.68914292  0.44700735  1  0.990815  0  0.164699  0.157708  0  3.937761  0
C  C21  1  0.73671828  0.20351768  0.36820223  1  0.966602  0  0.169503  0.083024  0  3.851354  0
C  C22  1  0.26328275  0.13179241  0.29646852  1  0.966525  0  0.169582  0.083157  0  3.851031  0
C  C23  1  0.26327293  0.79648204  0.63180284  1  0.966716  0  0.169575  0.083124  0  3.851547  0
C  C24  1  0.73670798  0.86819967  0.70352701  1  0.966699  0  0.169544  0.083116  0  3.851327  0
C  C25  1  0.90372036  0.33707263  0.19059764  1  0.284688  0  -0.046147  -0.120912  0  3.853999  0
C  C26  1  0.09627945  0.30940786  0.16292847  1  0.261584  0  -0.046146  -0.120817  0  3.853887  0
C  C27  1  0.09627618  0.66293219  0.80941330  1  0.261684  0  -0.046132  -0.120835  0  3.853752  0
C  C28  1  0.90371906  0.69059951  0.83708236  1  0.284396  0  -0.046138  -0.120841  0  3.853822  0
C  C29  1  0.87377911  0.26549587  0.76549810  1  1.651203  0  0.21156  0.49129  0  4.468779  0
C  C30  1  0.12624254  0.73448854  0.23448982  1  1.653106  0  0.211657  0.491919  0  4.467683  0
N  N31  1  0.79789077  0.19656003  0.22604579  1  -0.836323  0  -0.131319  0.177737  0  3.739359  0
N  N32  1  0.20211026  0.27395973  0.30343695  1  -0.831967  0  -0.13139  0.177531  0  3.739405  0
N  N33  1  0.20210969  0.80343843  0.77394715  1  -0.83643  0  -0.131274  0.177799  0  3.739481  0
N  N34  1  0.79788262  0.72604127  0.69656874  1  -0.832184  0  -0.131311  0.177694  0  3.739449  0
N  N35  1  0.74746494  0.03450816  0.11075823  1  -0.696134  0  -0.217894  -0.27002  0  3.124882  0
N  N36  1  0.25253879  0.38924363  0.46548950  1  -0.700477  0  -0.217871  -0.269855  0  3.124946  0
N  N37  1  0.25253279  0.96549030  0.88923788  1  -0.695976  0  -0.217925  -0.269985  0  3.124966  0
N  N38  1  0.74746440  0.61075480  0.53451563  1  -0.700617  0  -0.217987  -0.270153  0  3.125115  0
N  N39  1  0.64318827  0.04682546  0.34784042  1  -1.165582  0  -0.352157  -0.236051  0  3.663694  0
N  N40  1  0.35682077  0.15215791  0.45316610  1  -1.165263  0  -0.352146  -0.236049  0  3.66328  0
N  N41  1  0.35680639  0.95316025  0.65214774  1  -1.165277  0  -0.352275  -0.236153  0  3.66365  0
N  N42  1  0.64317785  0.84783289  0.54682892  1  -1.165099  0  -0.352167  -0.236039  0  3.663548  0
N  N43  1  0.72104052  0.28663124  0.78663086  1  -1.329372  0  -0.463576  -0.742444  0  2.885992  0
N  N44  1  0.27898029  0.71337230  0.21337237  1  -1.329885  0  -0.463387  -0.742586  0  2.885901  0
O  O45  1  0.02860713  0.24387213  0.74386768  1  -1.175515  0  -0.30945  -0.487191  0  2.201372  0
O  O46  1  0.97141382  0.75612631  0.25613161  1  -1.176947  0  -0.309741  -0.487734  0  2.200645  0
