# generated using pymatgen
data_NaH2C3S(ClO2)2
_symmetry_space_group_name_H-M   'P 1'
_cell_length_a   5.61844247
_cell_length_b   10.66857797
_cell_length_c   11.57207529
_cell_angle_alpha   91.10041414
_cell_angle_beta   90.00056435
_cell_angle_gamma   90.00021986
_symmetry_Int_Tables_number   1
_chemical_formula_structural   NaH2C3S(ClO2)2
_chemical_formula_sum   'Na4 H8 C12 S4 Cl8 O16'
_cell_volume   693.51142678
_cell_formula_units_Z   4
loop_
 _symmetry_equiv_pos_site_id
 _symmetry_equiv_pos_as_xyz
  1  'x, y, z'
loop_
 _atom_site_type_symbol
 _atom_site_label
 _atom_site_symmetry_multiplicity
 _atom_site_fract_x
 _atom_site_fract_y
 _atom_site_fract_z
 _atom_site_occupancy
 _atom_site_pbe_bader_spin_density
 _atom_site_pbe_cm5_charge
 _atom_site_pbe_ddec_charge
 _atom_site_pbe_ddec_spin_density
 _atom_site_pbe_ddec_sum_bond_order
 _atom_site_pbe_magmom
Na  Na0  1  0.48150160  0.30005467  0.38066601  1  0  0.670267  0.874927  0  0.524141  0
Na  Na1  1  0.98150173  0.19994590  0.61933563  1  0  0.67028  0.874922  0  0.524114  0
Na  Na2  1  0.51849278  0.69994307  0.61933579  1  0  0.670283  0.87494  0  0.524109  0
Na  Na3  1  0.01849978  0.80005465  0.38066795  1  0  0.670278  0.874927  0  0.524113  0
H  H4  1  0.50429137  0.25855452  0.61599974  1  0  0.295781  0.392005  0  0.944147  0
H  H5  1  0.00428908  0.24144698  0.38399973  1  0  0.295786  0.392001  0  0.944141  0
H  H6  1  0.49571013  0.74144603  0.38400298  1  0  0.295798  0.392022  0  0.944116  0
H  H7  1  0.99569996  0.75855264  0.61600297  1  0  0.295738  0.392001  0  0.944159  0
H  H8  1  0.63614509  0.38886946  0.61115563  1  0  0.297692  0.397937  0  0.931854  0
H  H9  1  0.13614190  0.11113136  0.38884443  1  0  0.29771  0.39797  0  0.931804  0
H  H10  1  0.36385641  0.61113110  0.38884450  1  0  0.297721  0.397943  0  0.931838  0
H  H11  1  0.86384181  0.88886452  0.61115388  1  0  0.297656  0.397898  0  0.931935  0
C  C12  1  0.99439977  0.48778642  0.12339817  1  0  -0.025173  -0.18252  0  3.877228  0
C  C13  1  0.49439896  0.01221419  0.87660008  1  0  -0.025228  -0.182686  0  3.877212  0
C  C14  1  0.00561063  0.51221602  0.87660027  1  0  -0.025197  -0.182619  0  3.877149  0
C  C15  1  0.50560076  0.98778357  0.12339740  1  0  -0.025172  -0.18255  0  3.877147  0
C  C16  1  0.16450402  0.56356592  0.06916598  1  0  0.005692  0.065024  0  4.039614  0
C  C17  1  0.66450007  0.93643305  0.93083241  1  0  0.005724  0.065096  0  4.039671  0
C  C18  1  0.83550638  0.43643558  0.93083417  1  0  0.005732  0.065104  0  4.039419  0
C  C19  1  0.33549609  0.06356565  0.06916336  1  0  0.005707  0.065027  0  4.039785  0
C  C20  1  0.82674556  0.42562019  0.05239790  1  0  0.007567  0.075536  0  4.03705  0
C  C21  1  0.32674138  0.07438289  0.94760309  1  0  0.007598  0.075664  0  4.0368  0
C  C22  1  0.17326484  0.57438131  0.94760312  1  0  0.007591  0.075649  0  4.036966  0
C  C23  1  0.67325122  0.92561768  0.05239704  1  0  0.007565  0.075593  0  4.036942  0
S  S24  1  0.99226381  0.48134307  0.28171905  1  0  0.524987  1.225911  0  6.167431  0
S  S25  1  0.49225793  0.01865754  0.71827919  1  0  0.525039  1.225996  0  6.167232  0
S  S26  1  0.00773947  0.51865937  0.71828112  1  0  0.525054  1.225976  0  6.16734  0
S  S27  1  0.50774179  0.98134210  0.28171919  1  0  0.524994  1.225873  0  6.167025  0
Cl  Cl28  1  0.36629955  0.65054754  0.14842748  1  0  0.049979  -0.011335  0  1.887446  0
Cl  Cl29  1  0.86628970  0.84945369  0.85157534  1  0  0.049975  -0.011312  0  1.887561  0
Cl  Cl30  1  0.63370373  0.34945489  0.85157442  1  0  0.049963  -0.011358  0  1.8875  0
Cl  Cl31  1  0.13371180  0.15054313  0.14842385  1  0  0.049964  -0.011327  0  1.887651  0
Cl  Cl32  1  0.60165848  0.33532808  0.10608034  1  0  0.033535  -0.034824  0  1.926341  0
Cl  Cl33  1  0.10164853  0.16468019  0.89391540  1  0  0.033505  -0.034896  0  1.926147  0
Cl  Cl34  1  0.39835014  0.66467718  0.89391730  1  0  0.033477  -0.034924  0  1.926308  0
Cl  Cl35  1  0.89834229  0.83532130  0.10608734  1  0  0.033513  -0.034869  0  1.926204  0
O  O36  1  0.61636128  0.30795022  0.56982037  1  0  -0.699821  -0.866892  0  1.956711  0
O  O37  1  0.11636492  0.19205150  0.43017962  1  0  -0.699836  -0.866905  0  1.956666  0
O  O38  1  0.38363844  0.69204847  0.43017972  1  0  -0.699872  -0.86691  0  1.956659  0
O  O39  1  0.88362946  0.80794625  0.56982132  1  0  -0.699742  -0.866872  0  1.956735  0
O  O40  1  0.24178924  0.46561709  0.31744083  1  0  -0.391167  -0.666704  0  2.288141  0
O  O41  1  0.74178585  0.03438205  0.68256314  1  0  -0.391159  -0.666706  0  2.288055  0
O  O42  1  0.75821405  0.53438440  0.68256019  1  0  -0.391208  -0.666729  0  2.288075  0
O  O43  1  0.25821387  0.96561851  0.31743872  1  0  -0.39121  -0.666762  0  2.288027  0
O  O44  1  0.85019589  0.37244585  0.31410334  1  0  -0.383979  -0.638761  0  2.3203  0
O  O45  1  0.35019551  0.12756007  0.68590300  1  0  -0.383995  -0.638724  0  2.320239  0
O  O46  1  0.14980561  0.62755378  0.68589677  1  0  -0.383988  -0.638745  0  2.320393  0
O  O47  1  0.64980777  0.87244329  0.31410237  1  0  -0.383981  -0.63871  0  2.320261  0
O  O48  1  0.88819844  0.60122752  0.31717119  1  0  -0.385384  -0.630334  0  2.219364  0
O  O49  1  0.38818408  0.89877660  0.68282488  1  0  -0.385328  -0.630321  0  2.219321  0
O  O50  1  0.11180306  0.39877118  0.68282544  1  0  -0.385383  -0.630335  0  2.219183  0
O  O51  1  0.61181564  0.10122584  0.31717702  1  0  -0.385328  -0.630311  0  2.219168  0
