# generated using pymatgen
data_AlH9C21(ClO2)3
_symmetry_space_group_name_H-M   'P 1'
_cell_length_a   4.02663582
_cell_length_b   24.65264829
_cell_length_c   24.65267687
_cell_angle_alpha   120.00042678
_cell_angle_beta   89.99953000
_cell_angle_gamma   90.00083881
_symmetry_Int_Tables_number   1
_chemical_formula_structural   AlH9C21(ClO2)3
_chemical_formula_sum   'Al2 H18 C42 Cl6 O12'
_cell_volume   2119.33094384
_cell_formula_units_Z   2
loop_
 _symmetry_equiv_pos_site_id
 _symmetry_equiv_pos_as_xyz
  1  'x, y, z'
loop_
 _atom_site_type_symbol
 _atom_site_label
 _atom_site_symmetry_multiplicity
 _atom_site_fract_x
 _atom_site_fract_y
 _atom_site_fract_z
 _atom_site_occupancy
 _atom_site_pbe_bader_charge
 _atom_site_pbe_bader_spin_density
 _atom_site_pbe_cm5_charge
 _atom_site_pbe_ddec_charge
 _atom_site_pbe_ddec_spin_density
 _atom_site_pbe_ddec_sum_bond_order
 _atom_site_pbe_magmom
Al  Al0  1  0.99785253  0.49999734  0.50000034  1  2.507579  0  0.431655  1.599287  0  2.57041  0
Al  Al1  1  0.99865723  0.16666094  0.83333192  1  2.508018  0  0.431762  1.599575  0  2.569651  0
H  H2  1  0.24362805  0.48985780  0.66237980  1  0.09254  0  0.112297  0.131099  0  0.984437  0
H  H3  1  0.24356965  0.17653137  0.67077618  1  0.088306  0  0.112319  0.131195  0  0.984322  0
H  H4  1  0.77536146  0.32860592  0.82124429  1  0.103924  0  0.111262  0.119335  0  0.978207  0
H  H5  1  0.75141732  0.38717258  0.76377378  1  0.106949  0  0.085812  0.090069  0  1.07222  0
H  H6  1  0.77450746  0.33779431  0.51172653  1  0.099257  0  0.110923  0.118198  0  0.978448  0
H  H7  1  0.75082872  0.27913176  0.56911197  1  0.100011  0  0.086284  0.090943  0  1.071456  0
H  H8  1  0.24364450  0.67251283  0.51013830  1  0.135676  0  0.112293  0.131068  0  0.984331  0
H  H9  1  0.24355901  0.99423991  0.82346883  1  0.130595  0  0.112309  0.131224  0  0.984265  0
H  H10  1  0.77538120  0.99262981  0.67139307  1  0.088076  0  0.111313  0.119362  0  0.978098  0
H  H11  1  0.75143950  0.87659008  0.61282731  1  0.084706  0  0.085914  0.090117  0  1.071903  0
H  H12  1  0.77447862  0.67392694  0.66220919  1  0.093931  0  0.111004  0.118187  0  0.978445  0
H  H13  1  0.75080489  0.78997431  0.72087353  1  0.080432  0  0.086301  0.091019  0  1.071335  0
H  H14  1  0.24365182  0.33761896  0.32747969  1  0.086553  0  0.112231  0.130981  0  0.984428  0
H  H15  1  0.24355978  0.32922227  0.00575206  1  0.083451  0  0.112334  0.131225  0  0.984151  0
H  H16  1  0.77540171  0.17876572  0.00736975  1  0.065174  0  0.111318  0.119323  0  0.978378  0
H  H17  1  0.75146084  0.23624242  0.12340881  1  0.098447  0  0.085896  0.090065  0  1.07203  0
H  H18  1  0.77445628  0.48828181  0.32607301  1  0.058695  0  0.111048  0.118248  0  0.978717  0
H  H19  1  0.75077427  0.43090348  0.21002559  1  0.09451  0  0.086274  0.090917  0  1.071349  0
C  C20  1  0.49912379  0.45249622  0.40394883  1  1.53914  0  0.277036  0.655487  0  4.056834  0
C  C21  1  0.49911039  0.45144901  0.54750473  1  1.576492  0  0.277163  0.655734  0  4.056389  0
C  C22  1  0.49910914  0.59604839  0.54854914  1  1.586785  0  0.277127  0.655715  0  4.056609  0
C  C23  1  0.49984454  0.21499499  0.78560752  1  1.576031  0  0.276604  0.654052  0  4.057895  0
C  C24  1  0.49984082  0.07060421  0.78500029  1  1.587541  0  0.276484  0.653893  0  4.058072  0
C  C25  1  0.49985351  0.21438945  0.92939105  1  1.545679  0  0.276469  0.653931  0  4.058046  0
C  C26  1  0.50440281  0.41706581  0.58281513  1  -0.091955  0  -0.008641  -0.02102  0  3.972142  0
C  C27  1  0.50474177  0.24934456  0.75025692  1  -0.092371  0  -0.008586  -0.019948  0  3.971774  0
C  C28  1  0.36016304  0.44397071  0.64222014  1  0.094516  0  -0.085833  -0.157676  0  3.963294  0
C  C29  1  0.36955085  0.41255974  0.67603810  1  -0.043263  0  0.016436  0.103096  0  4.002291  0
C  C30  1  0.36012502  0.22241029  0.69087773  1  0.094928  0  -0.085753  -0.158065  0  3.962899  0
C  C31  1  0.36941781  0.25376337  0.65700653  1  -0.038733  0  0.016565  0.1034  0  4.002662  0
C  C32  1  0.65359501  0.30839236  0.77576706  1  0.001439  0  -0.080735  -0.085132  0  3.960714  0
C  C33  1  0.64097871  0.34084480  0.74323274  1  0.0296  0  -0.091497  -0.116689  0  3.995225  0
C  C34  1  0.65306592  0.35798843  0.55723755  1  0.051217  0  -0.081022  -0.083823  0  3.959749  0
C  C35  1  0.64048998  0.32547172  0.58970062  1  -0.035731  0  -0.091819  -0.118084  0  3.996598  0
C  C36  1  0.49960778  0.35133210  0.64988406  1  0.084927  0  -0.007482  0.021786  0  3.954754  0
C  C37  1  0.49973208  0.31496739  0.68308227  1  0.00517  0  -0.00814  0.020799  0  3.955205  0
C  C38  1  0.50440110  0.66574140  0.58293323  1  -0.090973  0  -0.008507  -0.020885  0  3.97189  0
C  C39  1  0.50472609  0.00090705  0.75065605  1  -0.061999  0  -0.008588  -0.02014  0  3.971592  0
C  C40  1  0.36017604  0.69824505  0.55603298  1  -0.036835  0  -0.085864  -0.157766  0  3.963377  0
C  C41  1  0.36956559  0.76346886  0.58743875  1  0.090959  0  0.01641  0.103292  0  4.001944  0
C  C42  1  0.36012280  0.96845816  0.77758661  1  0.119653  0  -0.085824  -0.158139  0  3.963444  0
C  C43  1  0.36939150  0.90324066  0.74623864  1  -0.044508  0  0.016583  0.10345  0  4.003024  0
C  C44  1  0.65360304  0.96736222  0.69160459  1  0.051348  0  -0.080775  -0.085084  0  3.96091  0
C  C45  1  0.64097261  0.90238658  0.65916127  1  -0.043771  0  -0.09158  -0.116691  0  3.995728  0
C  C46  1  0.65305376  0.69924673  0.64201741  1  0.090789  0  -0.080986  -0.08363  0  3.959552  0
C  C47  1  0.64046215  0.76422129  0.67452993  1  -0.049622  0  -0.091994  -0.118354  0  3.99669  0
C  C48  1  0.49960720  0.79854510  0.64867090  1  -0.03336  0  -0.007405  0.021792  0  3.954786  0
C  C49  1  0.49974095  0.86810520  0.68503030  1  0.048634  0  -0.008203  0.020664  0  3.955294  0
C  C50  1  0.50438390  0.41718555  0.33425439  1  -0.024157  0  -0.008578  -0.020818  0  3.972109  0
C  C51  1  0.50474083  0.24974747  0.99908926  1  -0.056835  0  -0.008539  -0.020045  0  3.971741  0
C  C52  1  0.36017985  0.35778557  0.30175033  1  0.133231  0  -0.085825  -0.157763  0  3.963845  0
C  C53  1  0.36955502  0.32396706  0.23652418  1  -0.009375  0  0.01648  0.103368  0  4.002229  0
C  C54  1  0.36012956  0.30912236  0.03153422  1  0.152164  0  -0.08586  -0.158136  0  3.963275  0
C  C55  1  0.36939775  0.34299631  0.09675444  1  -0.011827  0  0.016537  0.103382  0  4.0027  0
C  C56  1  0.65362399  0.22423963  0.03263338  1  -0.027377  0  -0.080838  -0.085111  0  3.960719  0
C  C57  1  0.64099543  0.25678023  0.09761629  1  0.043431  0  -0.091579  -0.116681  0  3.995502  0
C  C58  1  0.65304836  0.44277323  0.30075536  1  -0.030597  0  -0.080978  -0.083741  0  3.95936  0
C  C59  1  0.64043749  0.41030832  0.23577462  1  0.065105  0  -0.091992  -0.118274  0  3.996566  0
C  C60  1  0.49960103  0.35012643  0.20145071  1  0.044217  0  -0.00751  0.021716  0  3.955009  0
C  C61  1  0.49974281  0.31692500  0.13188940  1  -0.03722  0  -0.008064  0.02085  0  3.955086  0
Cl  Cl62  1  0.20880121  0.45277966  0.75153847  1  -0.22506  0  0.003781  -0.077589  0  1.569135  0
Cl  Cl63  1  0.20831565  0.21351917  0.58153334  1  -0.228842  0  0.003663  -0.07773  0  1.568936  0
Cl  Cl64  1  0.20882346  0.79875033  0.54721977  1  -0.227622  0  0.003743  -0.077686  0  1.568951  0
Cl  Cl65  1  0.20830667  0.86801046  0.78648308  1  -0.230133  0  0.003696  -0.077659  0  1.569031  0
Cl  Cl66  1  0.20884277  0.24846476  0.20124157  1  -0.227716  0  0.003771  -0.077654  0  1.569028  0
Cl  Cl67  1  0.20829048  0.41846845  0.13198249  1  -0.228793  0  0.00372  -0.077643  0  1.569017  0
O  O68  1  0.73171126  0.56814735  0.56025974  1  -1.260299  0  -0.238962  -0.600312  0  2.357039  0
O  O69  1  0.73169863  0.49210497  0.43184992  1  -1.260401  0  -0.238834  -0.600118  0  2.357414  0
O  O70  1  0.73169456  0.43973934  0.50789251  1  -1.259623  0  -0.238927  -0.600208  0  2.357112  0
O  O71  1  0.26241007  0.56897471  0.50974691  1  -1.260675  0  -0.23686  -0.59534  0  2.359284  0
O  O72  1  0.26240053  0.49025078  0.55923310  1  -1.251223  0  -0.236959  -0.595405  0  2.358934  0
O  O73  1  0.26240145  0.44076432  0.43102167  1  -1.253876  0  -0.236986  -0.59537  0  2.359024  0
O  O74  1  0.73259763  0.17479328  0.90157686  1  -1.259102  0  -0.238449  -0.59938  0  2.358406  0
O  O75  1  0.73261658  0.22677601  0.82520243  1  -1.259876  0  -0.238612  -0.599529  0  2.358035  0
O  O76  1  0.73259491  0.09841868  0.77321937  1  -1.260803  0  -0.238526  -0.599381  0  2.358185  0
O  O77  1  0.26332967  0.22604843  0.90222107  1  -1.253933  0  -0.23692  -0.595068  0  2.358542  0
O  O78  1  0.26332353  0.09777301  0.82382939  1  -1.260635  0  -0.236871  -0.594993  0  2.358728  0
O  O79  1  0.26334299  0.17616563  0.77394679  1  -1.250703  0  -0.236908  -0.59508  0  2.35888  0
