# generated using pymatgen
data_CuMoH10C7(N3O2)2
_symmetry_space_group_name_H-M   'P 1'
_cell_length_a   8.24515519
_cell_length_b   8.45609081
_cell_length_c   10.04791838
_cell_angle_alpha   103.48146949
_cell_angle_beta   94.67849753
_cell_angle_gamma   116.42717938
_symmetry_Int_Tables_number   1
_chemical_formula_structural   CuMoH10C7(N3O2)2
_chemical_formula_sum   'Cu2 Mo2 H20 C14 N12 O8'
_cell_volume   596.08988658
_cell_formula_units_Z   2
loop_
 _symmetry_equiv_pos_site_id
 _symmetry_equiv_pos_as_xyz
  1  'x, y, z'
loop_
 _atom_site_type_symbol
 _atom_site_label
 _atom_site_symmetry_multiplicity
 _atom_site_fract_x
 _atom_site_fract_y
 _atom_site_fract_z
 _atom_site_occupancy
 _atom_site_hle17_ddec_charge
 _atom_site_hle17_ddec_spin_density
 _atom_site_hle17_ddec_sum_bond_order
 _atom_site_hle17_magmom
 _atom_site_hse06_10hf_ddec_charge
 _atom_site_hse06_10hf_ddec_spin_density
 _atom_site_hse06_10hf_ddec_sum_bond_order
 _atom_site_hse06_10hf_magmom
 _atom_site_hse06_ddec_charge
 _atom_site_hse06_ddec_spin_density
 _atom_site_hse06_ddec_sum_bond_order
 _atom_site_hse06_magmom
 _atom_site_pbe_cm5_charge
 _atom_site_pbe_ddec_charge
 _atom_site_pbe_ddec_spin_density
 _atom_site_pbe_ddec_sum_bond_order
 _atom_site_pbe_magmom
Cu  Cu0  1  0.00000118  0.99999996  0.00000108  1  0.920659  0.723921  1.948212  0.534  0.903226  0.809804  2.360275  0.653  0.991732  0.885651  2.287619  0.739  0.75418  0.845399  0.734995  2.412084  0.579
Cu  Cu1  1  0.99999935  0.50000009  0.99999825  1  0.897815  -0.714317  1.924986  -0.521  0.879004  -0.804727  2.334237  -0.645  0.971851  -0.882511  2.259475  -0.733  0.742917  0.819123  -0.727995  2.386847  -0.568
Mo  Mo2  1  0.20024422  0.28537160  0.78777046  1  2.086274  0.006216  4.322307  0.009  2.079876  0.003216  4.944454  0.005  2.190694  0.002695  4.90186  0.005  1.433987  2.004564  0.003962  4.972125  0.006
Mo  Mo3  1  0.79975628  0.71463065  0.21222779  1  2.086286  0.006212  4.32219  0.009  2.079925  0.003215  4.944291  0.005  2.190734  0.002692  4.901696  0.005  1.434029  2.004616  0.00396  4.971974  0.006
H  H4  1  0.20870656  0.24457069  0.34934654  1  0.119734  -0.000467  0.905382  0.0  0.13177  -0.000345  0.958748  0.0  0.134369  -0.000278  0.955859  0.0  0.151971  0.129683  -0.00035  0.961137  0.0
H  H5  1  0.79128780  0.75543155  0.65065321  1  0.119735  -0.000464  0.905375  0.0  0.131766  -0.000345  0.958741  0.0  0.134364  -0.000278  0.955853  0.0  0.151979  0.129674  -0.00035  0.961139  0.0
H  H6  1  0.16232557  0.71711723  0.32912170  1  0.118463  6.7e-05  0.985758  0.0  0.123776  2.3e-05  1.053065  0.0  0.127181  5e-06  1.049243  0.0  0.139689  0.121151  4.1e-05  1.055945  0.0
H  H7  1  0.83767169  0.28288088  0.67087543  1  0.118444  6.3e-05  0.985791  0.0  0.123742  2.3e-05  1.053121  0.0  0.127158  6e-06  1.049289  0.0  0.139682  0.121125  4.1e-05  1.055993  0.0
H  H8  1  0.55761382  0.71478538  0.86523514  1  0.129429  -0.000205  0.928422  0.0  0.134502  -0.000215  0.996483  0.0  0.13814  -0.00014  0.99191  0.0  0.149183  0.131759  -0.000267  0.999849  0.0
H  H9  1  0.44238958  0.28521540  0.13476502  1  0.129435  -0.000211  0.928413  0.0  0.134502  -0.000215  0.996486  0.0  0.13814  -0.00014  0.991909  0.0  0.14918  0.131753  -0.000267  0.999842  0.0
H  H10  1  0.54551207  0.19848535  0.82455782  1  0.128054  0.000414  0.954161  0.0  0.134614  0.000332  1.020159  0.0  0.13857  0.000262  1.015696  0.0  0.138674  0.131542  0.000372  1.023703  0.0
H  H11  1  0.45449311  0.80151406  0.17544120  1  0.128086  0.000413  0.954115  0.0  0.134637  0.000332  1.020107  0.0  0.138587  0.000262  1.015661  0.0  0.13867  0.131586  0.000372  1.023638  0.0
H  H12  1  0.44096090  0.63769719  0.56063293  1  0.073281  6.1e-05  0.91515  0.0  0.090545  3e-05  0.974905  0.0  0.090639  2.5e-05  0.974957  0.0  0.110179  0.090331  3.4e-05  0.974974  0.0
H  H13  1  0.55903371  0.36229807  0.43936639  1  0.073324  5.6e-05  0.915146  0.0  0.090551  3e-05  0.974911  0.0  0.090643  2.5e-05  0.974973  0.0  0.110165  0.090334  3.4e-05  0.974981  0.0
H  H14  1  0.22284840  0.47991784  0.58522591  1  0.078122  -0.000243  0.976761  0.0  0.08872  -0.000247  1.051816  0.0  0.090028  -0.000176  1.051069  0.0  0.108937  0.087824  -0.000221  1.052261  0.0
H  H15  1  0.77714653  0.52008304  0.41477260  1  0.078154  -0.000244  0.976684  0.0  0.088717  -0.000247  1.051758  0.0  0.090027  -0.000176  1.051011  0.0  0.108942  0.087822  -0.000221  1.052186  0.0
H  H16  1  0.10665955  0.71074818  0.56140475  1  0.098831  5.4e-05  0.942027  0.0  0.116295  4e-05  1.00123  0.0  0.117424  3e-05  1.001675  0.0  0.103859  0.115381  5.2e-05  1.001161  0.0
H  H17  1  0.89334024  0.28925532  0.43859866  1  0.09884  5.2e-05  0.94208  0.0  0.116348  4e-05  1.00123  0.0  0.117477  3e-05  1.001672  0.0  0.103861  0.11543  5.2e-05  1.001164  0.0
H  H18  1  0.33300149  0.87257192  0.56428168  1  0.082362  8e-06  0.913988  0.0  0.103387  1.4e-05  0.966359  0.0  0.104279  7e-06  0.966399  0.0  0.101524  0.102722  -6e-06  0.966397  0.0
H  H19  1  0.66699823  0.12742886  0.43571919  1  0.082348  8e-06  0.913956  0.0  0.10339  1.4e-05  0.966335  0.0  0.104281  8e-06  0.966376  0.0  0.101529  0.102721  -6e-06  0.966376  0.0
H  H20  1  0.22789060  0.90192412  0.79637888  1  0.112357  0.000187  0.969129  0.0  0.123596  0.000133  1.033237  0.0  0.12608  7.1e-05  1.032467  0.0  0.113981  0.121826  0.000194  1.0338  0.0
H  H21  1  0.77211324  0.09807517  0.20362399  1  0.11231  0.000182  0.969114  0.0  0.12357  0.000133  1.033237  0.0  0.126055  7.1e-05  1.032465  0.0  0.113964  0.121797  0.000194  1.033806  0.0
H  H22  1  0.23266943  0.69414783  0.80105830  1  0.099695  0.000163  0.964369  0.0  0.111594  8.2e-05  1.030207  0.0  0.113551  6.2e-05  1.030101  0.0  0.112118  0.110226  0.000136  1.030213  0.0
H  H23  1  0.76733636  0.30585290  0.19894303  1  0.099676  0.000154  0.964353  0.0  0.111601  8.2e-05  1.030213  0.0  0.11356  6.2e-05  1.030106  0.0  0.112121  0.110229  0.000136  1.030214  0.0
C  C24  1  0.19035207  0.34413107  0.30744009  1  0.155901  -0.002027  3.623541  -0.003  0.099544  -0.001722  3.898222  -0.003  0.112426  -0.001131  3.907809  -0.002  0.16265  0.091296  -0.002257  3.891681  -0.003
C  C25  1  0.80964405  0.65586976  0.69255951  1  0.155931  -0.002039  3.623416  -0.003  0.099584  -0.001721  3.898088  -0.003  0.112468  -0.00113  3.907669  -0.002  0.162661  0.091339  -0.002257  3.891562  -0.003
C  C26  1  0.16974744  0.58889376  0.29852986  1  0.155088  0.004168  3.603929  0.003  0.095899  0.000391  3.865459  -0.001  0.110928  0.001517  3.87716  0.001  0.160273  0.086356  -0.000488  3.857621  -0.002
C  C27  1  0.83025161  0.41110563  0.70147066  1  0.155137  0.004182  3.603931  0.003  0.095951  0.000391  3.865495  -0.001  0.110971  0.001516  3.877188  0.001  0.160271  0.086401  -0.000488  3.857665  -0.002
C  C28  1  0.60202571  0.85740292  0.86737538  1  0.15323  -0.004447  3.591655  -0.003  0.095185  -0.000497  3.858523  0.001  0.110497  -0.00157  3.869114  -0.001  0.163166  0.085287  0.000402  3.851482  0.002
C  C29  1  0.39797947  0.14259649  0.13262363  1  0.153269  -0.004416  3.591688  -0.003  0.095205  -0.000498  3.858573  0.001  0.110524  -0.00157  3.869158  -0.001  0.163119  0.085317  0.000402  3.851505  0.002
C  C30  1  0.59722610  0.10642927  0.84636208  1  0.147845  0.002171  3.600029  0.003  0.09447  0.0017  3.86741  0.003  0.106729  0.001139  3.878211  0.002  0.156785  0.086787  0.00219  3.86007  0.003
C  C31  1  0.40277531  0.89356738  0.15363607  1  0.147852  0.002193  3.600014  0.003  0.094543  0.001699  3.867319  0.003  0.106801  0.00114  3.878115  0.002  0.156849  0.086843  0.00219  3.85999  0.003
C  C32  1  0.29169220  0.59324829  0.53978606  1  0.006018  -0.000458  3.612056  0.0  -0.060084  -0.0004  3.876116  0.0  -0.055334  -0.000336  3.886867  0.0  -0.052243  -0.062988  -0.000617  3.868441  -0.001
C  C33  1  0.70830184  0.40674834  0.46021449  1  0.005909  -0.000446  3.612089  0.0  -0.060088  -0.000399  3.876081  0.0  -0.055346  -0.000335  3.886837  0.0  -0.052242  -0.062991  -0.000617  3.868396  -0.001
C  C34  1  0.25262206  0.75245333  0.60024575  1  -0.143084  -1e-06  3.659204  0.0  -0.185984  8e-06  3.92118  0.0  -0.187675  7e-06  3.933521  0.0  -0.158312  -0.18474  -1.9e-05  3.912691  0.0
C  C35  1  0.74737955  0.24754882  0.39975554  1  -0.14308  -1.2e-05  3.6592  0.0  -0.186028  7e-06  3.921226  0.0  -0.187716  7e-06  3.933568  0.0  -0.158332  -0.184783  -1.9e-05  3.912733  0.0
C  C36  1  0.28991528  0.81297039  0.76000475  1  -0.026435  0.000829  3.585944  0.001  -0.081775  0.000539  3.825025  0.001  -0.079462  0.000401  3.836307  0.0  -0.062086  -0.083215  0.000691  3.817425  0.001
C  C37  1  0.71008983  0.18702896  0.23999624  1  -0.026265  0.000866  3.585768  0.001  -0.081721  0.000538  3.825026  0.001  -0.079414  0.000401  3.836316  0.0  -0.062044  -0.083153  0.000691  3.817409  0.001
N  N38  1  0.12637420  0.31749559  0.17494157  1  -0.230249  -0.005918  3.044081  -0.005  -0.213608  -0.004744  3.354331  -0.005  -0.225067  -0.003101  3.370216  -0.003  -0.217363  -0.205699  -0.006767  3.344616  -0.007
N  N39  1  0.87362431  0.68250520  0.82505920  1  -0.230315  -0.005913  3.044065  -0.005  -0.213673  -0.004742  3.35433  -0.005  -0.225133  -0.003103  3.370216  -0.003  -0.217403  -0.205764  -0.006766  3.344629  -0.007
N  N40  1  0.11292807  0.47175396  0.17024998  1  -0.217809  -0.063033  3.270199  -0.079  -0.174161  -0.045647  3.583282  -0.061  -0.201286  -0.037971  3.603613  -0.053  -0.255628  -0.157726  -0.049628  3.571316  -0.064
N  N41  1  0.88707101  0.52824547  0.82974955  1  -0.217755  -0.063043  3.270178  -0.079  -0.174125  -0.045649  3.58329  -0.061  -0.201249  -0.03797  3.603623  -0.053  -0.255595  -0.157693  -0.049625  3.571341  -0.064
N  N42  1  0.22027873  0.51293228  0.38808617  1  -0.076241  -0.001025  3.520047  -0.001  0.020982  -0.000858  3.737758  -0.001  0.005427  -0.000658  3.759153  -0.001  -0.231084  0.031188  -0.000989  3.723013  -0.001
N  N43  1  0.77971981  0.48706853  0.61191361  1  -0.076275  -0.001021  3.520014  -0.001  0.02094  -0.000857  3.737701  -0.001  0.005387  -0.000659  3.759097  -0.001  -0.231092  0.031146  -0.000989  3.722964  -0.001
N  N44  1  0.77276873  0.99836775  0.91218322  1  -0.221705  0.063711  3.281291  0.081  -0.184816  0.045777  3.60374  0.062  -0.210541  0.037899  3.623619  0.053  -0.256566  -0.168808  0.049879  3.59165  0.065
N  N45  1  0.22723329  0.00163023  0.08781724  1  -0.221684  0.063716  3.281193  0.081  -0.184768  0.045775  3.603631  0.062  -0.210496  0.0379  3.62351  0.053  -0.256514  -0.16876  0.04988  3.591535  0.065
N  N46  1  0.77081064  0.15527230  0.89920056  1  -0.252131  0.004656  3.051599  0.004  -0.235123  0.003771  3.365675  0.003  -0.248553  0.002423  3.383159  0.002  -0.223339  -0.226201  0.005404  3.354824  0.005
N  N47  1  0.22919518  0.84472847  0.10079978  1  -0.252156  0.004629  3.051734  0.004  -0.235178  0.003774  3.365795  0.003  -0.248606  0.002422  3.383276  0.002  -0.223414  -0.226269  0.005405  3.354972  0.005
N  N48  1  0.48792865  0.92070364  0.82399162  1  -0.075205  0.000965  3.528623  0.001  0.019211  0.000824  3.746881  0.001  0.003459  0.000622  3.769961  0.001  -0.231561  0.029565  0.000945  3.731069  0.001
N  N49  1  0.51207662  0.07929851  0.17600897  1  -0.075383  0.000944  3.528701  0.001  0.019053  0.000826  3.746985  0.001  0.0033  0.000622  3.770064  0.001  -0.231575  0.029408  0.000944  3.73117  0.001
O  O50  1  0.13648110  0.09485860  0.86043432  1  -0.894199  0.068084  1.766891  0.09  -0.903483  0.039291  2.11694  0.055  -0.957185  0.030671  2.104115  0.045  -0.596962  -0.866726  0.043562  2.12561  0.059
O  O51  1  0.86352613  0.90514765  0.13956926  1  -0.894195  0.068084  1.766852  0.09  -0.903486  0.039291  2.116901  0.055  -0.957181  0.030671  2.104068  0.045  -0.597005  -0.86675  0.043564  2.125605  0.059
O  O52  1  0.19538869  0.48060034  0.90495703  1  -0.875903  -0.067913  1.717659  -0.088  -0.88854  -0.039345  2.062827  -0.054  -0.943799  -0.030838  2.051697  -0.044  -0.589731  -0.850757  -0.043005  2.070267  -0.057
O  O53  1  0.80461366  0.51940326  0.09504262  1  -0.875958  -0.067904  1.717673  -0.088  -0.888628  -0.039342  2.062898  -0.054  -0.943884  -0.030836  2.051767  -0.044  -0.589767  -0.850845  -0.043004  2.070336  -0.057
O  O54  1  0.42456589  0.35739539  0.75529878  1  -0.821784  -0.005713  1.400989  -0.007  -0.816294  -0.002757  1.655797  -0.004  -0.849224  -0.001923  1.642076  -0.003  -0.594609  -0.794294  -0.003406  1.665033  -0.004
O  O55  1  0.57543311  0.64261117  0.24469625  1  -0.821739  -0.005713  1.400945  -0.007  -0.816287  -0.002755  1.655775  -0.004  -0.849211  -0.001922  1.642053  -0.003  -0.594617  -0.794295  -0.003405  1.665017  -0.004
O  O56  1  0.04458994  0.21481451  0.62892913  1  -0.819161  -0.005117  1.440392  -0.007  -0.81118  -0.001935  1.694846  -0.003  -0.844049  -0.001285  1.680811  -0.002  -0.586008  -0.788546  -0.003346  1.703999  -0.005
O  O57  1  0.95540525  0.78518204  0.37107349  1  -0.819185  -0.005117  1.440356  -0.007  -0.81119  -0.001936  1.694772  -0.003  -0.844066  -0.001285  1.680757  -0.002  -0.586003  -0.788547  -0.003347  1.703916  -0.005
