# generated using pymatgen
data_PrH7C8SO9
_symmetry_space_group_name_H-M   'P 1'
_cell_length_a   6.41879680
_cell_length_b   8.80474980
_cell_length_c   10.74763290
_cell_angle_alpha   91.00544583
_cell_angle_beta   99.62754748
_cell_angle_gamma   107.68584414
_symmetry_Int_Tables_number   1
_chemical_formula_structural   PrH7C8SO9
_chemical_formula_sum   'Pr2 H14 C16 S2 O18'
_cell_volume   569.04041430
_cell_formula_units_Z   2
loop_
 _symmetry_equiv_pos_site_id
 _symmetry_equiv_pos_as_xyz
  1  'x, y, z'
loop_
 _atom_site_type_symbol
 _atom_site_label
 _atom_site_symmetry_multiplicity
 _atom_site_fract_x
 _atom_site_fract_y
 _atom_site_fract_z
 _atom_site_occupancy
 _atom_site_hle17_bader_spin_density
 _atom_site_hle17_ddec_charge
 _atom_site_hle17_ddec_spin_density
 _atom_site_hle17_ddec_sum_bond_order
 _atom_site_hle17_magmom
 _atom_site_hse06_10hf_bader_spin_density
 _atom_site_hse06_10hf_ddec_charge
 _atom_site_hse06_10hf_ddec_spin_density
 _atom_site_hse06_10hf_ddec_sum_bond_order
 _atom_site_hse06_10hf_magmom
 _atom_site_hse06_bader_spin_density
 _atom_site_hse06_ddec_charge
 _atom_site_hse06_ddec_spin_density
 _atom_site_hse06_ddec_sum_bond_order
 _atom_site_hse06_magmom
 _atom_site_pbe_bader_spin_density
 _atom_site_pbe_cm5_charge
 _atom_site_pbe_ddec_charge
 _atom_site_pbe_ddec_spin_density
 _atom_site_pbe_ddec_sum_bond_order
 _atom_site_pbe_magmom
Pr  Pr0  1  0.14667931  0.23794313  0.61087360  1  0  2.348064  0  1.616978  0  0  2.237437  0  1.991008  0  0  2.271913  0  1.94988  0  0  1.52505  2.167337  0  2.103321  0
Pr  Pr1  1  0.85331998  0.76205680  0.38912622  1  0  2.348076  0  1.616991  0  0  2.237454  0  1.991022  0  0  2.271924  0  1.949898  0  0  1.525065  2.167376  0  2.103309  0
H  H2  1  0.61856061  0.41017804  0.14152855  1  0  0.109286  0  0.939294  0  0  0.117852  0  1.001311  0  0  0.121598  0  0.999339  0  0  0.115733  0.115238  0  1.002544  0
H  H3  1  0.38143924  0.58981951  0.85847130  1  0  0.10928  0  0.939257  0  0  0.117823  0  1.001307  0  0  0.121564  0  0.999341  0  0  0.115718  0.115204  0  1.00255  0
H  H4  1  0.65555928  0.35766766  0.91974726  1  0  0.113201  0  0.94919  0  0  0.12421  0  1.007905  0  0  0.127957  0  1.004898  0  0  0.114627  0.121247  0  1.010427  0
H  H5  1  0.34444108  0.64233108  0.08025265  1  0  0.113188  0  0.949192  0  0  0.124193  0  1.007912  0  0  0.127941  0  1.004904  0  0  0.114618  0.121231  0  1.010432  0
H  H6  1  0.17068391  0.15087999  0.05648084  1  0  0.125251  0  0.946929  0  0  0.13257  0  1.00853  0  0  0.136404  0  1.006084  0  0  0.115756  0.12952  0  1.010884  0
H  H7  1  0.82931748  0.84912115  0.94351921  1  0  0.125254  0  0.946912  0  0  0.132556  0  1.008532  0  0  0.136389  0  1.006089  0  0  0.115771  0.129508  0  1.010884  0
H  H8  1  0.53880903  0.08428364  0.67962955  1  0  0.457925  0  0.820795  0  0  0.429398  0  0.879073  0  0  0.439086  0  0.864767  0  0  0.317851  0.422377  0  0.8893  0
H  H9  1  0.46119184  0.91571630  0.32036951  1  0  0.45792  0  0.820797  0  0  0.429392  0  0.879078  0  0  0.439081  0  0.86477  0  0  0.317853  0.422374  0  0.8893  0
H  H10  1  0.31979097  0.94847830  0.61310871  1  0  0.446059  0  0.850177  0  0  0.414571  0  0.914903  0  0  0.424965  0  0.89964  0  0  0.305723  0.40726  0  0.925416  0
H  H11  1  0.68021200  0.05152284  0.38689058  1  0  0.446062  0  0.850178  0  0  0.414575  0  0.914901  0  0  0.424969  0  0.899638  0  0  0.305722  0.407264  0  0.925414  0
H  H12  1  0.65667394  0.35005340  0.71552677  1  0  0.445239  0  0.851692  0  0  0.416273  0  0.911505  0  0  0.426955  0  0.895959  0  0  0.303761  0.408564  0  0.922617  0
H  H13  1  0.34332745  0.64994773  0.28447235  1  0  0.445211  0  0.851719  0  0  0.416246  0  0.911531  0  0  0.426928  0  0.895985  0  0  0.303747  0.408538  0  0.922643  0
H  H14  1  0.59038117  0.49953656  0.65818485  1  0  0.445014  0  0.849403  0  0  0.416075  0  0.909085  0  0  0.426113  0  0.894433  0  0  0.304752  0.408928  0  0.919369  0
H  H15  1  0.40962287  0.50046338  0.34181359  1  0  0.444954  0  0.84949  0  0  0.41602  0  0.909162  0  0  0.426058  0  0.89451  0  0  0.304751  0.408878  0  0.919436  0
C  C16  1  0.01628500  0.22655037  0.19879659  1  0  -0.133348  0  3.691489  0  0  -0.115424  0  3.940027  0  0  -0.122478  0  3.961237  0  0  -0.006041  -0.111204  0  3.926674  0
C  C17  1  0.98371430  0.77344956  0.80120417  1  0  -0.133274  0  3.691466  0  0  -0.115328  0  3.939984  0  0  -0.122383  0  3.961195  0  0  -0.006003  -0.111109  0  3.926632  0
C  C18  1  0.86415683  0.30440367  0.22454931  1  0  -0.036653  0  3.673171  0  0  -0.024016  0  3.904216  0  0  -0.025411  0  3.922891  0  0  0.009812  -0.023025  0  3.892427  0
C  C19  1  0.13584353  0.69559508  0.77545060  1  0  -0.036707  0  3.673087  0  0  -0.024077  0  3.904149  0  0  -0.025472  0  3.922822  0  0  0.009783  -0.023084  0  3.892358  0
C  C20  1  0.73567542  0.34957570  0.12182755  1  0  -0.050057  0  3.681593  0  0  -0.0748  0  3.936402  0  0  -0.077686  0  3.955205  0  0  -0.066765  -0.073221  0  3.923952  0
C  C21  1  0.26432387  0.65042423  0.87817414  1  0  -0.050004  0  3.681509  0  0  -0.074726  0  3.936321  0  0  -0.077607  0  3.955128  0  0  -0.066724  -0.073147  0  3.923864  0
C  C22  1  0.75728746  0.32054038  0.99751155  1  0  -0.03454  0  3.65816  0  0  -0.060297  0  3.902318  0  0  -0.057587  0  3.91996  0  0  -0.062482  -0.061594  0  3.890838  0
C  C23  1  0.24271341  0.67945956  0.00248937  1  0  -0.034546  0  3.658236  0  0  -0.060304  0  3.902387  0  0  -0.057593  0  3.920028  0  0  -0.06249  -0.0616  0  3.890903  0
C  C24  1  0.91621974  0.24974445  0.97388691  1  0  -0.050002  0  3.726789  0  0  -0.024632  0  3.95919  0  0  -0.033687  0  3.982389  0  0  -0.008218  -0.01941  0  3.944484  0
C  C25  1  0.08378323  0.75025669  0.02611237  1  0  -0.049971  0  3.726805  0  0  -0.024583  0  3.959176  0  0  -0.033638  0  3.982376  0  0  -0.008177  -0.019358  0  3.944467  0
C  C26  1  0.04401485  0.20241340  0.07510546  1  0  -0.046371  0  3.695814  0  0  -0.083309  0  3.943254  0  0  -0.080903  0  3.962279  0  0  -0.067048  -0.085086  0  3.931748  0
C  C27  1  0.95598654  0.79758773  0.92489460  1  0  -0.046409  0  3.695847  0  0  -0.083351  0  3.943308  0  0  -0.080945  0  3.962335  0  0  -0.067099  -0.085129  0  3.931806  0
C  C28  1  0.83934662  0.34860297  0.35628614  1  0  0.738775  0  3.839767  0  0  0.683182  0  4.145011  0  0  0.718623  0  4.131151  0  0  0.247247  0.658953  0  4.150957  0
C  C29  1  0.16065007  0.65139457  0.64371618  1  0  0.738706  0  3.839719  0  0  0.683104  0  4.144979  0  0  0.718543  0  4.131128  0  0  0.247202  0.658876  0  4.150921  0
C  C30  1  0.97103541  0.23299687  0.84574445  1  0  0.649501  0  3.914577  0  0  0.597337  0  4.219808  0  0  0.631106  0  4.211939  0  0  0.205386  0.575336  0  4.219648  0
C  C31  1  0.02896756  0.76700426  0.15425576  1  0  0.649503  0  3.914556  0  0  0.59733  0  4.219787  0  0  0.6311  0  4.211919  0  0  0.20541  0.57533  0  4.219624  0
S  S32  1  0.20971245  0.17637468  0.31794664  1  0  1.340724  0  5.566601  0  0  1.238743  0  6.086848  0  0  1.286894  0  6.062797  0  0  0.538462  1.205772  0  6.096835  0
S  S33  1  0.79028946  0.82362765  0.68205442  1  0  1.340625  0  5.566823  0  0  1.238623  0  6.087088  0  0  1.286775  0  6.063038  0  0  0.53847  1.205664  0  6.097068  0
O  O34  1  0.08934167  0.04693910  0.39165149  1  0  -0.831277  0  2.152142  0  0  -0.781988  0  2.439343  0  0  -0.801515  0  2.421917  0  0  -0.423289  -0.758719  0  2.449427  0
O  O35  1  0.91065813  0.95306203  0.60834841  1  0  -0.831232  0  2.152246  0  0  -0.781948  0  2.43947  0  0  -0.801464  0  2.422017  0  0  -0.423257  -0.758677  0  2.449552  0
O  O36  1  0.30901803  0.32109084  0.40794271  1  0  -0.741862  0  2.03267  0  0  -0.685855  0  2.285922  0  0  -0.70546  0  2.269275  0  0  -0.363563  -0.667614  0  2.296986  0
O  O37  1  0.69098020  0.67891028  0.59205610  1  0  -0.741837  0  2.032629  0  0  -0.685843  0  2.285912  0  0  -0.705447  0  2.269267  0  0  -0.363599  -0.667601  0  2.296975  0
O  O38  1  0.36468694  0.13189401  0.25327086  1  0  -0.605675  0  1.977721  0  0  -0.546437  0  2.212396  0  0  -0.569406  0  2.2029  0  0  -0.297907  -0.531115  0  2.219137  0
O  O39  1  0.63531445  0.86810712  0.74672919  1  0  -0.605671  0  1.977831  0  0  -0.546396  0  2.212481  0  0  -0.56936  0  2.202978  0  0  -0.297918  -0.531082  0  2.219232  0
O  O40  1  0.83837189  0.24800624  0.44071340  1  0  -0.737176  0  2.044916  0  0  -0.686488  0  2.292686  0  0  -0.70885  0  2.277286  0  0  -0.377933  -0.665408  0  2.303915  0
O  O41  1  0.16162321  0.75199130  0.55928691  1  0  -0.737154  0  2.044877  0  0  -0.686467  0  2.292648  0  0  -0.708829  0  2.277251  0  0  -0.377931  -0.665392  0  2.303881  0
O  O42  1  0.82048943  0.48482787  0.37560188  1  0  -0.706795  0  2.050047  0  0  -0.66425  0  2.318872  0  0  -0.687678  0  2.305829  0  0  -0.392733  -0.641276  0  2.32871  0
O  O43  1  0.17950516  0.51516847  0.62439929  1  0  -0.706729  0  2.049953  0  0  -0.664189  0  2.318799  0  0  -0.687616  0  2.305759  0  0  -0.392691  -0.641205  0  2.32863  0
O  O44  1  0.15186168  0.20429046  0.83895906  1  0  -0.685461  0  1.948627  0  0  -0.643188  0  2.186407  0  0  -0.666257  0  2.177447  0  0  -0.384563  -0.622138  0  2.19209  0
O  O45  1  0.84814129  0.79571068  0.16104115  1  0  -0.685489  0  1.948592  0  0  -0.643226  0  2.186392  0  0  -0.666289  0  2.177421  0  0  -0.384584  -0.622177  0  2.192069  0
O  O46  1  0.84376271  0.25069210  0.74442361  1  0  -0.722781  0  2.030129  0  0  -0.668003  0  2.266502  0  0  -0.691458  0  2.254147  0  0  -0.349995  -0.647268  0  2.27419  0
O  O47  1  0.15623975  0.74930784  0.25557654  1  0  -0.722775  0  2.030126  0  0  -0.667991  0  2.266501  0  0  -0.691443  0  2.254145  0  0  -0.350021  -0.647258  0  2.274193  0
O  O48  1  0.38629031  0.06527784  0.63498251  1  0  -0.9197  0  1.853801  0  0  -0.875445  0  2.044829  0  0  -0.891741  0  2.012  0  0  -0.652369  -0.858116  0  2.07051  0
O  O49  1  0.61371214  0.93472210  0.36501671  1  0  -0.919701  0  1.853797  0  0  -0.875441  0  2.044825  0  0  -0.891737  0  2.011995  0  0  -0.652373  -0.858121  0  2.070504  0
O  O50  1  0.53457655  0.39933137  0.69970456  1  0  -0.917352  0  1.821442  0  0  -0.873525  0  2.012122  0  0  -0.891516  0  1.980139  0  0  -0.651258  -0.855362  0  2.037314  0
O  O51  1  0.46542800  0.60066977  0.30029395  1  0  -0.917267  0  1.821527  0  0  -0.873438  0  2.012192  0  0  -0.89143  0  1.980219  0  0  -0.65124  -0.855283  0  2.037379  0
