# generated using pymatgen
data_Zn4H5C24S4Cl3O13
_symmetry_space_group_name_H-M   'P 1'
_cell_length_a   19.66575437
_cell_length_b   19.73279982
_cell_length_c   33.36536515
_cell_angle_alpha   78.95739420
_cell_angle_beta   79.16043864
_cell_angle_gamma   63.94726666
_symmetry_Int_Tables_number   1
_chemical_formula_structural   Zn4H5C24S4Cl3O13
_chemical_formula_sum   'Zn16 H20 C96 S16 Cl12 O52'
_cell_volume   11337.19552929
_cell_formula_units_Z   4
loop_
 _symmetry_equiv_pos_site_id
 _symmetry_equiv_pos_as_xyz
  1  'x, y, z'
loop_
 _atom_site_type_symbol
 _atom_site_label
 _atom_site_symmetry_multiplicity
 _atom_site_fract_x
 _atom_site_fract_y
 _atom_site_fract_z
 _atom_site_occupancy
 _atom_site_pbe_bader_charge
 _atom_site_pbe_bader_spin_density
 _atom_site_pbe_cm5_charge
 _atom_site_pbe_ddec_charge
 _atom_site_pbe_ddec_spin_density
 _atom_site_pbe_ddec_sum_bond_order
 _atom_site_pbe_magmom
Zn  Zn0  1  0.05520813  0.39982196  0.47787116  1  1.316175  0  0.671435  0.974776  0  2.322701  0
Zn  Zn1  1  0.98607030  0.48393422  0.56064878  1  1.304248  0  0.674128  0.97153  0  2.362112  0
Zn  Zn2  1  0.05799245  0.56110932  0.48205354  1  1.320409  0  0.673621  0.970568  0  2.380683  0
Zn  Zn3  1  0.90054195  0.55451104  0.48009688  1  1.317622  0  0.673682  0.970183  0  2.380271  0
Zn  Zn4  1  0.69430867  0.34900919  0.27145013  1  1.316631  0  0.672508  0.970112  0  2.357001  0
Zn  Zn5  1  0.68860577  0.18974506  0.26601007  1  1.310328  0  0.672156  0.970224  0  2.347008  0
Zn  Zn6  1  0.76984424  0.26568511  0.19037891  1  1.320018  0  0.674239  0.971715  0  2.375813  0
Zn  Zn7  1  0.84779469  0.19470901  0.27294174  1  1.314581  0  0.671935  0.96274  0  2.378586  0
Zn  Zn8  1  0.26681434  0.76664553  0.68989006  1  1.314453  0  0.671099  0.959788  0  2.380312  0
Zn  Zn9  1  0.34902997  0.69728750  0.77230825  1  1.321014  0  0.673802  0.972844  0  2.350902  0
Zn  Zn10  1  0.19222106  0.84782350  0.77145051  1  1.319872  0  0.673285  0.971901  0  2.37015  0
Zn  Zn11  1  0.19150764  0.68727518  0.76691120  1  1.313854  0  0.672908  0.969812  0  2.358804  0
Zn  Zn12  1  0.56031380  0.05979719  0.98333413  1  1.31999  0  0.67296  0.965787  0  2.36921  0
Zn  Zn13  1  0.40146614  0.05480333  0.97818502  1  1.314509  0  0.671929  0.96129  0  2.374689  0
Zn  Zn14  1  0.55517866  0.90107178  0.97839095  1  1.315212  0  0.672552  0.967832  0  2.36577  0
Zn  Zn15  1  0.48376206  0.98263890  0.06059326  1  1.310206  0  0.67206  0.965728  0  2.364286  0
H  H16  1  0.95526108  0.24907640  0.35194167  1  0.144712  0  0.111232  0.118703  0  0.989519  0
H  H17  1  0.74729301  0.45309168  0.34924848  1  0.121406  0  0.1116  0.131375  0  0.992608  0
H  H18  1  0.99896286  0.30111817  0.39996876  1  0.130749  0  0.112447  0.120352  0  0.990044  0
H  H19  1  0.09685422  0.59651769  0.69948767  1  0.122438  0  0.111792  0.119417  0  0.98797  0
H  H20  1  0.20276958  0.70159171  0.59843474  1  0.117022  0  0.110747  0.130493  0  0.994076  0
H  H21  1  0.05081416  0.55145443  0.64914033  1  0.112308  0  0.112644  0.120815  0  0.990042  0
H  H22  1  0.46287555  0.23970014  0.34100210  1  0.13696  0  0.121926  0.147571  0  0.968435  0
H  H23  1  0.47948902  0.70263970  0.60109003  1  0.116392  0  0.122449  0.148046  0  0.967862  0
H  H24  1  0.20336559  0.97903615  0.60099930  1  0.114623  0  0.122266  0.14796  0  0.967548  0
H  H25  1  0.94813205  0.97020457  0.34817611  1  0.111486  0  0.122246  0.147899  0  0.968661  0
H  H26  1  0.55031722  0.05022052  0.15394883  1  0.074073  0  0.111779  0.119028  0  0.989511  0
H  H27  1  0.65082258  0.15158826  0.04832550  1  0.140707  0  0.111648  0.131189  0  0.993412  0
H  H28  1  0.60072859  0.10025135  0.19957902  1  0.079601  0  0.112326  0.120151  0  0.990238  0
H  H29  1  0.54757682  0.76999578  0.14892892  1  0.101196  0  0.122601  0.148656  0  0.967868  0
H  H30  1  0.16234335  0.14154452  0.04033594  1  0.116516  0  0.122321  0.147796  0  0.968378  0
H  H31  1  0.50120279  0.79489025  0.89819362  1  0.096588  0  0.112597  0.12057  0  0.986366  0
H  H32  1  0.29736247  0.00304815  0.90002437  1  0.135388  0  0.110741  0.130051  0  0.995523  0
H  H33  1  0.44848683  0.75193905  0.85017869  1  0.139357  0  0.113041  0.121716  0  0.988907  0
H  H34  1  0.30042341  0.28011579  0.90193910  1  0.12358  0  0.122064  0.147217  0  0.968394  0
H  H35  1  0.78730485  0.01011569  0.90870495  1  0.143137  0  0.122813  0.148676  0  0.967218  0
C  C36  1  0.06192257  0.31626337  0.56179834  1  1.60561  0  0.215924  0.622847  0  4.21203  0
C  C37  1  0.06986864  0.57075538  0.56850891  1  1.566438  0  0.227544  0.613864  0  4.160029  0
C  C38  1  0.18315757  0.43927295  0.43837506  1  1.604311  0  0.215107  0.622348  0  4.209908  0
C  C39  1  0.93650976  0.68387279  0.43853866  1  1.59734  0  0.215035  0.620986  0  4.214425  0
C  C40  1  0.93001051  0.43079417  0.43100243  1  1.574501  0  0.227187  0.61464  0  4.159001  0
C  C41  1  0.81726827  0.56113995  0.56281413  1  1.582124  0  0.216382  0.621979  0  4.210957  0
C  C42  1  0.56554141  0.31083439  0.31118808  1  1.558664  0  0.218643  0.612423  0  4.215902  0
C  C43  1  0.68154184  0.18062352  0.18041778  1  1.565488  0  0.228023  0.616098  0  4.15929  0
C  C44  1  0.68991449  0.43312004  0.18834755  1  1.627202  0  0.215113  0.621639  0  4.211633  0
C  C45  1  0.93564035  0.18779709  0.18989063  1  1.597872  0  0.21536  0.620959  0  4.215202  0
C  C46  1  0.82003695  0.31864719  0.31937286  1  1.569192  0  0.23117  0.606911  0  4.159286  0
C  C47  1  0.81094759  0.06599746  0.31153404  1  1.614193  0  0.218881  0.613701  0  4.216154  0
C  C48  1  0.43343746  0.68973833  0.68819955  1  1.546733  0  0.218  0.61084  0  4.216629  0
C  C49  1  0.31791075  0.82069307  0.81932603  1  1.571789  0  0.228338  0.615967  0  4.159269  0
C  C50  1  0.18858730  0.93303143  0.68798688  1  1.573719  0  0.218082  0.610013  0  4.217709  0
C  C51  1  0.06544468  0.80921424  0.81113167  1  1.561678  0  0.215644  0.621596  0  4.20945  0
C  C52  1  0.18114791  0.67975890  0.68096113  1  1.557382  0  0.231213  0.606904  0  4.160836  0
C  C53  1  0.31331945  0.56606620  0.81167594  1  1.582815  0  0.216366  0.622964  0  4.210253  0
C  C54  1  0.43782462  0.18368233  0.93860741  1  1.578172  0  0.218632  0.610576  0  4.216436  0
C  C55  1  0.43160702  0.92971246  0.93066316  1  1.570659  0  0.230993  0.606704  0  4.160659  0
C  C56  1  0.68400593  0.93954018  0.93885286  1  1.589034  0  0.218599  0.611135  0  4.218399  0
C  C57  1  0.56126831  0.81595931  0.06194625  1  1.559887  0  0.219111  0.611786  0  4.217159  0
C  C58  1  0.56889226  0.06869507  0.06995184  1  1.557505  0  0.230661  0.603838  0  4.160614  0
C  C59  1  0.31578034  0.06130491  0.06090586  1  1.549772  0  0.219327  0.613395  0  4.214137  0
C  C60  1  0.89862992  0.40557920  0.40188205  1  0.019917  0  -0.01346  -0.091292  0  3.904705  0
C  C61  1  0.84834222  0.34812492  0.34777784  1  -0.057642  0  -0.009977  -0.009732  0  3.972006  0
C  C62  1  0.82689868  0.44875231  0.38710145  1  0.03624  0  0.02697  0.146115  0  3.992358  0
C  C63  1  0.91974354  0.30478104  0.36193319  1  -0.038065  0  -0.081808  -0.100004  0  3.974953  0
C  C64  1  0.80261489  0.41965413  0.36037155  1  0.047632  0  -0.08501  -0.161333  0  3.944272  0
C  C65  1  0.94377961  0.33371645  0.38851869  1  -0.033374  0  -0.076822  -0.075876  0  3.969448  0
C  C66  1  0.10033671  0.60057227  0.59573875  1  0.034074  0  -0.013087  -0.089794  0  3.904872  0
C  C67  1  0.15267460  0.65184761  0.65185800  1  -0.034527  0  -0.010121  -0.009121  0  3.972151  0
C  C68  1  0.14384402  0.64345605  0.58150553  1  0.023173  0  0.026327  0.145171  0  3.995544  0
C  C69  1  0.10970902  0.60938192  0.66648024  1  -0.049999  0  -0.081264  -0.100528  0  3.973552  0
C  C70  1  0.16937972  0.66860915  0.60958403  1  0.086725  0  -0.08564  -0.162784  0  3.945462  0
C  C71  1  0.08430069  0.58452112  0.63855458  1  -0.053017  0  -0.075741  -0.073698  0  3.963892  0
C  C72  1  0.30466803  0.45421152  0.40095267  1  0.13097  0  0.009719  0.101592  0  4.085072  0
C  C73  1  0.44594049  0.29629444  0.34896088  1  0.035832  0  -0.087162  -0.13192  0  3.956997  0
C  C74  1  0.25830354  0.41534792  0.41383891  1  -0.133478  0  -0.029847  -0.186986  0  3.940758  0
C  C75  1  0.49089891  0.33606982  0.33638910  1  -0.175667  0  -0.02333  -0.11655  0  3.973047  0
C  C76  1  0.37789689  0.33922547  0.37260987  1  -0.156934  0  -0.020871  0.004299  0  4.074014  0
C  C77  1  0.37284737  0.41076776  0.37742012  1  -0.126907  0  -0.029128  -0.086001  0  4.0883  0
C  C78  1  0.72585067  0.57559536  0.63077781  1  0.184999  0  0.009331  0.101453  0  4.089054  0
C  C79  1  0.52410578  0.67361288  0.62122381  1  0.004853  0  -0.086412  -0.130079  0  3.954446  0
C  C80  1  0.74301454  0.58501738  0.58819504  1  -0.173641  0  -0.029519  -0.186183  0  3.943211  0
C  C81  1  0.50863687  0.66382897  0.66363845  1  -0.074305  0  -0.02343  -0.11707  0  3.975925  0
C  C82  1  0.60348182  0.64142256  0.60908122  1  -0.177882  0  -0.02064  0.002359  0  4.072839  0
C  C83  1  0.64629358  0.60783111  0.64269648  1  -0.115452  0  -0.029061  -0.08504  0  4.089499  0
C  C84  1  0.07659463  0.22484719  0.62987630  1  0.069322  0  0.009684  0.102182  0  4.086187  0
C  C85  1  0.17435285  0.02357865  0.62095799  1  0.030592  0  -0.087313  -0.13145  0  3.957967  0
C  C86  1  0.08614838  0.24197580  0.58724586  1  -0.064803  0  -0.03008  -0.187712  0  3.94294  0
C  C87  1  0.16392995  0.00815965  0.66335194  1  -0.10122  0  -0.0235  -0.11739  0  3.977848  0
C  C88  1  0.14248098  0.10275027  0.60859790  1  -0.211885  0  -0.020625  0.00374  0  4.074248  0
C  C89  1  0.10871687  0.14547018  0.64202855  1  -0.073717  0  -0.029046  -0.086157  0  4.090643  0
C  C90  1  0.84179010  0.80110564  0.39689694  1  0.098624  0  0.009608  0.102264  0  4.08988  0
C  C91  1  0.90375827  0.94982135  0.35261874  1  0.074863  0  -0.086622  -0.130274  0  3.955866  0
C  C92  1  0.91040428  0.75843928  0.41351529  1  -0.078344  0  -0.029486  -0.187222  0  3.945291  0
C  C93  1  0.83518712  0.99109561  0.33636540  1  -0.224996  0  -0.023418  -0.117413  0  3.977099  0
C  C94  1  0.90643430  0.88026774  0.37469358  1  -0.185523  0  -0.020876  0.003289  0  4.075027  0
C  C95  1  0.83957310  0.87055723  0.37470108  1  -0.09845  0  -0.029305  -0.085927  0  4.090075  0
C  C96  1  0.65393385  0.15375886  0.15022843  1  0.001458  0  -0.013683  -0.092692  0  3.905424  0
C  C97  1  0.59778035  0.09784926  0.09825386  1  0.008771  0  -0.009576  -0.008367  0  3.969051  0
C  C98  1  0.66785684  0.16826958  0.10694904  1  0.060382  0  0.026454  0.146339  0  3.992898  0
C  C99  1  0.58326379  0.08317561  0.14105622  1  -0.045932  0  -0.082491  -0.101472  0  3.97428  0
C  C100  1  0.63981958  0.14023262  0.08155857  1  0.018988  0  -0.084918  -0.161351  0  3.943462  0
C  C101  1  0.61121080  0.11098214  0.16624557  1  0.035397  0  -0.075285  -0.072818  0  3.966436  0
C  C102  1  0.67406067  0.52409837  0.12017514  1  0.165863  0  0.010122  0.102377  0  4.08697  0
C  C103  1  0.57635345  0.72542319  0.12897834  1  0.043434  0  -0.086849  -0.131608  0  3.95796  0
C  C104  1  0.66500157  0.50722884  0.16282842  1  -0.165408  0  -0.030193  -0.188686  0  3.944011  0
C  C105  1  0.58623188  0.74082717  0.08656477  1  -0.153432  0  -0.023289  -0.116926  0  3.977127  0
C  C106  1  0.60831008  0.64626745  0.14136856  1  -0.139305  0  -0.019659  0.004031  0  4.0741  0
C  C107  1  0.64170287  0.60344862  0.10794766  1  -0.110786  0  -0.028609  -0.085101  0  4.08826  0
C  C108  1  0.08319869  0.12319651  0.17833545  1  0.166803  0  0.009535  0.101964  0  4.08899  0
C  C109  1  0.17013579  0.12487242  0.07273063  1  0.047846  0  -0.086432  -0.130091  0  3.955227  0
C  C110  1  0.01084981  0.16229823  0.16550011  1  -0.175273  0  -0.029743  -0.187628  0  3.946152  0
C  C111  1  0.24139253  0.08602870  0.08625436  1  -0.156794  0  -0.023049  -0.117037  0  3.975032  0
C  C112  1  0.11214641  0.13860445  0.10630725  1  -0.147613  0  -0.019461  0.004429  0  4.071887  0
C  C113  1  0.14098904  0.10970266  0.14457356  1  -0.166816  0  -0.029261  -0.085703  0  4.089945  0
C  C114  1  0.34386963  0.85221917  0.84798683  1  -0.017685  0  -0.013614  -0.091832  0  3.904839  0
C  C115  1  0.40216840  0.90180222  0.90203686  1  -0.047521  0  -0.009744  -0.009857  0  3.972493  0
C  C116  1  0.30112067  0.92394266  0.86235760  1  0.044627  0  0.02668  0.145635  0  3.995524  0
C  C117  1  0.44533585  0.83060519  0.88808207  1  0.012145  0  -0.080392  -0.099311  0  3.970294  0
C  C118  1  0.33057064  0.94783529  0.88910916  1  0.041112  0  -0.085297  -0.161538  0  3.947275  0
C  C119  1  0.41600416  0.80694923  0.86149373  1  -0.034298  0  -0.075935  -0.074386  0  3.962836  0
C  C120  1  0.40798859  0.44821302  0.85311003  1  0.146737  0  0.009526  0.101094  0  4.089451  0
C  C121  1  0.34504192  0.30016695  0.89749106  1  0.111416  0  -0.086419  -0.129481  0  3.955203  0
C  C122  1  0.33944762  0.49119046  0.83647181  1  -0.13468  0  -0.029533  -0.186533  0  3.943814  0
C  C123  1  0.41360322  0.25855711  0.91372952  1  -0.213931  0  -0.023371  -0.117399  0  3.976744  0
C  C124  1  0.34278689  0.36951898  0.87528627  1  -0.156201  0  -0.020267  0.00291  0  4.072889  0
C  C125  1  0.40988498  0.37881316  0.87526216  1  -0.144132  0  -0.02833  -0.084211  0  4.086879  0
C  C126  1  0.94424321  0.79454589  0.84939517  1  0.226677  0  0.009325  0.101097  0  4.089968  0
C  C127  1  0.80391254  0.95340620  0.90100663  1  0.042058  0  -0.08633  -0.130639  0  3.954484  0
C  C128  1  0.99075291  0.83310279  0.83608653  1  -0.142836  0  -0.029593  -0.186893  0  3.944077  0
C  C129  1  0.75870066  0.91395468  0.91382334  1  -0.1924  0  -0.02315  -0.117135  0  3.976382  0
C  C130  1  0.87176967  0.90996447  0.87741289  1  -0.151013  0  -0.020157  0.004388  0  4.069375  0
C  C131  1  0.87636867  0.83840890  0.87295148  1  -0.179195  0  -0.029024  -0.086398  0  4.090587  0
S  S132  1  0.29857683  0.32585406  0.39717455  1  0.286996  0  0.086663  0.136787  0  2.736039  0
S  S133  1  0.45132182  0.42538596  0.35307177  1  0.311043  0  0.089807  0.143529  0  2.765409  0
S  S134  1  0.66161198  0.63302151  0.56295639  1  0.283155  0  0.090075  0.141941  0  2.73741  0
S  S135  1  0.58959188  0.61569465  0.68904602  1  0.284687  0  0.088629  0.141963  0  2.771166  0
S  S136  1  0.13429589  0.16074714  0.56233656  1  0.266728  0  0.086566  0.136995  0  2.737407  0
S  S137  1  0.11585624  0.08890112  0.68850238  1  0.283408  0  0.090743  0.145148  0  2.769107  0
S  S138  1  0.97177315  0.80357234  0.40192385  1  0.280081  0  0.090327  0.142105  0  2.737915  0
S  S139  1  0.77367482  0.94631009  0.34762587  1  0.300184  0  0.087275  0.140296  0  2.769609  0
S  S140  1  0.61685076  0.58849756  0.18768872  1  0.289651  0  0.090068  0.142157  0  2.735133  0
S  S141  1  0.63399687  0.65999092  0.06144022  1  0.288194  0  0.089786  0.143652  0  2.765435  0
S  S142  1  0.01394889  0.18226599  0.11217720  1  0.306875  0  0.090792  0.142722  0  2.737297  0
S  S143  1  0.23883108  0.06590164  0.13947799  1  0.306569  0  0.088614  0.141814  0  2.769601  0
S  S144  1  0.27777110  0.44638115  0.84797239  1  0.295325  0  0.088729  0.139966  0  2.738742  0
S  S145  1  0.47559210  0.30284301  0.90233638  1  0.290035  0  0.089527  0.143161  0  2.767058  0
S  S146  1  0.95116897  0.92279009  0.85247207  1  0.303863  0  0.091128  0.142906  0  2.735907  0
S  S147  1  0.79777440  0.82435389  0.89753430  1  0.291017  0  0.089984  0.144019  0  2.76813  0
Cl  Cl148  1  0.76408005  0.53820745  0.39961407  1  -0.182439  0  -0.01263  -0.073764  0  1.486497  0
Cl  Cl149  1  0.16952208  0.66811540  0.53023969  1  -0.173542  0  -0.013728  -0.074942  0  1.484363  0
Cl  Cl150  1  0.71833791  0.22010487  0.08170261  1  -0.179339  0  -0.011987  -0.073258  0  1.485032  0
Cl  Cl151  1  0.21198828  0.98734616  0.84904931  1  -0.170942  0  -0.012507  -0.07347  0  1.47948  0
Cl  Cl152  1  0.28585430  0.54281656  0.41100059  1  -0.156168  0  0.00846  -0.028517  0  1.499986  0
Cl  Cl153  1  0.78952799  0.53128020  0.66602690  1  -0.162336  0  0.006543  -0.030727  0  1.494425  0
Cl  Cl154  1  0.03218558  0.28813840  0.66503412  1  -0.163194  0  0.007008  -0.029986  0  1.495402  0
Cl  Cl155  1  0.76740550  0.77649431  0.40128937  1  -0.156757  0  0.008204  -0.029171  0  1.500286  0
Cl  Cl156  1  0.71766586  0.46055124  0.08514066  1  -0.164982  0  0.00931  -0.027687  0  1.499821  0
Cl  Cl157  1  0.10403241  0.09339534  0.22785239  1  -0.158583  0  0.006339  -0.030706  0  1.491574  0
Cl  Cl158  1  0.48279525  0.47224305  0.84856085  1  -0.154115  0  0.008741  -0.027859  0  1.491724  0
Cl  Cl159  1  0.96279495  0.70577304  0.83975044  1  -0.156592  0  0.007482  -0.029416  0  1.490836  0
O  O160  1  0.00084153  0.49805753  0.50016790  1  -1.215403  0  -0.56995  -1.030428  0  2.518604  0
O  O161  1  0.07712844  0.31459948  0.52279606  1  -1.172831  0  -0.320925  -0.549243  0  2.317345  0
O  O162  1  0.03392949  0.53064917  0.58658446  1  -1.168302  0  -0.313402  -0.542497  0  2.327971  0
O  O163  1  0.15429621  0.50535524  0.44968919  1  -1.164611  0  -0.314713  -0.538263  0  2.377175  0
O  O164  1  0.02841769  0.37502466  0.58056356  1  -1.176146  0  -0.314938  -0.539068  0  2.372389  0
O  O165  1  0.15358751  0.39108489  0.44600589  1  -1.158295  0  -0.320568  -0.549339  0  2.316067  0
O  O166  1  0.08150406  0.58737947  0.52989628  1  -1.150987  0  -0.31279  -0.545127  0  2.428783  0
O  O167  1  0.00379885  0.65791780  0.44899672  1  -1.168143  0  -0.31849  -0.542479  0  2.328384  0
O  O168  1  0.88822391  0.49454050  0.44400343  1  -1.174226  0  -0.313085  -0.543875  0  2.43293  0
O  O169  1  0.89088085  0.65175962  0.44768281  1  -1.174992  0  -0.31426  -0.539851  0  2.372985  0
O  O170  1  0.99667408  0.38567913  0.44062833  1  -1.159898  0  -0.31403  -0.545808  0  2.318032  0
O  O171  1  0.87686403  0.52734130  0.58121090  1  -1.169034  0  -0.315546  -0.542888  0  2.368401  0
O  O172  1  0.81471742  0.57714977  0.52384648  1  -1.139732  0  -0.319349  -0.542514  0  2.326901  0
O  O173  1  0.74946746  0.24966238  0.25064506  1  -1.222098  0  -0.570073  -1.030512  0  2.522267  0
O  O174  1  0.59674193  0.35757509  0.30343635  1  -1.179443  0  -0.319336  -0.545944  0  2.332256  0
O  O175  1  0.66208854  0.16419809  0.21856448  1  -1.167561  0  -0.314264  -0.545478  0  2.321186  0
O  O176  1  0.72632656  0.37417836  0.16986675  1  -1.17464  0  -0.314434  -0.539191  0  2.373997  0
O  O177  1  0.59218811  0.24516209  0.29937415  1  -1.166963  0  -0.315911  -0.540079  0  2.310844  0
O  O178  1  0.67251737  0.43490098  0.22728903  1  -1.172363  0  -0.319946  -0.546521  0  2.322473  0
O  O179  1  0.72195670  0.21725540  0.16611318  1  -1.159274  0  -0.312314  -0.544594  0  2.432871  0
O  O180  1  0.87843415  0.22302838  0.16922109  1  -1.166565  0  -0.318519  -0.542429  0  2.327372  0
O  O181  1  0.86372933  0.25264036  0.30914712  1  -1.167256  0  -0.311641  -0.540889  0  2.334896  0
O  O182  1  0.93347393  0.17310037  0.22886145  1  -1.155914  0  -0.315536  -0.541539  0  2.372709  0
O  O183  1  0.75463236  0.36190537  0.30781824  1  -1.179056  0  -0.312384  -0.542253  0  2.336695  0
O  O184  1  0.74504672  0.09321493  0.29926977  1  -1.173477  0  -0.320053  -0.550219  0  2.332679  0
O  O185  1  0.85778834  0.09685204  0.30451998  1  -1.164304  0  -0.316132  -0.536928  0  2.315101  0
O  O186  1  0.25019800  0.74918754  0.75015033  1  -1.228411  0  -0.570169  -1.030437  0  2.522135  0
O  O187  1  0.37536735  0.72424157  0.66842978  1  -1.159608  0  -0.315881  -0.537078  0  2.312902  0
O  O188  1  0.36465303  0.75559218  0.80856882  1  -1.167051  0  -0.313678  -0.543731  0  2.323269  0
O  O189  1  0.17194061  0.93282061  0.72697789  1  -1.169  0  -0.317992  -0.543902  0  2.337463  0
O  O190  1  0.43335237  0.67529837  0.72728392  1  -1.175073  0  -0.318899  -0.546544  0  2.332907  0
O  O191  1  0.22406066  0.87517058  0.66842565  1  -1.162601  0  -0.316027  -0.537506  0  2.312603  0
O  O192  1  0.25209194  0.86026246  0.80795744  1  -1.170054  0  -0.313003  -0.546293  0  2.430267  0
O  O193  1  0.09444677  0.85790487  0.80335477  1  -1.162414  0  -0.319415  -0.543839  0  2.3262  0
O  O194  1  0.16541610  0.66209248  0.71928627  1  -1.173628  0  -0.310848  -0.541157  0  2.330914  0
O  O195  1  0.09466964  0.74335022  0.79950990  1  -1.169557  0  -0.315121  -0.541985  0  2.36771  0
O  O196  1  0.21877451  0.71895544  0.66490154  1  -1.160029  0  -0.313136  -0.541999  0  2.343348  0
O  O197  1  0.35779859  0.59946198  0.80398414  1  -1.170434  0  -0.315303  -0.542518  0  2.36761  0
O  O198  1  0.24699004  0.59090973  0.80008057  1  -1.16491  0  -0.320578  -0.54588  0  2.325394  0
O  O199  1  0.50009065  0.99948755  0.00020385  1  -1.226224  0  -0.569808  -1.029997  0  2.525716  0
O  O200  1  0.50410116  0.15638485  0.95044888  1  -1.172443  0  -0.319569  -0.546653  0  2.334426  0
O  O201  1  0.38839837  0.99520053  0.94173674  1  -1.180501  0  -0.312734  -0.542556  0  2.342339  0
O  O202  1  0.65271334  0.89289842  0.94668376  1  -1.179566  0  -0.31914  -0.546025  0  2.338455  0
O  O203  1  0.39100512  0.15275727  0.94612742  1  -1.165726  0  -0.315961  -0.53715  0  2.31197  0
O  O204  1  0.65727854  0.00541500  0.95044401  1  -1.170781  0  -0.315659  -0.537047  0  2.311317  0
O  O205  1  0.49736122  0.88579949  0.94158150  1  -1.167266  0  -0.310861  -0.540321  0  2.330826  0
O  O206  1  0.57689329  0.81611722  0.02291301  1  -1.168346  0  -0.319285  -0.545335  0  2.335802  0
O  O207  1  0.53072397  0.03028874  0.08663750  1  -1.16967  0  -0.311253  -0.540788  0  2.331145  0
O  O208  1  0.52653649  0.87385247  0.08152870  1  -1.166764  0  -0.316155  -0.538686  0  2.311692  0
O  O209  1  0.58491625  0.08471787  0.03146716  1  -1.166692  0  -0.312293  -0.540546  0  2.339431  0
O  O210  1  0.31527523  0.07695998  0.02198093  1  -1.136493  0  -0.315985  -0.537619  0  2.311759  0
O  O211  1  0.37431891  0.02617747  0.08045320  1  -1.169952  0  -0.32055  -0.548833  0  2.33465  0
