# generated using pymatgen
data_Zn2H13C29N5O8
_symmetry_space_group_name_H-M   'P 1'
_cell_length_a   9.79626041
_cell_length_b   10.99335931
_cell_length_c   14.42873391
_cell_angle_alpha   95.78783377
_cell_angle_beta   88.89017525
_cell_angle_gamma   91.78216652
_symmetry_Int_Tables_number   1
_chemical_formula_structural   Zn2H13C29N5O8
_chemical_formula_sum   'Zn2 H13 C29 N5 O8'
_cell_volume   1545.01016862
_cell_formula_units_Z   1
loop_
 _symmetry_equiv_pos_site_id
 _symmetry_equiv_pos_as_xyz
  1  'x, y, z'
loop_
 _atom_site_type_symbol
 _atom_site_label
 _atom_site_symmetry_multiplicity
 _atom_site_fract_x
 _atom_site_fract_y
 _atom_site_fract_z
 _atom_site_occupancy
 _atom_site_pbe_bader_charge
 _atom_site_pbe_bader_spin_density
 _atom_site_pbe_cm5_charge
 _atom_site_pbe_ddec_charge
 _atom_site_pbe_ddec_spin_density
 _atom_site_pbe_ddec_sum_bond_order
 _atom_site_pbe_magmom
Zn  Zn0  1  0.36009378  0.49349611  0.49740434  1  1.309948  0  0.669207  0.804934  0  2.459271  0
Zn  Zn1  1  0.63859419  0.50138175  0.48720208  1  1.29019  0  0.668251  0.820331  0  2.434986  0
H  H2  1  0.72040620  0.88554500  0.44312184  1  0.094159  0  0.101853  0.106787  0  1.006512  0
H  H3  1  0.10524866  0.56417526  0.71351832  1  0.175304  0  0.147808  0.157114  0  0.907536  0
H  H4  1  0.85331760  0.56294476  0.70673981  1  0.144036  0  0.145291  0.155789  0  0.914309  0
H  H5  1  0.72377579  0.11244693  0.45315793  1  0.07453  0  0.102402  0.107399  0  0.999126  0
H  H6  1  0.24117072  0.11609110  0.62821575  1  0.059542  0  0.095822  0.120973  0  1.013825  0
H  H7  1  0.18058213  0.11250393  0.51228236  1  0.009718  0  0.090649  0.102122  0  1.000326  0
H  H8  1  0.23925470  0.89142676  0.61808751  1  0.052954  0  0.097603  0.072752  0  0.960711  0
H  H9  1  0.14755189  0.51463625  0.35627231  1  0.235244  0  0.148501  0.147137  0  0.976789  0
H  H10  1  0.13358248  0.99143998  0.38112668  1  0.01634  0  0.084762  0.110407  0  1.011952  0
H  H11  1  0.24112140  0.86646580  0.35068098  1  0.026785  0  0.086655  0.1174  0  1.002752  0
H  H12  1  0.06084143  0.84570624  0.34415294  1  0.028498  0  0.082704  0.108594  0  1.010135  0
H  H13  1  0.15103742  0.76142090  0.48616506  1  0.033335  0  0.073803  0.059058  0  1.038583  0
H  H14  1  0.03729927  0.88167366  0.51726832  1  0.028103  0  0.085353  0.074867  0  0.980357  0
C  C15  1  0.51136986  0.73142243  0.48331551  1  1.548658  0  0.220836  0.606489  0  4.150257  0
C  C16  1  0.47837583  0.46169641  0.20998987  1  0.203709  0  -0.006699  -0.129332  0  3.834133  0
C  C17  1  0.39451518  0.93401500  0.51391595  1  -0.020306  0  -0.001324  0.025379  0  3.842808  0
C  C18  1  0.50979379  0.86693866  0.48672737  1  -0.013217  0  -0.013051  -0.070834  0  3.972285  0
C  C19  1  0.62867829  0.93513903  0.46492777  1  0.015883  0  -0.085837  -0.101406  0  3.988173  0
C  C20  1  0.63066344  0.06240953  0.47066990  1  -0.074238  0  -0.082778  -0.094326  0  3.984312  0
C  C21  1  0.51392913  0.12965815  0.49866852  1  0.05351  0  -0.009225  -0.068341  0  3.957118  0
C  C22  1  0.39713596  0.06170684  0.52013342  1  -0.04301  0  -6.8e-05  0.074828  0  3.884774  0
C  C23  1  0.25185129  0.07119147  0.55703311  1  -0.015966  0  -0.156047  -0.243964  0  3.850144  0
C  C24  1  0.24674996  0.92627360  0.54915114  1  0.032526  0  -0.074937  -0.003021  0  3.810355  0
C  C25  1  0.92151130  0.49083240  0.56571728  1  0.616698  0  0.162319  0.177535  0  3.852805  0
C  C26  1  0.48937086  0.52762521  0.67661781  1  1.665381  0  0.222691  0.660298  0  4.245306  0
C  C27  1  0.93935695  0.51748849  0.41357955  1  0.5991  0  0.17057  0.185973  0  3.963028  0
C  C28  1  0.08247059  0.50896152  0.41803892  1  0.533816  0  0.100799  0.045935  0  3.751357  0
C  C29  1  0.06260980  0.48667338  0.57080469  1  0.586288  0  0.162937  0.169737  0  3.855703  0
C  C30  1  0.06342707  0.47963273  0.67568578  1  0.052127  0  -0.016822  -0.082681  0  3.827705  0
C  C31  1  0.89708458  0.48044618  0.66965506  1  0.127088  0  -0.018014  -0.08341  0  3.817388  0
C  C32  1  0.51658509  0.26527752  0.50216718  1  1.519496  0  0.223216  0.613997  0  4.136385  0
C  C33  1  0.47691884  0.46268536  0.30988305  1  1.660218  0  0.224017  0.659267  0  4.249909  0
C  C34  1  0.49495154  0.52172055  0.77559805  1  -0.054014  0  -0.015483  -0.148412  0  3.857442  0
C  C35  1  0.49445331  0.50850351  0.85906080  1  -0.065098  0  -0.012013  0.027147  0  4.264865  0
C  C36  1  0.49238594  0.49402011  0.95018546  1  -0.026059  0  -0.001093  -0.003472  0  4.18888  0
C  C37  1  0.48859360  0.48093752  0.03411896  1  0.008103  0  0.003054  0.004408  0  4.184953  0
C  C38  1  0.48362192  0.46968537  0.12576202  1  -0.264742  0  -0.009678  0.024319  0  4.254373  0
C  C39  1  0.82506135  0.37202753  0.69660174  1  0.882238  0  0.17718  0.253768  0  3.977834  0
C  C40  1  0.13840336  0.86052343  0.48565584  1  -0.046887  0  -0.167875  -0.119052  0  3.983891  0
C  C41  1  0.14387429  0.89281504  0.38500475  1  -0.055346  0  -0.248116  -0.35471  0  3.978867  0
C  C42  1  0.88516205  0.54203574  0.32635746  1  0.831714  0  0.197603  0.201294  0  3.942885  0
C  C43  1  0.12176759  0.37424809  0.71086888  1  0.908567  0  0.184125  0.258772  0  3.961554  0
N  N44  1  0.85496085  0.50668724  0.48887612  1  -1.160865  0  -0.254484  -0.180149  0  3.358905  0
N  N45  1  0.14636562  0.49374498  0.49799970  1  -1.208939  0  -0.268906  -0.145334  0  3.437073  0
N  N46  1  0.77153809  0.28381468  0.71996172  1  -1.070409  0  -0.281213  -0.316687  0  2.675331  0
N  N47  1  0.85408200  0.56567901  0.25273808  1  -0.997125  0  -0.242146  -0.246261  0  2.628172  0
N  N48  1  0.16497473  0.28870474  0.74027353  1  -1.091291  0  -0.271453  -0.316287  0  2.710355  0
O  O49  1  0.39653507  0.67519002  0.49225953  1  -1.161966  0  -0.311584  -0.539818  0  2.34194  0
O  O50  1  0.62689363  0.68026062  0.47294623  1  -1.15411  0  -0.322771  -0.549462  0  2.326  0
O  O51  1  0.37035158  0.52201182  0.64175157  1  -1.141403  0  -0.306446  -0.538452  0  2.274619  0
O  O52  1  0.60279256  0.53642949  0.63239936  1  -1.151546  0  -0.306825  -0.553028  0  2.269879  0
O  O53  1  0.40089698  0.31639799  0.50377705  1  -1.15434  0  -0.313872  -0.539964  0  2.321656  0
O  O54  1  0.63280336  0.32111263  0.50205071  1  -1.160665  0  -0.318851  -0.547402  0  2.333212  0
O  O55  1  0.36087765  0.47164823  0.35148524  1  -1.15432  0  -0.310072  -0.54815  0  2.275172  0
O  O56  1  0.59193623  0.45641315  0.34807310  1  -1.137945  0  -0.302324  -0.530854  0  2.293256  0
