# generated using pymatgen
data_ZnH8C19Br2N2(ClO2)2
_symmetry_space_group_name_H-M   'P 1'
_cell_length_a   21.51277591
_cell_length_b   21.68470178
_cell_length_c   21.76214923
_cell_angle_alpha   60.15965415
_cell_angle_beta   63.75161975
_cell_angle_gamma   90.02422700
_symmetry_Int_Tables_number   1
_chemical_formula_structural   ZnH8C19Br2N2(ClO2)2
_chemical_formula_sum   'Zn4 H32 C76 Br8 N8 Cl8 O16'
_cell_volume   7574.14279606
_cell_formula_units_Z   4
loop_
 _symmetry_equiv_pos_site_id
 _symmetry_equiv_pos_as_xyz
  1  'x, y, z'
loop_
 _atom_site_type_symbol
 _atom_site_label
 _atom_site_symmetry_multiplicity
 _atom_site_fract_x
 _atom_site_fract_y
 _atom_site_fract_z
 _atom_site_occupancy
 _atom_site_pbe_bader_charge
 _atom_site_pbe_bader_spin_density
 _atom_site_pbe_cm5_charge
 _atom_site_pbe_ddec_charge
 _atom_site_pbe_ddec_spin_density
 _atom_site_pbe_ddec_sum_bond_order
 _atom_site_pbe_magmom
Zn  Zn0  1  0.55021541  0.04792024  0.90387470  1  1.324914  0  0.677009  0.914095  0  2.312756  0
Zn  Zn1  1  0.45882442  0.95575385  0.08817005  1  1.317102  0  0.66306  0.898398  0  2.246692  0
Zn  Zn2  1  0.97092098  0.45577737  0.08886480  1  1.305748  0  0.673572  0.858474  0  2.395194  0
Zn  Zn3  1  0.03201063  0.54072356  0.91601061  1  1.29775  0  0.663865  0.846084  0  2.366785  0
H  H4  1  0.82693512  0.39017641  0.21493581  1  0.182842  0  0.124552  0.110124  0  1.004408  0
H  H5  1  0.74720210  0.31091385  0.37029777  1  0.103929  0  0.12197  0.133003  0  0.991848  0
H  H6  1  0.59364494  0.19596201  0.60042842  1  0.110914  0  0.121601  0.147316  0  0.978765  0
H  H7  1  0.78846502  0.21038029  0.61099359  1  0.115686  0  0.116565  0.140076  0  1.010788  0
H  H8  1  0.17600520  0.60361547  0.78745955  1  0.17693  0  0.133265  0.115512  0  0.97517  0
H  H9  1  0.25545513  0.68287060  0.63179071  1  0.124013  0  0.122651  0.134365  0  0.987813  0
H  H10  1  0.40459786  0.76623677  0.40072319  1  0.129421  0  0.122184  0.145488  0  0.982494  0
H  H11  1  0.21427277  0.81726830  0.38999895  1  0.121041  0  0.116344  0.138567  0  1.013294  0
H  H12  1  0.71091984  0.30395691  0.91926202  1  0.080548  0  0.103358  0.116674  0  1.006225  0
H  H13  1  0.70519319  0.20556666  0.15881368  1  0.090767  0  0.102424  0.114759  0  1.011327  0
H  H14  1  0.90805455  0.41404310  0.89515624  1  0.104399  0  0.100785  0.106615  0  1.018786  0
H  H15  1  0.82657364  0.33459461  0.89324922  1  0.055727  0  0.103335  0.107489  0  0.997593  0
H  H16  1  0.61168173  0.03506691  0.13669330  1  0.074122  0  0.098933  0.099458  0  1.016581  0
H  H17  1  0.69491702  0.11444969  0.13693888  1  0.046657  0  0.102454  0.105652  0  1.001464  0
H  H18  1  0.37398378  0.80594530  0.88530184  1  0.03677  0  0.10111  0.112381  0  1.022383  0
H  H19  1  0.12931476  0.71193943  0.09794678  1  0.059693  0  0.101268  0.110863  0  1.023924  0
H  H20  1  0.23132409  0.68104499  0.86538668  1  0.068949  0  0.103462  0.104818  0  0.99403  0
H  H21  1  0.31042703  0.75819899  0.87017166  1  0.057662  0  0.101667  0.102544  0  1.014261  0
H  H22  1  0.27119723  0.84183067  0.11414284  1  0.062142  0  0.100093  0.101047  0  1.016496  0
H  H23  1  0.18987344  0.77304802  0.10347569  1  0.089494  0  0.101947  0.104394  0  1.011601  0
H  H24  1  0.37433257  0.32369269  0.84614382  1  0.077275  0  0.10198  0.113773  0  1.011531  0
H  H25  1  0.14252261  0.19039343  0.05092561  1  0.07291  0  0.103229  0.115771  0  1.007991  0
H  H26  1  0.23079454  0.46296772  0.90130927  1  0.090371  0  0.105353  0.108618  0  0.990616  0
H  H27  1  0.31938208  0.38978471  0.89469653  1  0.083733  0  0.103414  0.10623  0  1.001294  0
H  H28  1  0.30825443  0.07130988  0.08807119  1  0.102046  0  0.09095  0.096911  0  1.054639  0
H  H29  1  0.21869545  0.14354307  0.09418373  1  0.036046  0  0.1019  0.10543  0  1.002024  0
H  H30  1  0.74764151  0.79695101  0.88349274  1  0.062995  0  0.102804  0.114987  0  1.008576  0
H  H31  1  0.69621840  0.63564474  0.14185761  1  0.093508  0  0.104149  0.117201  0  1.006093  0
H  H32  1  0.93062073  0.70077766  0.89783225  1  0.095577  0  0.105493  0.112681  0  0.998859  0
H  H33  1  0.85438330  0.78728140  0.88404788  1  0.087199  0  0.103362  0.107033  0  0.997959  0
H  H34  1  0.60370181  0.83240764  0.10793624  1  0.081197  0  0.089755  0.093263  0  1.060175  0
H  H35  1  0.68228827  0.74850856  0.12465775  1  0.083728  0  0.101224  0.104141  0  1.000967  0
C  C36  1  0.41113775  0.91137745  0.01351937  1  1.593819  0  0.210346  0.614891  0  4.149223  0
C  C37  1  0.43838640  0.10385067  0.96940002  1  1.577498  0  0.2125  0.613486  0  4.141872  0
C  C38  1  0.57237453  0.07005315  0.02651793  1  1.591072  0  0.212974  0.618081  0  4.147171  0
C  C39  1  0.58867198  0.91850451  0.98192810  1  1.618634  0  0.213496  0.616108  0  4.137075  0
C  C40  1  0.08803810  0.41712569  0.98844835  1  1.621103  0  0.215429  0.614219  0  4.160167  0
C  C41  1  0.09445974  0.59782443  0.97666691  1  1.602278  0  0.211049  0.611252  0  4.167808  0
C  C42  1  0.90935673  0.57342943  0.02612580  1  1.59736  0  0.211128  0.605793  0  4.154727  0
C  C43  1  0.90738940  0.40784649  0.01855727  1  1.576187  0  0.214455  0.607788  0  4.152838  0
C  C44  1  0.84912550  0.37042734  0.25546057  1  0.398433  0  0.059387  0.126084  0  3.891129  0
C  C45  1  0.80584404  0.32743570  0.34016739  1  0.078402  0  -0.071445  -0.176226  0  3.919472  0
C  C46  1  0.83877366  0.30437431  0.38796062  1  0.3747  0  0.100481  0.163094  0  4.017819  0
C  C47  1  0.91467082  0.32543540  0.34841849  1  -0.05922  0  -0.00539  -0.028293  0  3.889902  0
C  C48  1  0.95465465  0.36861171  0.26158732  1  0.584769  0  0.119282  0.198811  0  3.958619  0
C  C49  1  0.62120071  0.18157465  0.63514905  1  0.158165  0  -0.07756  -0.241572  0  3.906038  0
C  C50  1  0.69614138  0.20787976  0.59500767  1  0.370505  0  0.109058  0.239182  0  4.029543  0
C  C51  1  0.73024614  0.18956884  0.64110793  1  0.085193  0  -0.083459  -0.247498  0  3.916146  0
C  C52  1  0.68683697  0.14528063  0.72634733  1  0.46395  0  0.124584  0.272215  0  3.958855  0
C  C53  1  0.58311263  0.13525800  0.72094544  1  0.364794  0  0.126408  0.272803  0  3.956488  0
C  C54  1  0.15363059  0.62369877  0.74711526  1  0.528391  0  0.065723  0.130573  0  3.8911  0
C  C55  1  0.19676361  0.66662894  0.66223648  1  -0.067152  0  -0.07235  -0.182662  0  3.923195  0
C  C56  1  0.16348172  0.69061190  0.61479808  1  0.346632  0  0.102513  0.166022  0  4.023818  0
C  C57  1  0.08758466  0.66964491  0.65492992  1  -0.052611  0  -0.008636  -0.035167  0  3.903962  0
C  C58  1  0.04797536  0.62581156  0.74172281  1  0.572243  0  0.118056  0.196957  0  3.964123  0
C  C59  1  0.37862575  0.79568799  0.36608724  1  -0.042004  0  -0.077946  -0.241205  0  3.905143  0
C  C60  1  0.30427452  0.78595513  0.40632216  1  0.36247  0  0.10644  0.235653  0  4.016492  0
C  C61  1  0.27211840  0.82406056  0.36014848  1  0.145657  0  -0.083306  -0.246856  0  3.908882  0
C  C62  1  0.31688765  0.87018250  0.27509434  1  0.446821  0  0.127335  0.273668  0  3.956637  0
C  C63  1  0.41819767  0.84462520  0.28051819  1  0.513517  0  0.130722  0.274459  0  3.957936  0
C  C64  1  0.61751411  0.12276507  0.02652842  1  0.030978  0  -0.018966  -0.083188  0  3.923448  0
C  C65  1  0.85417134  0.35581635  0.02605281  1  0.069015  0  -0.0207  -0.094305  0  3.913193  0
C  C66  1  0.64612392  0.19929965  0.96537889  1  0.008139  0  0.019656  0.144867  0  4.021689  0
C  C67  1  0.69142596  0.24463076  0.96613903  1  0.036998  0  -0.096393  -0.20621  0  3.964626  0
C  C68  1  0.79630599  0.29546272  0.10039225  1  -0.000614  0  0.021307  0.152467  0  4.001337  0
C  C69  1  0.74997543  0.25069994  0.09999246  1  -0.010273  0  -0.097777  -0.20993  0  3.964168  0
C  C70  1  0.86269922  0.36811664  0.95252534  1  -0.038143  0  -0.084185  -0.071619  0  3.990229  0
C  C71  1  0.81682535  0.32384891  0.95178683  1  0.007028  0  -0.094654  -0.144338  0  3.989742  0
C  C72  1  0.63474192  0.09421285  0.08879625  1  -0.009029  0  -0.084337  -0.074843  0  3.99706  0
C  C73  1  0.68057543  0.13892890  0.08927170  1  -0.048698  0  -0.094293  -0.14123  0  3.991844  0
C  C74  1  0.71004229  0.21517508  0.02735869  1  0.001864  0  -0.004055  0.086606  0  4.003273  0
C  C75  1  0.75927162  0.26380517  0.02618147  1  -0.031485  0  -0.001516  0.098141  0  4.000738  0
C  C76  1  0.36680593  0.86569039  0.00546819  1  0.077442  0  -0.020106  -0.084016  0  3.924684  0
C  C77  1  0.13740243  0.65026249  0.97904378  1  0.052888  0  -0.019678  -0.08424  0  3.936445  0
C  C78  1  0.39444286  0.85421822  0.94125085  1  -0.002746  0  0.020223  0.145872  0  4.021087  0
C  C79  1  0.34908403  0.81408308  0.93543020  1  0.060613  0  -0.097159  -0.203866  0  3.959468  0
C  C80  1  0.10982993  0.66128566  0.04356736  1  0.032282  0  0.018901  0.141788  0  4.027494  0
C  C81  1  0.15392218  0.70569723  0.04640575  1  -0.01302  0  -0.09446  -0.198546  0  3.959839  0
C  C82  1  0.20986971  0.68784201  0.91667394  1  -0.061287  0  -0.084076  -0.080114  0  4.010877  0
C  C83  1  0.25424267  0.73143902  0.91978642  1  -0.035962  0  -0.094509  -0.139553  0  3.990154  0
C  C84  1  0.29259768  0.83430025  0.06338484  1  -0.028311  0  -0.086173  -0.077723  0  3.998284  0
C  C85  1  0.24716639  0.79520821  0.05706751  1  -0.097339  0  -0.095065  -0.139509  0  3.985189  0
C  C86  1  0.27446556  0.78408248  0.99250749  1  0.013674  0  -0.004053  0.088843  0  3.989318  0
C  C87  1  0.22746204  0.74054165  0.98579310  1  0.054739  0  -0.005069  0.085773  0  3.989893  0
C  C88  1  0.39050733  0.15450064  0.96549520  1  0.047566  0  -0.020579  -0.09174  0  3.910675  0
C  C89  1  0.13749613  0.36894369  0.98278777  1  -0.006765  0  -0.019933  -0.085094  0  3.932893  0
C  C90  1  0.40839322  0.22700865  0.89760062  1  0.013905  0  0.022854  0.152587  0  4.003085  0
C  C91  1  0.35850810  0.26826615  0.90042531  1  -0.005412  0  -0.098876  -0.209111  0  3.959126  0
C  C92  1  0.11362011  0.29145876  0.02508086  1  0.046797  0  0.021079  0.145618  0  4.023784  0
C  C93  1  0.16302924  0.25002938  0.01942682  1  -0.004336  0  -0.096884  -0.205768  0  3.959605  0
C  C94  1  0.21228144  0.40284463  0.93448501  1  0.011684  0  -0.085205  -0.08154  0  4.007594  0
C  C95  1  0.26172919  0.36177727  0.93008234  1  -0.168195  0  -0.095612  -0.143314  0  3.99661  0
C  C96  1  0.32118529  0.12665160  0.03515300  1  -0.013649  0  -0.086388  -0.07027  0  3.995537  0
C  C97  1  0.27134635  0.16713188  0.03815379  1  0.004883  0  -0.096346  -0.145356  0  3.994252  0
C  C98  1  0.28939158  0.23938068  0.97024487  1  -0.018745  0  -0.002252  0.095022  0  3.999912  0
C  C99  1  0.23774652  0.28422396  0.97290246  1  0.091165  0  -0.003993  0.088831  0  3.998545  0
C  C100  1  0.63375629  0.86514196  0.98640109  1  0.013467  0  -0.02132  -0.090052  0  3.907484  0
C  C101  1  0.85884799  0.62123029  0.02638559  1  -0.011582  0  -0.021894  -0.092922  0  3.917889  0
C  C102  1  0.67522666  0.85417863  0.92315257  1  0.062866  0  0.023192  0.152462  0  4.007235  0
C  C103  1  0.71795904  0.80556810  0.93277231  1  -0.027041  0  -0.097052  -0.206719  0  3.961428  0
C  C104  1  0.79244997  0.60446687  0.09524357  1  0.049011  0  0.023151  0.153168  0  4.007669  0
C  C105  1  0.74839008  0.65187122  0.08781059  1  0.009507  0  -0.098915  -0.21142  0  3.960608  0
C  C106  1  0.87905389  0.68774687  0.95091740  1  -0.005987  0  -0.082145  -0.071793  0  3.995434  0
C  C107  1  0.83596023  0.73542334  0.94330932  1  -0.044114  0  -0.09443  -0.144285  0  3.995641  0
C  C108  1  0.63665802  0.82446520  0.05889447  1  -0.040457  0  -0.086331  -0.072188  0  3.998893  0
C  C109  1  0.67974414  0.77690847  0.06841121  1  3.2e-05  0  -0.094796  -0.141992  0  3.994458  0
C  C110  1  0.72181141  0.76706339  0.00464209  1  -0.047181  0  -0.003974  0.090914  0  4.006919  0
C  C111  1  0.76915689  0.71777037  0.01200681  1  -0.033173  0  -0.000545  0.096694  0  4.001634  0
Br  Br112  1  0.05611136  0.39693195  0.20440489  1  0.082384  0  0.092252  0.022754  0  1.491603  0
Br  Br113  1  0.96035550  0.29797320  0.41079467  1  0.029533  0  0.055273  -0.020378  0  1.452206  0
Br  Br114  1  0.48269269  0.09634511  0.77296218  1  0.048592  0  0.088945  0.005282  0  1.464822  0
Br  Br115  1  0.73300988  0.12460094  0.78784047  1  0.041998  0  0.084613  0.003635  0  1.440671  0
Br  Br116  1  0.94635943  0.59723281  0.79925480  1  0.075037  0  0.102452  0.025538  0  1.50274  0
Br  Br117  1  0.04200794  0.69814779  0.59238450  1  0.024458  0  0.0589  -0.015989  0  1.450357  0
Br  Br118  1  0.51914201  0.85876726  0.22871275  1  0.02068  0  0.097387  0.001275  0  1.463443  0
Br  Br119  1  0.27261926  0.92150671  0.21370109  1  0.014028  0  0.092688  -0.001934  0  1.459019  0
N  N120  1  0.92211104  0.39029824  0.21725580  1  -1.203443  0  -0.308459  -0.216296  0  3.469689  0
N  N121  1  0.79976239  0.25780402  0.47484458  1  -0.474063  0  -0.124122  -0.084424  0  3.260102  0
N  N122  1  0.73367563  0.25489175  0.50784722  1  -0.438117  0  -0.122238  -0.099417  0  3.189606  0
N  N123  1  0.61439896  0.11735656  0.76691242  1  -1.169084  0  -0.299034  -0.283288  0  3.381089  0
N  N124  1  0.08065758  0.60389584  0.78596669  1  -1.172039  0  -0.305171  -0.218937  0  3.465167  0
N  N125  1  0.20238675  0.73923708  0.52813141  1  -0.422731  0  -0.121905  -0.081568  0  3.262425  0
N  N126  1  0.26572480  0.73517312  0.49335646  1  -0.440243  0  -0.121014  -0.10101  0  3.183967  0
N  N127  1  0.38888563  0.88109448  0.23442014  1  -1.181135  0  -0.28689  -0.278389  0  3.345922  0
Cl  Cl128  1  0.62331617  0.24149960  0.88982703  1  -0.200792  0  -0.023923  -0.087826  0  1.521399  0
Cl  Cl129  1  0.77776721  0.27033189  0.19725195  1  -0.213309  0  -0.027035  -0.098891  0  1.505956  0
Cl  Cl130  1  0.48584122  0.88451308  0.86958937  1  -0.20245  0  -0.026062  -0.092417  0  1.544019  0
Cl  Cl131  1  0.01964159  0.62311265  0.12054298  1  -0.20416  0  -0.02309  -0.081961  0  1.483642  0
Cl  Cl132  1  0.49199464  0.27145292  0.80750373  1  -0.201421  0  -0.031482  -0.093195  0  1.510748  0
Cl  Cl133  1  0.02268801  0.24428270  0.08249546  1  -0.208966  0  -0.027161  -0.087735  0  1.453062  0
Cl  Cl134  1  0.67485935  0.89660678  0.83167849  1  -0.198679  0  -0.029734  -0.090885  0  1.507912  0
Cl  Cl135  1  0.75877162  0.52354091  0.19197785  1  -0.206645  0  -0.02933  -0.099121  0  1.481016  0
O  O136  1  0.46040053  0.96829793  0.94772054  1  -1.185286  0  -0.315363  -0.569811  0  2.443847  0
O  O137  1  0.39380826  0.89045916  0.08681414  1  -1.141193  0  -0.325786  -0.555471  0  2.326536  0
O  O138  1  0.41956449  0.04714150  0.04032902  1  -1.185201  0  -0.322407  -0.572921  0  2.355697  0
O  O139  1  0.49288593  0.12048489  0.90158028  1  -1.152316  0  -0.322525  -0.557635  0  2.449132  0
O  O140  1  0.51931350  0.01843415  0.09657084  1  -1.156553  0  -0.326296  -0.556329  0  2.329124  0
O  O141  1  0.59168765  0.07919626  0.95795940  1  -1.167767  0  -0.317616  -0.572562  0  2.429982  0
O  O142  1  0.60499995  0.97280791  0.91042604  1  -1.154684  0  -0.320989  -0.555457  0  2.429365  0
O  O143  1  0.53927562  0.90628498  0.05015859  1  -1.183749  0  -0.322887  -0.572523  0  2.350273  0
O  O144  1  0.03522756  0.39394514  0.05956547  1  -1.161113  0  -0.317337  -0.554934  0  2.394066  0
O  O145  1  0.10469985  0.47847129  0.92158261  1  -1.17696  0  -0.3214  -0.556468  0  2.30244  0
O  O146  1  0.10026954  0.61789802  0.90812974  1  -1.155694  0  -0.321069  -0.551347  0  2.260178  0
O  O147  1  0.05693719  0.53560532  0.04454520  1  -1.175488  0  -0.321785  -0.569014  0  2.441982  0
O  O148  1  0.95054660  0.58311277  0.95617125  1  -1.170857  0  -0.323944  -0.568679  0  2.391979  0
O  O149  1  0.90868075  0.52873170  0.09225875  1  -1.154788  0  -0.313234  -0.540897  0  2.364241  0
O  O150  1  0.89473314  0.40505286  0.08281957  1  -1.154857  0  -0.316225  -0.548364  0  2.393659  0
O  O151  1  0.96197921  0.45222880  0.94658157  1  -1.171334  0  -0.32503  -0.561167  0  2.348129  0
