# generated using pymatgen
data_Zn2H18C27O11
_symmetry_space_group_name_H-M   'P 1'
_cell_length_a   7.37097931
_cell_length_b   22.12883555
_cell_length_c   28.27656349
_cell_angle_alpha   89.99930259
_cell_angle_beta   90.00084095
_cell_angle_gamma   99.36554494
_symmetry_Int_Tables_number   1
_chemical_formula_structural   Zn2H18C27O11
_chemical_formula_sum   'Zn8 H72 C108 O44'
_cell_volume   4550.74386500
_cell_formula_units_Z   4
loop_
 _symmetry_equiv_pos_site_id
 _symmetry_equiv_pos_as_xyz
  1  'x, y, z'
loop_
 _atom_site_type_symbol
 _atom_site_label
 _atom_site_symmetry_multiplicity
 _atom_site_fract_x
 _atom_site_fract_y
 _atom_site_fract_z
 _atom_site_occupancy
 _atom_site_pbe_bader_charge
 _atom_site_pbe_bader_spin_density
 _atom_site_pbe_cm5_charge
 _atom_site_pbe_ddec_charge
 _atom_site_pbe_ddec_spin_density
 _atom_site_pbe_ddec_sum_bond_order
 _atom_site_pbe_magmom
Zn  Zn0  1  0.86930909  0.82458934  0.95930064  1  1.358681  0  0.690062  0.973321  0  2.258113  0
Zn  Zn1  1  0.13070701  0.67540403  0.45930107  1  1.358732  0  0.69008  0.973339  0  2.25807  0
Zn  Zn2  1  0.13068314  0.17541214  0.04070202  1  1.358928  0  0.690065  0.973314  0  2.258105  0
Zn  Zn3  1  0.86929656  0.32459286  0.54069877  1  1.35859  0  0.690084  0.97337  0  2.258099  0
Zn  Zn4  1  0.45297513  0.75736551  0.95322234  1  1.343203  0  0.681253  0.961131  0  2.252386  0
Zn  Zn5  1  0.54704675  0.74263206  0.45322442  1  1.34342  0  0.681358  0.961312  0  2.252194  0
Zn  Zn6  1  0.54701394  0.24263505  0.04678103  1  1.343324  0  0.681278  0.961149  0  2.252381  0
Zn  Zn7  1  0.45295997  0.25736850  0.54677718  1  1.343303  0  0.681345  0.961267  0  2.25225  0
H  H8  1  0.12795122  0.68394495  0.83766312  1  0.072379  0  0.102371  0.107464  0  1.012553  0
H  H9  1  0.87206647  0.81605181  0.33766397  1  0.072599  0  0.102313  0.10748  0  1.012599  0
H  H10  1  0.87205158  0.31606431  0.16233601  1  0.072345  0  0.10244  0.107603  0  1.012627  0
H  H11  1  0.12793713  0.18394235  0.66233339  1  0.072512  0  0.10237  0.107541  0  1.012556  0
H  H12  1  0.55512174  0.64301467  0.79994244  1  0.041257  0  0.098599  0.091515  0  1.022635  0
H  H13  1  0.44489384  0.85698212  0.29994692  1  0.041321  0  0.098525  0.091442  0  1.022685  0
H  H14  1  0.44487703  0.35698910  0.20005740  1  0.041206  0  0.098592  0.091465  0  1.022614  0
H  H15  1  0.55511588  0.14301066  0.70005362  1  0.041358  0  0.098566  0.091449  0  1.022504  0
H  H16  1  0.47314792  0.69108999  0.87311678  1  0.099052  0  0.099621  0.12232  0  1.046819  0
H  H17  1  0.52686703  0.80890540  0.37312169  1  0.098848  0  0.099564  0.122218  0  1.046946  0
H  H18  1  0.52684138  0.30891102  0.12688341  1  0.099138  0  0.099632  0.122319  0  1.046905  0
H  H19  1  0.47314064  0.19108876  0.62687921  1  0.098934  0  0.099598  0.122227  0  1.046984  0
H  H20  1  0.15197672  0.69404661  0.75647822  1  0.053321  0  0.098689  0.103552  0  1.016296  0
H  H21  1  0.84802396  0.80595805  0.25648120  1  0.05308  0  0.098668  0.103522  0  1.016343  0
H  H22  1  0.84801883  0.30596448  0.24351950  1  0.053303  0  0.098631  0.103453  0  1.016352  0
H  H23  1  0.15197172  0.19403655  0.74351758  1  0.053219  0  0.098656  0.103496  0  1.016329  0
H  H24  1  0.98142450  0.57095392  0.64119092  1  0.059859  0  0.099516  0.100304  0  1.024732  0
H  H25  1  0.01858173  0.92905038  0.14119238  1  0.05957  0  0.099532  0.100329  0  1.024722  0
H  H26  1  0.01857946  0.42905214  0.35880997  1  0.05942  0  0.099513  0.100241  0  1.024814  0
H  H27  1  0.98141208  0.07095155  0.85881028  1  0.059517  0  0.099531  0.100314  0  1.024696  0
H  H28  1  0.64360226  0.56731698  0.76518202  1  0.059816  0  0.098931  0.100642  0  1.022257  0
H  H29  1  0.35642178  0.93267613  0.26518227  1  0.059634  0  0.098918  0.100613  0  1.022298  0
H  H30  1  0.35639715  0.43269091  0.23481817  1  0.060089  0  0.098953  0.100609  0  1.022178  0
H  H31  1  0.64358978  0.06731207  0.73481616  1  0.060143  0  0.098906  0.100552  0  1.022349  0
H  H32  1  0.43967183  0.67135145  0.73071832  1  0.068405  0  0.09857  0.090156  0  1.027631  0
H  H33  1  0.56033738  0.82864026  0.23071609  1  0.068117  0  0.098567  0.090123  0  1.027578  0
H  H34  1  0.56033195  0.32864865  0.26928081  1  0.068363  0  0.098571  0.090172  0  1.027611  0
H  H35  1  0.43966577  0.17135298  0.76928410  1  0.068543  0  0.098566  0.090138  0  1.027479  0
H  H36  1  0.72418148  0.70208610  0.68425621  1  0.08189  0  0.10928  0.130381  0  0.990337  0
H  H37  1  0.27582934  0.79789476  0.18425425  1  0.082104  0  0.109275  0.130335  0  0.990356  0
H  H38  1  0.27582331  0.29789935  0.31574115  1  0.082009  0  0.109234  0.13025  0  0.990349  0
H  H39  1  0.72416725  0.20209893  0.81574948  1  0.082228  0  0.109248  0.130363  0  0.990276  0
H  H40  1  0.12273554  0.65291374  0.60197337  1  0.109692  0  0.106724  0.11678  0  1.011441  0
H  H41  1  0.87727005  0.84709382  0.10197360  1  0.109693  0  0.10672  0.116757  0  1.011455  0
H  H42  1  0.87726750  0.34709324  0.39802611  1  0.109734  0  0.106729  0.116768  0  1.011478  0
H  H43  1  0.12271969  0.15290811  0.89802518  1  0.109572  0  0.106706  0.116701  0  1.011446  0
H  H44  1  0.83494128  0.46649394  0.64303083  1  0.103623  0  0.104186  0.109758  0  1.014795  0
H  H45  1  0.16506592  0.03351114  0.14303522  1  0.103434  0  0.104194  0.109755  0  1.014825  0
H  H46  1  0.16507146  0.53351624  0.35696582  1  0.103029  0  0.104219  0.109811  0  1.014728  0
H  H47  1  0.83492904  0.96648759  0.85696745  1  0.103444  0  0.104175  0.109709  0  1.014887  0
H  H48  1  0.18070085  0.48943303  0.66658785  1  0.10123  0  0.105678  0.122728  0  1.008039  0
H  H49  1  0.81930103  0.01056396  0.16658470  1  0.101157  0  0.105677  0.122717  0  1.008046  0
H  H50  1  0.81930043  0.51056754  0.33341057  1  0.101207  0  0.105676  0.122724  0  1.008097  0
H  H51  1  0.18069507  0.98943431  0.83341443  1  0.10115  0  0.105667  0.122668  0  1.008084  0
H  H52  1  0.42694766  0.56032429  0.70624768  1  0.076283  0  0.098836  0.093837  0  1.041058  0
H  H53  1  0.57306302  0.93967049  0.20624408  1  0.076164  0  0.098854  0.093895  0  1.040981  0
H  H54  1  0.57304889  0.43967490  0.29375428  1  0.076236  0  0.098808  0.093774  0  1.041016  0
H  H55  1  0.42693919  0.06032641  0.79375540  1  0.076211  0  0.098867  0.093901  0  1.040979  0
H  H56  1  0.71160408  0.71139475  0.55932689  1  0.65189  0  0.305871  0.355291  0  0.965053  0
H  H57  1  0.28841197  0.78859458  0.05932153  1  0.652053  0  0.305731  0.354943  0  0.965321  0
H  H58  1  0.28840566  0.28859528  0.44067295  1  0.651838  0  0.305799  0.354988  0  0.96527  0
H  H59  1  0.71157533  0.21140232  0.94068149  1  0.652061  0  0.305736  0.354888  0  0.965223  0
H  H60  1  0.29520815  0.36702482  0.59573245  1  0.650851  0  0.302493  0.350175  0  0.986479  0
H  H61  1  0.70479669  0.13298086  0.09573582  1  0.650726  0  0.302503  0.350129  0  0.986573  0
H  H62  1  0.70480779  0.63298078  0.40426491  1  0.650821  0  0.302518  0.350182  0  0.986438  0
H  H63  1  0.29520369  0.86702062  0.90426967  1  0.650722  0  0.302542  0.350222  0  0.986371  0
H  H64  1  0.35430326  0.66885442  0.02349291  1  0.623985  0  0.329606  0.406458  0  0.874977  0
H  H65  1  0.64570749  0.83114773  0.52349298  1  0.624203  0  0.32954  0.406404  0  0.874976  0
H  H66  1  0.64568739  0.33114660  0.97650834  1  0.624076  0  0.329648  0.406548  0  0.874928  0
H  H67  1  0.35429737  0.16885741  0.47650862  1  0.624065  0  0.329612  0.406536  0  0.874977  0
H  H68  1  0.28850706  0.64345958  0.97402001  1  0.618133  0  0.325336  0.405575  0  0.881364  0
H  H69  1  0.71150069  0.85654001  0.47401809  1  0.61812  0  0.325354  0.40564  0  0.881349  0
H  H70  1  0.71148566  0.35653732  0.02598266  1  0.61816  0  0.325347  0.40557  0  0.881426  0
H  H71  1  0.28849179  0.14345917  0.52598033  1  0.618143  0  0.325313  0.40562  0  0.881369  0
H  H72  1  0.97238508  0.93974716  0.97182692  1  0.587896  0  0.324362  0.399177  0  0.87715  0
H  H73  1  0.02760903  0.56024696  0.47182734  1  0.587956  0  0.324356  0.399274  0  0.877087  0
H  H74  1  0.02760806  0.06025340  0.02817433  1  0.587749  0  0.324377  0.399161  0  0.877117  0
H  H75  1  0.97238888  0.43975223  0.52817108  1  0.587838  0  0.324308  0.399132  0  0.877163  0
H  H76  1  0.12695989  0.91593726  0.94343087  1  0.656453  0  0.296506  0.378697  0  0.955869  0
H  H77  1  0.87305017  0.58406226  0.44342617  1  0.656345  0  0.296478  0.378588  0  0.956015  0
H  H78  1  0.87304319  0.08406422  0.05657285  1  0.656291  0  0.296504  0.378671  0  0.955929  0
H  H79  1  0.12695519  0.41593830  0.55657048  1  0.65644  0  0.296497  0.378677  0  0.955902  0
C  C80  1  0.09227963  0.73913507  0.91856477  1  1.467682  0  0.219069  0.614399  0  4.137643  0
C  C81  1  0.90773691  0.76086112  0.41856735  1  1.467218  0  0.219079  0.614513  0  4.138062  0
C  C82  1  0.90770898  0.26086732  0.08143754  1  1.467891  0  0.219105  0.614399  0  4.137679  0
C  C83  1  0.09226711  0.23913670  0.58143320  1  1.467015  0  0.219006  0.614362  0  4.13815  0
C  C84  1  0.93987634  0.71420693  0.88654423  1  0.026732  0  -0.044695  -0.190715  0  3.982766  0
C  C85  1  0.06013451  0.78578966  0.38654510  1  0.027684  0  -0.04461  -0.190658  0  3.982512  0
C  C86  1  0.06011088  0.28579821  0.11345667  1  0.026773  0  -0.044754  -0.190701  0  3.982958  0
C  C87  1  0.93986884  0.21420678  0.61345262  1  0.027211  0  -0.044633  -0.190652  0  3.982641  0
C  C88  1  0.98333045  0.68571204  0.84446367  1  -0.037869  0  -0.083367  -0.110781  0  3.957504  0
C  C89  1  0.01668170  0.81428371  0.34446692  1  -0.040926  0  -0.083245  -0.110835  0  3.95748  0
C  C90  1  0.01666331  0.31429538  0.15553546  1  -0.040724  0  -0.083347  -0.110954  0  3.957791  0
C  C91  1  0.98332732  0.18571044  0.65553115  1  -0.04053  0  -0.083373  -0.110964  0  3.957383  0
C  C92  1  0.84919285  0.66022257  0.81218061  1  0.041797  0  -0.024891  0.031678  0  4.036495  0
C  C93  1  0.15082289  0.83977314  0.31218378  1  0.044883  0  -0.024873  0.031797  0  4.03648  0
C  C94  1  0.15080454  0.33978394  0.18781816  1  0.044957  0  -0.02484  0.031828  0  4.036284  0
C  C95  1  0.84918073  0.16021827  0.68781464  1  0.044413  0  -0.024825  0.031851  0  4.036326  0
C  C96  1  0.66449009  0.66227422  0.82417746  1  -0.124083  0  -0.083915  -0.082069  0  4.002349  0
C  C97  1  0.33552263  0.83772225  0.32418101  1  -0.124025  0  -0.08388  -0.082061  0  4.002305  0
C  C98  1  0.33550800  0.33773092  0.17582167  1  -0.124086  0  -0.083947  -0.082017  0  4.002138  0
C  C99  1  0.66448437  0.16227053  0.67581706  1  -0.124098  0  -0.083949  -0.082053  0  4.002102  0
C  C100  1  0.61722376  0.68959930  0.86535339  1  -0.022618  0  -0.118748  -0.228049  0  3.992159  0
C  C101  1  0.38278628  0.81039527  0.36535809  1  -0.022793  0  -0.118852  -0.228089  0  3.992345  0
C  C102  1  0.38277072  0.31040401  0.13464680  1  -0.022617  0  -0.118742  -0.228059  0  3.992243  0
C  C103  1  0.61721529  0.18959751  0.63464210  1  -0.022661  0  -0.118822  -0.228009  0  3.992226  0
C  C104  1  0.75275745  0.71731431  0.89726475  1  0.577942  0  0.085364  0.346441  0  4.075371  0
C  C105  1  0.24726480  0.78268214  0.39726813  1  0.577571  0  0.085325  0.346411  0  4.075469  0
C  C106  1  0.24723476  0.28268991  0.10273544  1  0.578205  0  0.08541  0.346515  0  4.07557  0
C  C107  1  0.75274420  0.21731476  0.60273064  1  0.577706  0  0.085315  0.346336  0  4.075524  0
C  C108  1  0.89363089  0.63349885  0.76656107  1  -0.052088  0  -0.012421  0.081054  0  4.044822  0
C  C109  1  0.10638615  0.86650203  0.26656275  1  -0.052961  0  -0.012451  0.080827  0  4.044918  0
C  C110  1  0.10636897  0.36650996  0.23343736  1  -0.05249  0  -0.01229  0.081054  0  4.044858  0
C  C111  1  0.89362695  0.13349213  0.73343532  1  -0.052521  0  -0.012296  0.080968  0  4.044863  0
C  C112  1  0.05584153  0.65597029  0.74175330  1  -0.073267  0  -0.096595  -0.198311  0  3.940732  0
C  C113  1  0.94416137  0.84403227  0.24175487  1  -0.072838  0  -0.096432  -0.197995  0  3.940506  0
C  C114  1  0.94415379  0.34404034  0.25824547  1  -0.073192  0  -0.096535  -0.198185  0  3.940462  0
C  C115  1  0.05583838  0.15596234  0.75824355  1  -0.073203  0  -0.096575  -0.19816  0  3.940815  0
C  C116  1  0.09031454  0.63325277  0.69682722  1  0.063996  0  -0.010577  0.084229  0  4.030629  0
C  C117  1  0.90968973  0.86674945  0.19682986  1  0.064818  0  -0.010691  0.084006  0  4.030366  0
C  C118  1  0.90968487  0.36675512  0.30317226  1  0.06427  0  -0.010709  0.084169  0  4.030308  0
C  C119  1  0.09030682  0.13324973  0.80316927  1  0.06507  0  -0.010748  0.083961  0  4.030619  0
C  C120  1  0.95818727  0.58762376  0.67660458  1  -0.066937  0  -0.092917  -0.189502  0  3.937136  0
C  C121  1  0.04182344  0.91238010  0.17660664  1  -0.067223  0  -0.0929  -0.189506  0  3.936943  0
C  C122  1  0.04181711  0.41238597  0.32339526  1  -0.065872  0  -0.09286  -0.18935  0  3.937165  0
C  C123  1  0.95817266  0.08761817  0.82339390  1  -0.067107  0  -0.0928  -0.189335  0  3.936988  0
C  C124  1  0.79487736  0.56451045  0.70040006  1  0.019988  0  -0.010128  0.083781  0  4.046122  0
C  C125  1  0.20513411  0.93548944  0.20040181  1  0.020269  0  -0.010081  0.083779  0  4.04601  0
C  C126  1  0.20512546  0.43549607  0.29959978  1  0.019641  0  -0.010094  0.083765  0  4.046364  0
C  C127  1  0.79486653  0.06450700  0.79959908  1  0.020309  0  -0.010201  0.083641  0  4.046387  0
C  C128  1  0.76674308  0.58696063  0.74566989  1  -0.044661  0  -0.096442  -0.197969  0  3.957934  0
C  C129  1  0.23327385  0.91303684  0.24567091  1  -0.044687  0  -0.096495  -0.197881  0  3.958018  0
C  C130  1  0.23325611  0.41304680  0.25432924  1  -0.045032  0  -0.096533  -0.197967  0  3.958016  0
C  C131  1  0.76673249  0.08695456  0.75432716  1  -0.045199  0  -0.096403  -0.197754  0  3.957875  0
C  C132  1  0.25861726  0.65739431  0.66991575  1  0.064792  0  -0.020875  0.031421  0  4.027678  0
C  C133  1  0.74138569  0.84260551  0.16991584  1  0.064545  0  -0.020846  0.031533  0  4.027581  0
C  C134  1  0.74137902  0.34260992  0.33008338  1  0.0645  0  -0.020903  0.031417  0  4.027705  0
C  C135  1  0.25860657  0.15739322  0.83008576  1  0.065085  0  -0.020772  0.031583  0  4.027782  0
C  C136  1  0.43082043  0.67416165  0.69226171  1  -0.13301  0  -0.08119  -0.092502  0  3.999759  0
C  C137  1  0.56919002  0.82583147  0.19226060  1  -0.132739  0  -0.081197  -0.092425  0  3.999522  0
C  C138  1  0.56918629  0.32583891  0.30773707  1  -0.133078  0  -0.081201  -0.092641  0  3.999812  0
C  C139  1  0.43080746  0.17416406  0.80774100  1  -0.134007  0  -0.081235  -0.092527  0  3.99964  0
C  C140  1  0.59122284  0.69172390  0.66665486  1  0.044404  0  -0.103593  -0.202358  0  3.974391  0
C  C141  1  0.40879135  0.80826314  0.16665225  1  0.044183  0  -0.103564  -0.202285  0  3.974171  0
C  C142  1  0.40878485  0.30826750  0.33334462  1  0.044367  0  -0.103513  -0.202038  0  3.974164  0
C  C143  1  0.59120364  0.19173284  0.83335077  1  0.044631  0  -0.103532  -0.202305  0  3.974318  0
C  C144  1  0.58543948  0.69468119  0.61708481  1  0.473665  0  0.093376  0.317396  0  4.048332  0
C  C145  1  0.41457492  0.80530923  0.11708295  1  0.473803  0  0.093319  0.317157  0  4.048328  0
C  C146  1  0.41457295  0.30531159  0.38291361  1  0.473645  0  0.093336  0.317154  0  4.048409  0
C  C147  1  0.58541509  0.19468766  0.88291830  1  0.473613  0  0.093327  0.317207  0  4.048317  0
C  C148  1  0.41257297  0.68090168  0.59387486  1  -0.009932  0  -0.044415  -0.200116  0  4.012419  0
C  C149  1  0.58743862  0.81909682  0.09387248  1  -0.009928  0  -0.044373  -0.200082  0  4.012495  0
C  C150  1  0.58743557  0.31909705  0.40612497  1  -0.009778  0  -0.044384  -0.200025  0  4.012471  0
C  C151  1  0.41254932  0.18090419  0.90612807  1  -0.009688  0  -0.044476  -0.200263  0  4.012532  0
C  C152  1  0.25334328  0.66217616  0.62078209  1  -0.038439  0  -0.080292  -0.107512  0  3.953167  0
C  C153  1  0.74666148  0.83782749  0.12078155  1  -0.038585  0  -0.080359  -0.107631  0  3.953213  0
C  C154  1  0.74665752  0.33782898  0.37921775  1  -0.038531  0  -0.0803  -0.107546  0  3.953199  0
C  C155  1  0.25332917  0.16217353  0.87921935  1  -0.038783  0  -0.080288  -0.107428  0  3.953188  0
C  C156  1  0.39449662  0.68782921  0.54223273  1  1.495616  0  0.224837  0.622404  0  4.144466  0
C  C157  1  0.60552282  0.81216629  0.04223225  1  1.495817  0  0.224826  0.622574  0  4.144287  0
C  C158  1  0.60551285  0.31216586  0.45776604  1  1.495447  0  0.224922  0.622639  0  4.144101  0
C  C159  1  0.39446061  0.18783381  0.95776971  1  1.495706  0  0.224792  0.622568  0  4.144133  0
C  C160  1  0.65083488  0.51956202  0.67762919  1  -0.044946  0  -0.016944  0.042194  0  4.011546  0
C  C161  1  0.34917094  0.98043724  0.17763143  1  -0.019408  0  -0.016968  0.042276  0  4.011254  0
C  C162  1  0.34916387  0.48044449  0.32236852  1  -0.044804  0  -0.017065  0.042177  0  4.01149  0
C  C163  1  0.65083332  0.01955829  0.82236912  1  -0.044885  0  -0.017056  0.042152  0  4.011367  0
C  C164  1  0.69285841  0.47291860  0.64840105  1  0.020169  0  -0.08087  -0.110105  0  3.953908  0
C  C165  1  0.30714773  0.02708366  0.14840498  1  -0.004995  0  -0.08096  -0.110271  0  3.95395  0
C  C166  1  0.30714824  0.52709021  0.35159525  1  0.020588  0  -0.080961  -0.110421  0  3.953977  0
C  C167  1  0.69285064  0.97291370  0.85159662  1  0.020378  0  -0.0809  -0.1102  0  3.953997  0
C  C168  1  0.55467762  0.43161575  0.62608356  1  0.001913  0  -0.042281  -0.188921  0  4.010149  0
C  C169  1  0.44532536  0.06838817  0.12608727  1  0.001691  0  -0.042177  -0.188818  0  4.010026  0
C  C170  1  0.44533581  0.56839306  0.37391203  1  0.001696  0  -0.042164  -0.188446  0  4.009815  0
C  C171  1  0.55467255  0.93161102  0.87391539  1  0.001794  0  -0.042193  -0.188721  0  4.010087  0
C  C172  1  0.36813596  0.43822334  0.63236081  1  0.457054  0  0.089315  0.307868  0  4.042653  0
C  C173  1  0.63186508  0.06177866  0.13236318  1  0.457307  0  0.089313  0.307862  0  4.042662  0
C  C174  1  0.63187569  0.56178180  0.36763337  1  0.457227  0  0.089317  0.307737  0  4.042881  0
C  C175  1  0.36813168  0.93822098  0.86763737  1  0.457283  0  0.089297  0.307733  0  4.042736  0
C  C176  1  0.32434938  0.48472564  0.66159355  1  -0.041815  0  -0.107281  -0.206013  0  3.990228  0
C  C177  1  0.67565902  0.01527416  0.16159299  1  -0.041602  0  -0.107311  -0.206041  0  3.990186  0
C  C178  1  0.67566069  0.51527904  0.33840310  1  -0.041782  0  -0.107191  -0.205835  0  3.990328  0
C  C179  1  0.32434137  0.98472457  0.83840649  1  -0.041887  0  -0.1072  -0.205822  0  3.990307  0
C  C180  1  0.46365209  0.52399010  0.68407125  1  -0.029986  0  -0.076532  -0.077824  0  3.969299  0
C  C181  1  0.53635632  0.97600816  0.18407000  1  -0.03024  0  -0.076536  -0.077871  0  3.968965  0
C  C182  1  0.53634712  0.47601458  0.31592788  1  -0.029823  0  -0.076593  -0.077907  0  3.969113  0
C  C183  1  0.46364410  0.02398782  0.81592948  1  -0.029874  0  -0.076598  -0.077929  0  3.96909  0
C  C184  1  0.60327450  0.38130397  0.59669737  1  1.511015  0  0.219513  0.617669  0  4.151362  0
C  C185  1  0.39671999  0.11869986  0.09669971  1  1.511378  0  0.219465  0.617677  0  4.15138  0
C  C186  1  0.39673579  0.61870117  0.40330211  1  1.510805  0  0.219374  0.617199  0  4.151539  0
C  C187  1  0.60327315  0.88130070  0.90330473  1  1.510839  0  0.21957  0.617676  0  4.151384  0
O  O188  1  0.70515655  0.74441720  0.93662434  1  -1.173588  0  -0.35084  -0.590179  0  2.518429  0
O  O189  1  0.29486067  0.75557829  0.43662886  1  -1.173352  0  -0.350722  -0.590062  0  2.518701  0
O  O190  1  0.29483319  0.25558473  0.06337621  1  -1.173977  0  -0.350877  -0.590244  0  2.518544  0
O  O191  1  0.70514313  0.24441907  0.56337239  1  -1.173327  0  -0.350748  -0.590056  0  2.518742  0
O  O192  1  0.08325195  0.78222165  0.94835919  1  -1.160308  0  -0.318622  -0.551678  0  2.31464  0
O  O193  1  0.91676383  0.71777232  0.44836080  1  -1.16067  0  -0.318601  -0.551682  0  2.31464  0
O  O194  1  0.91673217  0.21777708  0.05164666  1  -1.160412  0  -0.318589  -0.551658  0  2.314666  0
O  O195  1  0.08324312  0.28222595  0.55163904  1  -1.160503  0  -0.318585  -0.551616  0  2.314678  0
O  O196  1  0.24135501  0.71601341  0.91546932  1  -1.164303  0  -0.322248  -0.568328  0  2.34057  0
O  O197  1  0.75866453  0.78398373  0.41547181  1  -1.163759  0  -0.322381  -0.568473  0  2.340831  0
O  O198  1  0.75863698  0.28399035  0.08453264  1  -1.164467  0  -0.322361  -0.568387  0  2.340619  0
O  O199  1  0.24134016  0.21601546  0.58452838  1  -1.163849  0  -0.3223  -0.568373  0  2.340896  0
O  O200  1  0.74561272  0.71065477  0.59350685  1  -1.164477  0  -0.356072  -0.44582  0  2.251637  0
O  O201  1  0.25440076  0.78933091  0.09350383  1  -1.164765  0  -0.355967  -0.445442  0  2.251685  0
O  O202  1  0.25439523  0.28933160  0.40649086  1  -1.164445  0  -0.35604  -0.445532  0  2.251699  0
O  O203  1  0.74558675  0.21066644  0.90649954  1  -1.164665  0  -0.35597  -0.445412  0  2.251505  0
O  O204  1  0.54268558  0.71001655  0.51908335  1  -1.177789  0  -0.315487  -0.577337  0  2.377392  0
O  O205  1  0.45732614  0.78997970  0.01908110  1  -1.177676  0  -0.3155  -0.57736  0  2.377045  0
O  O206  1  0.45732229  0.28998081  0.48091613  1  -1.177659  0  -0.315523  -0.577385  0  2.377065  0
O  O207  1  0.54265797  0.21001902  0.98092015  1  -1.177846  0  -0.315473  -0.577289  0  2.377019  0
O  O208  1  0.23714432  0.67266868  0.52345901  1  -1.182954  0  -0.313075  -0.543115  0  2.343182  0
O  O209  1  0.76286926  0.82731974  0.02346040  1  -1.18301  0  -0.312974  -0.543076  0  2.343391  0
O  O210  1  0.76286406  0.32732135  0.47653871  1  -1.182728  0  -0.313074  -0.543221  0  2.343362  0
O  O211  1  0.23711347  0.17268174  0.97654121  1  -1.183045  0  -0.312897  -0.543034  0  2.343235  0
O  O212  1  0.77151474  0.37997954  0.58778113  1  -1.180718  0  -0.315558  -0.565516  0  2.356413  0
O  O213  1  0.22847820  0.12002212  0.08778422  1  -1.180829  0  -0.315533  -0.565532  0  2.356297  0
O  O214  1  0.22850078  0.62002240  0.41221765  1  -1.18061  0  -0.315445  -0.565294  0  2.35659  0
O  O215  1  0.77151359  0.87997844  0.91221986  1  -1.180789  0  -0.315538  -0.565491  0  2.356405  0
O  O216  1  0.46853592  0.34128023  0.58144050  1  -1.185374  0  -0.311819  -0.568047  0  2.38562  0
O  O217  1  0.53145327  0.15872563  0.08144403  1  -1.185663  0  -0.311784  -0.567965  0  2.385863  0
O  O218  1  0.53148616  0.65872126  0.41856252  1  -1.185356  0  -0.311736  -0.567848  0  2.385452  0
O  O219  1  0.46853260  0.84127950  0.91856323  1  -1.185168  0  -0.311809  -0.567971  0  2.385552  0
O  O220  1  0.22990681  0.39990073  0.61050093  1  -1.179798  0  -0.349851  -0.462617  0  2.33902  0
O  O221  1  0.77009087  0.10010247  0.11050381  1  -1.179604  0  -0.349898  -0.462619  0  2.339179  0
O  O222  1  0.77010371  0.60010487  0.38949325  1  -1.179849  0  -0.34989  -0.462648  0  2.339176  0
O  O223  1  0.22990092  0.89989809  0.88949885  1  -1.179829  0  -0.349931  -0.462681  0  2.338994  0
O  O224  1  0.39720916  0.66189835  0.99167963  1  -1.196736  0  -0.558542  -0.726767  0  1.980446  0
O  O225  1  0.60280130  0.83809918  0.49167747  1  -1.196949  0  -0.558504  -0.72681  0  1.98043  0
O  O226  1  0.60278263  0.33810221  0.00832198  1  -1.196847  0  -0.558609  -0.726868  0  1.980449  0
O  O227  1  0.39719910  0.16189954  0.50832236  1  -1.196839  0  -0.558525  -0.726909  0  1.980473  0
O  O228  1  0.05854933  0.91078875  0.97392634  1  -1.199086  0  -0.566932  -0.71775  0  2.012299  0
O  O229  1  0.94145120  0.58920717  0.47392256  1  -1.199106  0  -0.566875  -0.717758  0  2.012411  0
O  O230  1  0.94144517  0.08921180  0.02607703  1  -1.198812  0  -0.566936  -0.717697  0  2.012352  0
O  O231  1  0.05854806  0.41079202  0.52607374  1  -1.19904  0  -0.566874  -0.717702  0  2.012332  0
