# generated using pymatgen
data_CdH20C26N4O7
_symmetry_space_group_name_H-M   'P 1'
_cell_length_a   9.88833903
_cell_length_b   11.34654948
_cell_length_c   14.85452293
_cell_angle_alpha   102.28424750
_cell_angle_beta   89.99459443
_cell_angle_gamma   115.77979144
_symmetry_Int_Tables_number   1
_chemical_formula_structural   CdH20C26N4O7
_chemical_formula_sum   'Cd2 H40 C52 N8 O14'
_cell_volume   1458.29995526
_cell_formula_units_Z   2
loop_
 _symmetry_equiv_pos_site_id
 _symmetry_equiv_pos_as_xyz
  1  'x, y, z'
loop_
 _atom_site_type_symbol
 _atom_site_label
 _atom_site_symmetry_multiplicity
 _atom_site_fract_x
 _atom_site_fract_y
 _atom_site_fract_z
 _atom_site_occupancy
 _atom_site_hle17_bader_spin_density
 _atom_site_hle17_ddec_charge
 _atom_site_hle17_ddec_spin_density
 _atom_site_hle17_ddec_sum_bond_order
 _atom_site_hle17_magmom
 _atom_site_hse06_10hf_bader_spin_density
 _atom_site_hse06_10hf_ddec_charge
 _atom_site_hse06_10hf_ddec_spin_density
 _atom_site_hse06_10hf_ddec_sum_bond_order
 _atom_site_hse06_10hf_magmom
 _atom_site_hse06_bader_spin_density
 _atom_site_hse06_ddec_charge
 _atom_site_hse06_ddec_spin_density
 _atom_site_hse06_ddec_sum_bond_order
 _atom_site_hse06_magmom
 _atom_site_pbe_bader_spin_density
 _atom_site_pbe_cm5_charge
 _atom_site_pbe_ddec_charge
 _atom_site_pbe_ddec_spin_density
 _atom_site_pbe_ddec_sum_bond_order
 _atom_site_pbe_magmom
Cd  Cd0  1  0.89797102  0.00020598  0.25008857  1  0  1.120039  0  1.661352  0  0  0.932061  0  2.102386  0  0  0.989954  0  2.051641  0  0  0.761982  0.891188  0  2.13666  0
Cd  Cd1  1  0.10203107  0.99979842  0.74991318  1  0  1.120044  0  1.661309  0  0  0.932071  0  2.102346  0  0  0.989963  0  2.0516  0  0  0.761973  0.891194  0  2.136618  0
H  H2  1  0.66392786  0.87101533  0.07836796  1  0  0.098977  0  0.943499  0  0  0.105385  0  1.009823  0  0  0.109212  0  1.005391  0  0  0.122133  0.102437  0  1.013366  0
H  H3  1  0.79241193  0.12864053  0.42191363  1  0  0.098415  0  0.941779  0  0  0.10466  0  1.008407  0  0  0.10847  0  1.004007  0  0  0.122169  0.101733  0  1.011928  0
H  H4  1  0.33606564  0.12899009  0.92163329  1  0  0.098994  0  0.943421  0  0  0.105403  0  1.009752  0  0  0.109232  0  1.005315  0  0  0.122119  0.102456  0  1.013295  0
H  H5  1  0.20758413  0.87135383  0.57808308  1  0  0.098422  0  0.941893  0  0  0.104664  0  1.008513  0  0  0.108473  0  1.004112  0  0  0.122162  0.101735  0  1.012036  0
H  H6  1  0.79378101  0.08951577  0.86151316  1  0  0.123652  0  0.913284  0  0  0.134741  0  0.967433  0  0  0.138348  0  0.964183  0  0  0.121619  0.13183  0  0.970388  0
H  H7  1  0.70485612  0.90982761  0.63854300  1  0  0.123349  0  0.914174  0  0  0.13449  0  0.968517  0  0  0.138108  0  0.965264  0  0  0.121491  0.131567  0  0.971477  0
H  H8  1  0.20622357  0.91049767  0.13849346  1  0  0.123629  0  0.913398  0  0  0.134694  0  0.967566  0  0  0.1383  0  0.964317  0  0  0.12163  0.131786  0  0.970516  0
H  H9  1  0.29513943  0.09017178  0.36145522  1  0  0.123268  0  0.914068  0  0  0.134457  0  0.968375  0  0  0.138079  0  0.965114  0  0  0.121442  0.131533  0  0.971337  0
H  H10  1  0.04103701  0.23969054  0.95859732  1  0  0.110168  0  0.953174  0  0  0.121226  0  1.008314  0  0  0.123837  0  1.00862  0  0  0.11129  0.119299  0  1.008376  0
H  H11  1  0.80215343  0.75989812  0.54121907  1  0  0.110473  0  0.952796  0  0  0.121354  0  1.008002  0  0  0.123975  0  1.008327  0  0  0.111227  0.119404  0  1.008083  0
H  H12  1  0.95897108  0.76032385  0.04141485  1  0  0.110142  0  0.953117  0  0  0.121126  0  1.008368  0  0  0.123737  0  1.008675  0  0  0.111193  0.1192  0  1.008425  0
H  H13  1  0.19782647  0.24008616  0.45877798  1  0  0.110495  0  0.952836  0  0  0.121335  0  1.008077  0  0  0.123962  0  1.008389  0  0  0.111228  0.119385  0  1.008159  0
H  H14  1  0.08472017  0.19499428  0.11236337  1  0  0.081562  0  0.945539  0  0  0.089845  0  1.008968  0  0  0.092491  0  1.006805  0  0  0.115319  0.08769  0  1.011057  0
H  H15  1  0.89036950  0.80492799  0.38741265  1  0  0.08162  0  0.945111  0  0  0.090011  0  1.008426  0  0  0.092638  0  1.006282  0  0  0.115539  0.087851  0  1.010528  0
H  H16  1  0.91526922  0.80500900  0.88765233  1  0  0.081511  0  0.945578  0  0  0.089764  0  1.009031  0  0  0.09243  0  1.006835  0  0  0.11531  0.087609  0  1.011117  0
H  H17  1  0.10961798  0.19505932  0.61258288  1  0  0.081674  0  0.945167  0  0  0.090063  0  1.008459  0  0  0.092689  0  1.006314  0  0  0.115548  0.087891  0  1.010575  0
H  H18  1  0.40937853  0.48853808  0.87257803  1  0  0.111905  0  0.94494  0  0  0.12071  0  1.007242  0  0  0.125118  0  1.003917  0  0  0.104636  0.117361  0  1.01018  0
H  H19  1  0.92032689  0.51109003  0.62765797  1  0  0.111963  0  0.945404  0  0  0.120826  0  1.007546  0  0  0.125187  0  1.00429  0  0  0.104538  0.117481  0  1.010495  0
H  H20  1  0.59062205  0.51146938  0.12741951  1  0  0.112044  0  0.94501  0  0  0.120817  0  1.007334  0  0  0.12522  0  1.004014  0  0  0.104724  0.117465  0  1.010271  0
H  H21  1  0.07967831  0.48889227  0.37233269  1  0  0.111922  0  0.945362  0  0  0.120727  0  1.007582  0  0  0.125123  0  1.004288  0  0  0.104482  0.117381  0  1.010532  0
H  H22  1  0.94566035  0.36096493  0.78043977  1  0  0.103219  0  0.94869  0  0  0.111511  0  1.010964  0  0  0.115274  0  1.008755  0  0  0.099989  0.108472  0  1.013403  0
H  H23  1  0.58418056  0.63919099  0.71965902  1  0  0.103237  0  0.947515  0  0  0.111115  0  1.010313  0  0  0.114867  0  1.008151  0  0  0.099765  0.108065  0  1.012753  0
H  H24  1  0.05433869  0.63904755  0.21956197  1  0  0.103298  0  0.948693  0  0  0.111597  0  1.010949  0  0  0.115362  0  1.008735  0  0  0.10001  0.108558  0  1.013387  0
H  H25  1  0.41585690  0.36081538  0.28034642  1  0  0.103143  0  0.9475  0  0  0.111029  0  1.010295  0  0  0.114782  0  1.008135  0  0  0.099731  0.107978  0  1.012738  0
H  H26  1  0.99168349  0.60190590  0.81157340  1  0  0.087658  0  0.963866  0  0  0.097341  0  1.025127  0  0  0.099284  0  1.025379  0  0  0.097621  0.095837  0  1.025217  0
H  H27  1  0.38949846  0.39831480  0.68848020  1  0  0.087392  0  0.96458  0  0  0.097228  0  1.025704  0  0  0.099122  0  1.026005  0  0  0.097825  0.095782  0  1.025751  0
H  H28  1  0.00831253  0.39810458  0.18842599  1  0  0.087596  0  0.963951  0  0  0.097209  0  1.025296  0  0  0.099151  0  1.02555  0  0  0.097588  0.095743  0  1.025344  0
H  H29  1  0.61052178  0.60170164  0.31152893  1  0  0.087295  0  0.964759  0  0  0.097168  0  1.025831  0  0  0.099042  0  1.026152  0  0  0.097782  0.095718  0  1.025878  0
H  H30  1  0.24606960  0.78525364  0.87121287  1  0  0.109366  0  0.983438  0  0  0.116133  0  1.047757  0  0  0.118752  0  1.047536  0  0  0.103567  0.114353  0  1.047819  0
H  H31  1  0.46062642  0.21475965  0.62906952  1  0  0.108647  0  0.982422  0  0  0.115763  0  1.046397  0  0  0.118335  0  1.04626  0  0  0.103652  0.114012  0  1.046387  0
H  H32  1  0.75392745  0.21475081  0.12878350  1  0  0.109336  0  0.983351  0  0  0.116094  0  1.04771  0  0  0.118728  0  1.047459  0  0  0.103551  0.114315  0  1.047771  0
H  H33  1  0.53936859  0.78524273  0.37093256  1  0  0.108713  0  0.982363  0  0  0.115839  0  1.046334  0  0  0.118413  0  1.046203  0  0  0.103702  0.114089  0  1.046322  0
H  H34  1  0.56034384  0.71766363  0.93886624  1  0  0.296289  0  0.86636  0  0  0.289214  0  0.912357  0  0  0.295097  0  0.908808  0  0  0.330229  0.28505  0  0.914953  0
H  H35  1  0.84205223  0.28199474  0.56118336  1  0  0.29645  0  0.867471  0  0  0.289637  0  0.913147  0  0  0.295551  0  0.909538  0  0  0.330009  0.28548  0  0.915729  0
H  H36  1  0.43965118  0.28233877  0.06113450  1  0  0.296349  0  0.866397  0  0  0.289295  0  0.912356  0  0  0.295173  0  0.908807  0  0  0.330311  0.285136  0  0.91495  0
H  H37  1  0.15794637  0.71799660  0.43881217  1  0  0.296484  0  0.867433  0  0  0.289708  0  0.913048  0  0  0.295612  0  0.909436  0  0  0.33005  0.28555  0  0.915633  0
H  H38  1  0.61324339  0.03735299  0.20961003  1  0  0.432393  0  0.865897  0  0  0.403124  0  0.926346  0  0  0.413759  0  0.910529  0  0  0.292278  0.395663  0  0.937415  0
H  H39  1  0.57652395  0.96395310  0.29042991  1  0  0.432129  0  0.866467  0  0  0.402628  0  0.927415  0  0  0.413271  0  0.911582  0  0  0.292399  0.395126  0  0.938568  0
H  H40  1  0.38675518  0.96264436  0.79039054  1  0  0.432374  0  0.865913  0  0  0.403104  0  0.926363  0  0  0.413739  0  0.910546  0  0  0.292228  0.395642  0  0.937434  0
H  H41  1  0.42347010  0.03603723  0.70956613  1  0  0.43218  0  0.866387  0  0  0.402682  0  0.927331  0  0  0.413324  0  0.9115  0  0  0.292395  0.39518  0  0.938486  0
C  C42  1  0.74399939  0.94968501  0.04757842  1  0  0.099286  0  3.695081  0  0  0.056636  0  3.948972  0  0  0.065003  0  3.966722  0  0  0.049487  0.051143  0  3.93767  0
C  C43  1  0.79417912  0.04996859  0.45260330  1  0  0.099392  0  3.691445  0  0  0.057006  0  3.945633  0  0  0.06536  0  3.963385  0  0  0.04942  0.0514  0  3.934568  0
C  C44  1  0.25600017  0.05032039  0.95242484  1  0  0.099217  0  3.694896  0  0  0.056524  0  3.948756  0  0  0.064894  0  3.966501  0  0  0.049498  0.051051  0  3.937462  0
C  C45  1  0.20581341  0.95002073  0.54739257  1  0  0.099499  0  3.691679  0  0  0.05711  0  3.94585  0  0  0.065482  0  3.963618  0  0  0.049477  0.0515  0  3.934737  0
C  C46  1  0.70992550  0.96692232  0.96147270  1  0  -0.109875  0  3.76584  0  0  -0.087671  0  4.010598  0  0  -0.098903  0  4.033555  0  0  -0.006702  -0.080614  0  3.995636  0
C  C47  1  0.74304077  0.03265413  0.53874280  1  0  -0.11183  0  3.764986  0  0  -0.090035  0  4.010112  0  0  -0.101229  0  4.033013  0  0  -0.008526  -0.083014  0  3.99519  0
C  C48  1  0.29007053  0.03307804  0.03852972  1  0  -0.109712  0  3.765605  0  0  -0.087425  0  4.010193  0  0  -0.09866  0  4.033148  0  0  -0.006722  -0.080427  0  3.995308  0
C  C49  1  0.25694924  0.96733216  0.46125391  1  0  -0.111897  0  3.765023  0  0  -0.090097  0  4.010058  0  0  -0.101349  0  4.033034  0  0  -0.008544  -0.083008  0  3.99505  0
C  C50  1  0.81697664  0.07352466  0.92846194  1  0  0.01098  0  3.643346  0  0  -0.019992  0  3.891863  0  0  -0.013662  0  3.906676  0  0  -0.048124  -0.024031  0  3.882585  0
C  C51  1  0.74389433  0.92599876  0.57160204  1  0  0.012618  0  3.642239  0  0  -0.018829  0  3.891342  0  0  -0.012535  0  3.906201  0  0  -0.047808  -0.022834  0  3.88205  0
C  C52  1  0.18302289  0.92648273  0.07154502  1  0  0.010978  0  3.643491  0  0  -0.019984  0  3.891961  0  0  -0.013651  0  3.90677  0  0  -0.048132  -0.024005  0  3.882698  0
C  C53  1  0.25609616  0.07399456  0.42839786  1  0  0.012723  0  3.641892  0  0  -0.018831  0  3.891009  0  0  -0.012521  0  3.905883  0  0  -0.047785  -0.022858  0  3.881699  0
C  C54  1  0.95405950  0.15691613  0.98224879  1  0  -0.11274  0  3.723851  0  0  -0.124135  0  3.978994  0  0  -0.13201  0  4.000402  0  0  -0.07713  -0.11918  0  3.965257  0
C  C55  1  0.79774614  0.84271183  0.51768124  1  0  -0.113433  0  3.722103  0  0  -0.124165  0  3.977046  0  0  -0.132083  0  3.998494  0  0  -0.077173  -0.119179  0  3.963261  0
C  C56  1  0.04594760  0.84309223  0.01776102  1  0  -0.112544  0  3.723893  0  0  -0.12392  0  3.979052  0  0  -0.131797  0  4.000463  0  0  -0.076937  -0.118962  0  3.965306  0
C  C57  1  0.20224334  0.15728149  0.48231934  1  0  -0.113386  0  3.722173  0  0  -0.124057  0  3.977072  0  0  -0.131974  0  3.99852  0  0  -0.077149  -0.119071  0  3.963289  0
C  C58  1  0.97924955  0.13306143  0.06744452  1  0  0.131448  0  3.697843  0  0  0.097149  0  3.954255  0  0  0.10536  0  3.972315  0  0  0.051424  0.091427  0  3.942509  0
C  C59  1  0.84670771  0.86674267  0.43248806  1  0  0.131384  0  3.696362  0  0  0.096742  0  3.953092  0  0  0.104999  0  3.971143  0  0  0.051395  0.091027  0  3.941294  0
C  C60  1  0.02075200  0.86694391  0.93256479  1  0  0.131398  0  3.698096  0  0  0.097147  0  3.95446  0  0  0.105352  0  3.972517  0  0  0.051353  0.091427  0  3.942706  0
C  C61  1  0.15328076  0.13324865  0.56751084  1  0  0.131194  0  3.696569  0  0  0.096573  0  3.953252  0  0  0.10483  0  3.971302  0  0  0.051342  0.090865  0  3.941465  0
C  C62  1  0.55695542  0.88311644  0.90950238  1  0  0.568197  0  3.824845  0  0  0.518673  0  4.115223  0  0  0.549095  0  4.113277  0  0  0.25295  0.498018  0  4.115947  0
C  C63  1  0.67399269  0.11658344  0.59099637  1  0  0.568397  0  3.823431  0  0  0.520039  0  4.112031  0  0  0.5504  0  4.110118  0  0  0.253511  0.499453  0  4.11271  0
C  C64  1  0.44304969  0.11688793  0.09050340  1  0  0.567824  0  3.825173  0  0  0.518337  0  4.115486  0  0  0.548756  0  4.113535  0  0  0.252753  0.497705  0  4.116213  0
C  C65  1  0.32599631  0.88340894  0.40899665  1  0  0.568138  0  3.823781  0  0  0.519932  0  4.112083  0  0  0.550291  0  4.110175  0  0  0.253488  0.499323  0  4.112759  0
C  C66  1  0.34515264  0.65024170  0.87641497  1  0  0.243052  0  3.802948  0  0  0.241835  0  4.049938  0  0  0.247826  0  4.072361  0  0  0.092289  0.238018  0  4.034301  0
C  C67  1  0.69457075  0.34957060  0.62399397  1  0  0.242549  0  3.801428  0  0  0.242375  0  4.047303  0  0  0.248376  0  4.069706  0  0  0.09284  0.238533  0  4.031712  0
C  C68  1  0.65484237  0.34976675  0.12358543  1  0  0.243177  0  3.80247  0  0  0.241955  0  4.049476  0  0  0.247941  0  4.0719  0  0  0.092332  0.23814  0  4.033841  0
C  C69  1  0.30542784  0.65041870  0.37600392  1  0  0.242426  0  3.80176  0  0  0.242235  0  4.047626  0  0  0.248219  0  4.070029  0  0  0.092865  0.238396  0  4.032032  0
C  C70  1  0.31868901  0.51544392  0.86023852  1  0  -0.179146  0  3.715819  0  0  -0.207965  0  3.961113  0  0  -0.21122  0  3.981189  0  0  -0.091851  -0.205528  0  3.947789  0
C  C71  1  0.80280648  0.48434409  0.64005613  1  0  -0.178493  0  3.716564  0  0  -0.207661  0  3.961513  0  0  -0.210856  0  3.981661  0  0  -0.091517  -0.20526  0  3.948179  0
C  C72  1  0.68130299  0.48456051  0.13975987  1  0  -0.179282  0  3.715858  0  0  -0.208097  0  3.961158  0  0  -0.211348  0  3.981236  0  0  -0.09202  -0.205656  0  3.947826  0
C  C73  1  0.19720425  0.51564319  0.35994142  1  0  -0.178245  0  3.716836  0  0  -0.20738  0  3.961757  0  0  -0.210607  0  3.981889  0  0  -0.091464  -0.204982  0  3.948424  0
C  C74  1  0.17517042  0.41166885  0.82534222  1  0  -0.05126  0  3.797923  0  0  -0.025597  0  4.029916  0  0  -0.032755  0  4.054402  0  0  -0.025083  -0.020899  0  4.013144  0
C  C75  1  0.76305764  0.58828714  0.67486757  1  0  -0.054475  0  3.800126  0  0  -0.02898  0  4.032445  0  0  -0.036264  0  4.05708  0  0  -0.026013  -0.024185  0  4.015546  0
C  C76  1  0.82482411  0.58833458  0.17465465  1  0  -0.051196  0  3.797976  0  0  -0.025473  0  4.029884  0  0  -0.03263  0  4.054372  0  0  -0.02502  -0.02077  0  4.013099  0
C  C77  1  0.23696771  0.41170512  0.32513619  1  0  -0.05459  0  3.800629  0  0  -0.029037  0  4.032854  0  0  -0.036317  0  4.057494  0  0  -0.025997  -0.024243  0  4.015958  0
C  C78  1  0.05671000  0.44287438  0.80784979  1  0  -0.093897  0  3.752255  0  0  -0.120846  0  4.000455  0  0  -0.122344  0  4.021831  0  0  -0.096126  -0.119675  0  3.986509  0
C  C79  1  0.61340362  0.55722004  0.69225873  1  0  -0.091774  0  3.748079  0  0  -0.118205  0  3.996131  0  0  -0.11968  0  4.017538  0  0  -0.094986  -0.117045  0  3.982164  0
C  C80  1  0.94328502  0.55713409  0.19214859  1  0  -0.09415  0  3.752408  0  0  -0.121137  0  4.000593  0  0  -0.122637  0  4.021969  0  0  -0.096143  -0.119968  0  3.986657  0
C  C81  1  0.38661819  0.44277729  0.30774319  1  0  -0.091683  0  3.748045  0  0  -0.118144  0  3.996132  0  0  -0.119618  0  4.017522  0  0  -0.095012  -0.116987  0  3.982169  0
C  C82  1  0.08316836  0.57709897  0.82532646  1  0  -0.053293  0  3.793931  0  0  -0.063369  0  4.043945  0  0  -0.06544  0  4.0665  0  0  -0.090674  -0.061701  0  4.028541  0
C  C83  1  0.50573728  0.42303755  0.67478688  1  0  -0.053549  0  3.792226  0  0  -0.063819  0  4.042557  0  0  -0.065841  0  4.065038  0  0  -0.091152  -0.062205  0  4.027166  0
C  C84  1  0.91682717  0.42290646  0.17467277  1  0  -0.053029  0  3.793741  0  0  -0.063033  0  4.043753  0  0  -0.065102  0  4.066312  0  0  -0.090586  -0.061397  0  4.028341  0
C  C85  1  0.49427642  0.57696580  0.32521873  1  0  -0.053519  0  3.792373  0  0  -0.06383  0  4.042738  0  0  -0.065834  0  4.065228  0  0  -0.091124  -0.062216  0  4.027346  0
C  C86  1  0.22630332  0.68116876  0.85894557  1  0  -0.140885  0  3.702432  0  0  -0.163112  0  3.948038  0  0  -0.165932  0  3.968002  0  0  -0.090542  -0.16104  0  3.934121  0
C  C87  1  0.54488288  0.31882037  0.64137927  1  0  -0.138957  0  3.701437  0  0  -0.161852  0  3.94691  0  0  -0.164644  0  3.966826  0  0  -0.090712  -0.159759  0  3.932993  0
C  C88  1  0.77369120  0.31883668  0.14105298  1  0  -0.140965  0  3.702076  0  0  -0.16319  0  3.947616  0  0  -0.166019  0  3.967597  0  0  -0.090584  -0.161123  0  3.933715  0
C  C89  1  0.45512073  0.68117694  0.35862534  1  0  -0.138945  0  3.70155  0  0  -0.161861  0  3.947012  0  0  -0.164662  0  3.966934  0  0  -0.090735  -0.15977  0  3.93309  0
C  C90  1  0.15085863  0.26783279  0.80417096  1  0  0.6004  0  3.984008  0  0  0.553753  0  4.279778  0  0  0.587368  0  4.274226  0  0  0.179  0.531042  0  4.282225  0
C  C91  1  0.88240063  0.73211925  0.69596455  1  0  0.601892  0  3.984379  0  0  0.555443  0  4.279636  0  0  0.589096  0  4.274079  0  0  0.179617  0.532702  0  4.282093  0
C  C92  1  0.84913742  0.73217370  0.19582306  1  0  0.600508  0  3.983914  0  0  0.553864  0  4.27966  0  0  0.587479  0  4.274104  0  0  0.179075  0.531146  0  4.282114  0
C  C93  1  0.11762172  0.26787307  0.30403317  1  0  0.602047  0  3.984249  0  0  0.555583  0  4.279512  0  0  0.589232  0  4.273952  0  0  0.179626  0.532841  0  4.281973  0
N  N94  1  0.87574860  0.03189035  0.09962493  1  0  -0.324172  0  3.260857  0  0  -0.243844  0  3.524301  0  0  -0.265006  0  3.545004  0  0  -0.325918  -0.229512  0  3.510145  0
N  N95  1  0.84401637  0.96794306  0.40042017  1  0  -0.32339  0  3.257993  0  0  -0.2429  0  3.521128  0  0  -0.264031  0  3.541761  0  0  -0.325438  -0.228559  0  3.506967  0
N  N96  1  0.12424590  0.96811304  0.90037732  1  0  -0.324247  0  3.26089  0  0  -0.243895  0  3.524281  0  0  -0.265062  0  3.544992  0  0  -0.325906  -0.22956  0  3.510115  0
N  N97  1  0.15597566  0.03204930  0.59957486  1  0  -0.323312  0  3.25805  0  0  -0.242876  0  3.521245  0  0  -0.264005  0  3.541868  0  0  -0.325425  -0.228538  0  3.50709  0
N  N98  1  0.49209849  0.75042344  0.91211638  1  0  -0.433454  0  3.342346  0  0  -0.380944  0  3.577037  0  0  -0.401639  0  3.584858  0  0  -0.387458  -0.366637  0  3.571162  0
N  N99  1  0.74136232  0.24924938  0.58821757  1  0  -0.433873  0  3.340967  0  0  -0.382167  0  3.574717  0  0  -0.402866  0  3.582576  0  0  -0.387038  -0.367847  0  3.56881  0
N  N100  1  0.50789807  0.24958003  0.08787714  1  0  -0.433526  0  3.34206  0  0  -0.381067  0  3.576773  0  0  -0.401747  0  3.584578  0  0  -0.387509  -0.366768  0  3.5709  0
N  N101  1  0.25863478  0.75074098  0.41177511  1  0  -0.433838  0  3.34101  0  0  -0.382195  0  3.574657  0  0  -0.402842  0  3.582475  0  0  -0.387083  -0.367876  0  3.568758  0
O  O102  1  0.49605649  0.93613213  0.86972720  1  0  -0.549793  0  1.972766  0  0  -0.50125  0  2.187964  0  0  -0.522992  0  2.180135  0  0  -0.280496  -0.485859  0  2.192965  0
O  O103  1  0.56060887  0.06372435  0.63114029  1  0  -0.550191  0  1.971607  0  0  -0.502086  0  2.186274  0  0  -0.523773  0  2.178383  0  0  -0.280988  -0.486708  0  2.191309  0
O  O104  1  0.50394353  0.06388230  0.13028161  1  0  -0.54958  0  1.973353  0  0  -0.501071  0  2.18856  0  0  -0.52281  0  2.18072  0  0  -0.280355  -0.485677  0  2.193551  0
O  O105  1  0.43937812  0.93627210  0.36884869  1  0  -0.550108  0  1.971724  0  0  -0.502039  0  2.186266  0  0  -0.523728  0  2.178378  0  0  -0.280992  -0.48666  0  2.191308  0
O  O106  1  0.02392481  0.17645363  0.76127241  1  0  -0.651325  0  1.933293  0  0  -0.595812  0  2.172818  0  0  -0.62377  0  2.163431  0  0  -0.341619  -0.575737  0  2.178413  0
O  O107  1  0.84688864  0.82356340  0.73899945  1  0  -0.651326  0  1.932914  0  0  -0.596209  0  2.172623  0  0  -0.624041  0  2.163055  0  0  -0.341987  -0.576177  0  2.178245  0
O  O108  1  0.97607377  0.82355588  0.23872211  1  0  -0.65134  0  1.933286  0  0  -0.595808  0  2.172786  0  0  -0.623767  0  2.163395  0  0  -0.341624  -0.575742  0  2.178392  0
O  O109  1  0.15312917  0.17642793  0.26099608  1  0  -0.651441  0  1.932895  0  0  -0.596307  0  2.172588  0  0  -0.624152  0  2.163052  0  0  -0.342018  -0.576273  0  2.178199  0
O  O110  1  0.25737814  0.24307896  0.82823910  1  0  -0.639788  0  1.930337  0  0  -0.587481  0  2.162098  0  0  -0.613718  0  2.152668  0  0  -0.341969  -0.568763  0  2.167786  0
O  O111  1  0.01350570  0.75681117  0.67164049  1  0  -0.640396  0  1.93155  0  0  -0.587997  0  2.16329  0  0  -0.614317  0  2.153875  0  0  -0.342136  -0.569224  0  2.168961  0
O  O112  1  0.74261743  0.75692252  0.17175139  1  0  -0.639933  0  1.930397  0  0  -0.58763  0  2.162148  0  0  -0.613864  0  2.152712  0  0  -0.342061  -0.568918  0  2.167841  0
O  O113  1  0.98651865  0.24318314  0.32836025  1  0  -0.640388  0  1.931416  0  0  -0.587981  0  2.16315  0  0  -0.614299  0  2.15374  0  0  -0.342064  -0.569209  0  2.168822  0
O  O114  1  0.65551006  0.00102067  0.25023835  1  0  -0.857165  0  1.848231  0  0  -0.801721  0  2.032967  0  0  -0.821977  0  1.999164  0  0  -0.602037  -0.787254  0  2.056076  0
O  O115  1  0.34449050  0.99898270  0.74976659  1  0  -0.857203  0  1.848176  0  0  -0.801752  0  2.032909  0  0  -0.822008  0  1.999108  0  0  -0.60198  -0.787287  0  2.056021  0
