# generated using pymatgen
data_MnH4C4N3ClO2
_symmetry_space_group_name_H-M   'P 1'
_cell_length_a   8.00666167
_cell_length_b   9.51147111
_cell_length_c   11.65196159
_cell_angle_alpha   71.89023567
_cell_angle_beta   69.91462431
_cell_angle_gamma   65.09679656
_symmetry_Int_Tables_number   1
_chemical_formula_structural   MnH4C4N3ClO2
_chemical_formula_sum   'Mn4 H16 C16 N12 Cl4 O8'
_cell_volume   741.36975092
_cell_formula_units_Z   4
loop_
 _symmetry_equiv_pos_site_id
 _symmetry_equiv_pos_as_xyz
  1  'x, y, z'
loop_
 _atom_site_type_symbol
 _atom_site_label
 _atom_site_symmetry_multiplicity
 _atom_site_fract_x
 _atom_site_fract_y
 _atom_site_fract_z
 _atom_site_occupancy
 _atom_site_hle17_ddec_charge
 _atom_site_hle17_ddec_spin_density
 _atom_site_hle17_ddec_sum_bond_order
 _atom_site_hle17_magmom
 _atom_site_hse06_10hf_ddec_charge
 _atom_site_hse06_10hf_ddec_spin_density
 _atom_site_hse06_10hf_ddec_sum_bond_order
 _atom_site_hse06_10hf_magmom
 _atom_site_hse06_ddec_charge
 _atom_site_hse06_ddec_spin_density
 _atom_site_hse06_ddec_sum_bond_order
 _atom_site_hse06_magmom
 _atom_site_pbe_cm5_charge
 _atom_site_pbe_ddec_charge
 _atom_site_pbe_ddec_spin_density
 _atom_site_pbe_ddec_sum_bond_order
 _atom_site_pbe_magmom
Mn  Mn0  1  0.02506534  0.05434029  0.68976059  1  1.057558  4.786221  1.9483  4.671  0.898653  4.7132  2.459204  4.534  0.958581  4.753766  2.389871  4.594  0.50848  0.851334  4.673369  2.510174  4.476
Mn  Mn1  1  0.76909724  0.44586966  0.81011719  1  1.056708  4.790826  1.948743  4.671  0.897625  4.717668  2.459667  4.533  0.957443  4.758397  2.390468  4.594  0.508262  0.850536  4.677972  2.509973  4.476
Mn  Mn2  1  0.97493339  0.94565980  0.31023873  1  1.057561  4.786222  1.948297  4.671  0.89864  4.713198  2.459229  4.534  0.958578  4.753764  2.389869  4.594  0.508486  0.851328  4.673367  2.510182  4.476
Mn  Mn3  1  0.23090555  0.55413042  0.18988338  1  1.056747  4.790821  1.948683  4.671  0.897684  4.717664  2.459584  4.533  0.957488  4.758393  2.390408  4.594  0.508273  0.850587  4.677965  2.509906  4.476
H  H4  1  0.98079557  0.72586320  0.66313118  1  0.108072  -0.001022  0.937934  0.0  0.113005  -0.000804  1.00555  0.0  0.115862  -0.000891  1.001851  0.0  0.134738  0.110771  -0.000689  1.008376  0.0
H  H5  1  0.36977155  0.77414621  0.83696300  1  0.107956  -0.001038  0.938231  0.0  0.113221  -0.000796  1.005473  0.0  0.116107  -0.000887  1.001741  0.0  0.134986  0.11105  -0.000689  1.008195  0.0
H  H6  1  0.01920419  0.27413925  0.33686841  1  0.108099  -0.001028  0.937935  0.0  0.113032  -0.000804  1.005548  0.0  0.115888  -0.000891  1.00185  0.0  0.13475  0.110799  -0.000689  1.008374  0.0
H  H7  1  0.63022869  0.22585270  0.16303681  1  0.107986  -0.001042  0.938188  0.0  0.113224  -0.000796  1.00546  0.0  0.116108  -0.000887  1.001731  0.0  0.134983  0.111052  -0.000689  1.008184  0.0
H  H8  1  0.67890505  0.65514855  0.03811380  1  0.116343  -0.00054  0.934179  0.0  0.122259  -4e-06  1.002059  0.0  0.125401  -0.000247  0.997757  0.0  0.136901  0.11976  0.000274  1.005324  0.0
H  H9  1  0.37202117  0.84503691  0.46193486  1  0.116383  -0.000587  0.935097  0.0  0.122387  -5.6e-05  1.00278  0.0  0.125455  -0.000284  0.998636  0.0  0.137108  0.119824  0.000275  1.006148  0.0
H  H10  1  0.32109384  0.34485154  0.96188668  1  0.116309  -0.000542  0.934198  0.0  0.122242  -4e-06  1.002066  0.0  0.125384  -0.000247  0.997764  0.0  0.13691  0.119745  0.000274  1.005331  0.0
H  H11  1  0.62797807  0.15496437  0.53806459  1  0.116407  -0.00059  0.935074  0.0  0.12241  -5.6e-05  1.002755  0.0  0.125477  -0.000284  0.998611  0.0  0.137119  0.119847  0.000275  1.006122  0.0
H  H12  1  0.63095418  0.92694682  0.08006127  1  0.119256  0.000105  0.904651  0.0  0.13327  0.000726  0.963934  0.0  0.13528  0.000449  0.96266  0.0  0.12384  0.131769  0.000999  0.965011  0.001
H  H13  1  0.63765602  0.57306293  0.42002971  1  0.118257  7.1e-05  0.903888  0.0  0.13179  0.000699  0.963929  0.0  0.133758  0.000431  0.962689  0.0  0.122835  0.130267  0.000997  0.965008  0.001
H  H14  1  0.36904369  0.07305326  0.91993890  1  0.11928  0.000101  0.904673  0.0  0.133279  0.000726  0.963951  0.0  0.135297  0.000449  0.962683  0.0  0.123838  0.131767  0.000999  0.965023  0.001
H  H15  1  0.36234493  0.42693835  0.57996802  1  0.118278  7.2e-05  0.90382  0.0  0.131799  0.000699  0.963886  0.0  0.133766  0.00043  0.962645  0.0  0.122841  0.130276  0.000997  0.964965  0.001
H  H16  1  0.75355450  0.04572269  0.96151721  1  0.127039  -0.000569  0.945345  0.0  0.134963  -0.000282  1.016599  0.0  0.13746  -0.000445  1.014894  0.0  0.121885  0.133174  -0.000129  1.017848  0.0
H  H17  1  0.76066888  0.45425547  0.53853785  1  0.126783  -0.0006  0.945598  0.0  0.134829  -0.000299  1.016904  0.0  0.137288  -0.000456  1.015187  0.0  0.121427  0.133013  -0.00012  1.018187  0.0
H  H18  1  0.24644525  0.95427740  0.03848242  1  0.127082  -0.00057  0.945337  0.0  0.134987  -0.000282  1.016587  0.0  0.137491  -0.000445  1.014885  0.0  0.121897  0.133188  -0.000129  1.017832  0.0
H  H19  1  0.23933156  0.54574463  0.46145975  1  0.126739  -0.000598  0.945612  0.0  0.134789  -0.000299  1.016932  0.0  0.137246  -0.000457  1.015215  0.0  0.121404  0.132972  -0.00012  1.018215  0.0
C  C20  1  0.91392132  0.73814602  0.75938267  1  0.227486  0.002517  3.662466  0.004  0.169476  0.00575  3.945145  0.007  0.183673  0.004381  3.957115  0.006  0.161002  0.159814  0.007541  3.937068  0.008
C  C21  1  0.41142746  0.76191485  0.74069570  1  0.22959  0.00281  3.656925  0.004  0.171142  0.006046  3.93996  0.007  0.18534  0.004622  3.95188  0.006  0.161022  0.161529  0.007608  3.931772  0.008
C  C22  1  0.08607861  0.26185642  0.24061809  1  0.227411  0.002542  3.662512  0.004  0.169394  0.005749  3.945194  0.007  0.183593  0.004382  3.957162  0.006  0.160957  0.159733  0.007541  3.937117  0.008
C  C23  1  0.58857193  0.23808406  0.25930497  1  0.229588  0.002824  3.657071  0.004  0.171155  0.006045  3.940091  0.007  0.185352  0.004624  3.952013  0.006  0.161057  0.161542  0.007608  3.931903  0.008
C  C24  1  0.76019662  0.69986370  0.94888343  1  0.191538  0.003919  3.610809  0.004  0.112925  0.00666  3.872188  0.006  0.128488  0.005168  3.881684  0.005  0.175197  0.102649  0.008708  3.865793  0.008
C  C25  1  0.40882541  0.80026640  0.55117005  1  0.191339  0.004202  3.608793  0.005  0.112534  0.006965  3.870419  0.007  0.128043  0.005411  3.879965  0.006  0.173395  0.102302  0.008763  3.864011  0.008
C  C26  1  0.23980313  0.30013639  0.05111620  1  0.19164  0.003936  3.610779  0.004  0.113  0.00666  3.872167  0.006  0.128567  0.00517  3.881658  0.005  0.175217  0.102721  0.008708  3.865778  0.008
C  C27  1  0.59117331  0.19973370  0.44882926  1  0.191291  0.004224  3.608835  0.005  0.112514  0.006964  3.870464  0.007  0.128024  0.005414  3.880011  0.006  0.173386  0.102283  0.008763  3.864055  0.008
C  C28  1  0.76712648  0.92474114  0.01243914  1  -0.182881  0.003431  3.624592  0.003  -0.259851  0.004183  3.875881  0.004  -0.260959  0.003025  3.88082  0.003  -0.047488  -0.25899  0.005398  3.872979  0.004
C  C29  1  0.70411899  0.57523796  0.48762387  1  -0.180728  0.003474  3.625574  0.004  -0.257695  0.004184  3.876954  0.004  -0.258757  0.003034  3.881809  0.003  -0.04597  -0.256734  0.005387  3.873954  0.004
C  C30  1  0.23287241  0.07525895  0.98756135  1  -0.18299  0.00344  3.624734  0.003  -0.259884  0.004182  3.875904  0.004  -0.261034  0.003026  3.880899  0.003  -0.047488  -0.25897  0.005398  3.872941  0.004
C  C31  1  0.29588111  0.42476332  0.51237472  1  -0.180668  0.00347  3.625429  0.004  -0.257645  0.004183  3.876857  0.004  -0.258706  0.003036  3.881711  0.003  -0.045955  -0.256686  0.005387  3.873859  0.004
C  C32  1  0.91900149  0.86124948  0.08608424  1  0.712467  0.008196  3.845507  0.009  0.661704  0.014862  4.146644  0.015  0.696944  0.011204  4.140026  0.012  0.229897  0.636917  0.018692  4.150394  0.018
C  C33  1  0.86607494  0.63864581  0.41394708  1  0.707552  0.00818  3.850706  0.009  0.656499  0.014865  4.152512  0.015  0.691642  0.011203  4.146036  0.012  0.227204  0.631772  0.018645  4.156092  0.017
C  C34  1  0.08099877  0.13875179  0.91391553  1  0.712499  0.008193  3.845575  0.009  0.661752  0.014863  4.146665  0.015  0.697004  0.011204  4.140048  0.012  0.229903  0.636951  0.018692  4.150414  0.018
C  C35  1  0.13392566  0.36135429  0.58605169  1  0.707536  0.008182  3.850807  0.009  0.656527  0.014865  4.152543  0.015  0.691671  0.011202  4.146062  0.012  0.227211  0.6318  0.018645  4.156123  0.017
N  N36  1  0.90368367  0.85514385  0.80411809  1  -0.294155  0.022988  3.028651  0.013  -0.264498  0.029404  3.306119  0.015  -0.281814  0.026138  3.320639  0.013  -0.213818  -0.252135  0.032447  3.296508  0.017
N  N37  1  0.56284168  0.64485443  0.69596036  1  -0.296004  0.022936  3.030883  0.012  -0.265988  0.029415  3.307889  0.015  -0.283382  0.02611  3.322428  0.013  -0.214752  -0.253609  0.032471  3.29832  0.017
N  N38  1  0.09631640  0.14485623  0.19588389  1  -0.294078  0.022975  3.028543  0.013  -0.26442  0.029404  3.30601  0.015  -0.281737  0.026137  3.320527  0.013  -0.213795  -0.252059  0.032447  3.296405  0.017
N  N39  1  0.43715942  0.35514448  0.30403859  1  -0.296054  0.022932  3.030999  0.012  -0.265997  0.029417  3.308005  0.015  -0.283388  0.02611  3.322543  0.013  -0.2148  -0.253617  0.032472  3.298437  0.017
N  N40  1  0.80350385  0.82945355  0.92513286  1  0.078907  0.001267  3.57329  0.002  0.196274  0.003394  3.754578  0.004  0.187691  0.002302  3.777723  0.003  -0.129265  0.200772  0.004403  3.74061  0.005
N  N41  1  0.55793955  0.67056414  0.57494337  1  0.079139  0.001137  3.571249  0.002  0.197219  0.00327  3.751727  0.004  0.188961  0.002174  3.774169  0.003  -0.12701  0.201705  0.004423  3.737737  0.005
N  N42  1  0.19649793  0.17054654  0.07486740  1  0.078863  0.001264  3.573223  0.002  0.196219  0.003394  3.754498  0.004  0.187643  0.002301  3.777661  0.003  -0.12928  0.200704  0.004404  3.740521  0.005
N  N43  1  0.44206155  0.32943477  0.42505558  1  0.079206  0.001119  3.571136  0.002  0.197194  0.003271  3.751722  0.004  0.188932  0.002172  3.774172  0.003  -0.126999  0.201681  0.004423  3.737732  0.005
N  N44  1  0.82680860  0.64008300  0.84553727  1  -0.385304  0.026624  3.178376  0.017  -0.319545  0.0321  3.472203  0.018  -0.342373  0.028421  3.483247  0.016  -0.327761  -0.303278  0.035416  3.464347  0.021
N  N45  1  0.31238774  0.86008008  0.65452053  1  -0.385888  0.026506  3.171656  0.016  -0.32062  0.032061  3.466516  0.018  -0.343431  0.028364  3.477484  0.015  -0.327286  -0.304287  0.035372  3.45854  0.021
N  N46  1  0.17318979  0.35991826  0.15446304  1  -0.385366  0.026606  3.178387  0.017  -0.319602  0.0321  3.472223  0.018  -0.342428  0.02842  3.483263  0.016  -0.327774  -0.303334  0.035416  3.464368  0.021
N  N47  1  0.68761099  0.13992001  0.34547879  1  -0.385903  0.026499  3.171761  0.016  -0.320599  0.032061  3.46657  0.018  -0.343413  0.028364  3.477541  0.015  -0.327268  -0.304267  0.035372  3.458595  0.021
Cl  Cl48  1  0.99999973  0.00000086  0.49999892  1  -0.600605  0.079426  1.083486  0.042  -0.551122  0.107344  1.40822  0.05  -0.574563  0.093783  1.377985  0.041  -0.241685  -0.531482  0.120231  1.429752  0.06
Cl  Cl49  1  0.49999944  0.50000055  0.99999993  1  -0.600698  0.079476  1.082445  0.042  -0.551124  0.107405  1.406762  0.051  -0.574572  0.093783  1.37657  0.041  -0.241895  -0.531455  0.120162  1.428001  0.06
Cl  Cl50  1  0.68258974  0.25007674  0.74995637  1  -0.616284  0.074256  0.922776  0.042  -0.570612  0.103827  1.213502  0.053  -0.591056  0.089835  1.182898  0.043  -0.273783  -0.553624  0.117049  1.235329  0.062
Cl  Cl51  1  0.31741086  0.74992335  0.25004241  1  -0.616292  0.074257  0.922758  0.042  -0.570625  0.103828  1.213492  0.053  -0.591071  0.089839  1.18289  0.043  -0.273787  -0.553634  0.11705  1.235318  0.062
O  O52  1  0.89754088  0.95549102  0.15100754  1  -0.645247  0.035168  2.091957  0.025  -0.574156  0.042795  2.358853  0.029  -0.606924  0.037574  2.347181  0.024  -0.310697  -0.54964  0.047774  2.365962  0.034
O  O53  1  0.00357784  0.54448844  0.34890312  1  -0.64168  0.035051  2.091484  0.025  -0.570636  0.042691  2.358526  0.029  -0.603253  0.037467  2.346771  0.024  -0.309049  -0.546247  0.047653  2.36564  0.034
O  O54  1  0.10245735  0.04451025  0.84899160  1  -0.645228  0.035168  2.091978  0.025  -0.57415  0.042794  2.358847  0.029  -0.606929  0.037575  2.347202  0.024  -0.310692  -0.549635  0.047774  2.365963  0.034
O  O55  1  0.99642292  0.45551164  0.65109682  1  -0.641711  0.035052  2.091589  0.025  -0.570665  0.042691  2.358592  0.029  -0.603285  0.037466  2.346836  0.024  -0.309071  -0.546275  0.047653  2.365704  0.034
O  O56  1  0.04347836  0.72588501  0.07853816  1  -0.62243  0.032532  2.066317  0.022  -0.56334  0.040069  2.334356  0.026  -0.594252  0.034994  2.322346  0.022  -0.305  -0.540302  0.044979  2.341791  0.031
O  O57  1  0.84778763  0.77394429  0.42160552  1  -0.621125  0.032485  2.063607  0.022  -0.561742  0.040033  2.331456  0.026  -0.592664  0.034951  2.319488  0.022  -0.304528  -0.538675  0.044949  2.338903  0.031
O  O58  1  0.95652086  0.27411506  0.92146467  1  -0.622436  0.032533  2.066336  0.022  -0.563347  0.040069  2.334344  0.026  -0.594257  0.034993  2.322326  0.022  -0.304997  -0.540313  0.044978  2.341787  0.031
O  O59  1  0.15221399  0.22605580  0.57839357  1  -0.621137  0.032486  2.06365  0.022  -0.561753  0.040032  2.33145  0.026  -0.592679  0.034952  2.319496  0.022  -0.304521  -0.538684  0.044948  2.338896  0.031
