# generated using pymatgen
data_CsH5C6O
_symmetry_space_group_name_H-M   'P 1'
_cell_length_a   7.72349165
_cell_length_b   14.64347425
_cell_length_c   18.26267802
_cell_angle_alpha   90.00005663
_cell_angle_beta   89.99994804
_cell_angle_gamma   89.99991835
_symmetry_Int_Tables_number   1
_chemical_formula_structural   CsH5C6O
_chemical_formula_sum   'Cs12 H60 C72 O12'
_cell_volume   2065.48607487
_cell_formula_units_Z   12
loop_
 _symmetry_equiv_pos_site_id
 _symmetry_equiv_pos_as_xyz
  1  'x, y, z'
loop_
 _atom_site_type_symbol
 _atom_site_label
 _atom_site_symmetry_multiplicity
 _atom_site_fract_x
 _atom_site_fract_y
 _atom_site_fract_z
 _atom_site_occupancy
 _atom_site_pbe_bader_charge
 _atom_site_pbe_bader_spin_density
 _atom_site_pbe_cm5_charge
 _atom_site_pbe_ddec_charge
 _atom_site_pbe_ddec_spin_density
 _atom_site_pbe_ddec_sum_bond_order
 _atom_site_pbe_magmom
Cs  Cs0  1  0.24175995  0.46602146  0.50654304  1  0.873061  0  0.882906  0.855907  0  1.054479  0
Cs  Cs1  1  0.74176042  0.53397850  0.49345727  1  0.873052  0  0.882922  0.855916  0  1.054495  0
Cs  Cs2  1  0.74175772  0.03397868  0.00654272  1  0.873047  0  0.882928  0.855931  0  1.054476  0
Cs  Cs3  1  0.24175876  0.96602196  0.99345650  1  0.87305  0  0.882931  0.855935  0  1.054461  0
Cs  Cs4  1  0.10492818  0.53448260  0.30419216  1  0.861327  0  0.820538  0.870987  0  0.920854  0
Cs  Cs5  1  0.60492581  0.46551951  0.69580821  1  0.861308  0  0.820521  0.87097  0  0.920847  0
Cs  Cs6  1  0.60492761  0.96551772  0.80419119  1  0.861337  0  0.820531  0.870974  0  0.920865  0
Cs  Cs7  1  0.10492379  0.03448029  0.19580808  1  0.861308  0  0.820529  0.870977  0  0.920864  0
Cs  Cs8  1  0.10423753  0.69858319  0.60787003  1  0.863428  0  0.808634  0.868844  0  0.867298  0
Cs  Cs9  1  0.60423884  0.30141551  0.39213034  1  0.863396  0  0.808632  0.868861  0  0.867273  0
Cs  Cs10  1  0.60423847  0.80141689  0.10787047  1  0.863418  0  0.808628  0.868848  0  0.86729  0
Cs  Cs11  1  0.10423791  0.19858317  0.89213099  1  0.86343  0  0.808641  0.868847  0  0.867291  0
H  H12  1  0.36710465  0.67009178  0.40787685  1  0.055209  0  0.09958  0.095842  0  1.066025  0
H  H13  1  0.86711063  0.32990945  0.59212451  1  0.05517  0  0.099611  0.095905  0  1.065906  0
H  H14  1  0.86710703  0.82991189  0.90787687  1  0.055107  0  0.099596  0.095907  0  1.065955  0
H  H15  1  0.36710307  0.17008865  0.09212504  1  0.055171  0  0.099595  0.095876  0  1.066006  0
H  H16  1  0.47751568  0.82315853  0.37112269  1  0.031872  0  0.093688  0.085869  0  1.010117  0
H  H17  1  0.97751941  0.17684193  0.62888027  1  0.031826  0  0.09366  0.085827  0  1.01013  0
H  H18  1  0.97752365  0.67684501  0.87112205  1  0.031832  0  0.093659  0.085832  0  1.010111  0
H  H19  1  0.47751920  0.32315477  0.12887927  1  0.031867  0  0.09365  0.085836  0  1.010051  0
H  H20  1  0.27958818  0.95808014  0.36933663  1  0.05301  0  0.086624  0.077464  0  1.078577  0
H  H21  1  0.77959097  0.04192116  0.63066477  1  0.05305  0  0.08665  0.077448  0  1.078597  0
H  H22  1  0.77959781  0.54192287  0.86933642  1  0.053098  0  0.086595  0.077369  0  1.078519  0
H  H23  1  0.27959299  0.45807774  0.13066278  1  0.053036  0  0.086591  0.077398  0  1.078536  0
H  H24  1  0.96810190  0.93672499  0.40122119  1  0.057172  0  0.093535  0.085027  0  1.026365  0
H  H25  1  0.46810751  0.06327479  0.59877959  1  0.057214  0  0.093529  0.085019  0  1.026364  0
H  H26  1  0.46811428  0.56327586  0.90122119  1  0.057258  0  0.093537  0.085026  0  1.026405  0
H  H27  1  0.96811067  0.43672529  0.09877685  1  0.05722  0  0.093538  0.085032  0  1.026347  0
H  H28  1  0.85709787  0.78333727  0.43659110  1  0.002376  0  0.094344  0.097216  0  1.042375  0
H  H29  1  0.35709925  0.21666328  0.56340862  1  0.002423  0  0.094347  0.097217  0  1.042379  0
H  H30  1  0.35709818  0.71666302  0.93659122  1  0.002419  0  0.094359  0.09724  0  1.042369  0
H  H31  1  0.85709506  0.28333821  0.06340795  1  0.00238  0  0.094341  0.097205  0  1.042383  0
H  H32  1  0.03820207  0.24853216  0.49077587  1  0.028334  0  0.095856  0.097804  0  1.063202  0
H  H33  1  0.53820191  0.75147000  0.50922343  1  0.028311  0  0.095865  0.097839  0  1.063191  0
H  H34  1  0.53819819  0.25146669  0.99077528  1  0.028469  0  0.095853  0.097795  0  1.063178  0
H  H35  1  0.03820320  0.74853069  0.00922292  1  0.028328  0  0.095853  0.097805  0  1.063175  0
H  H36  1  0.22596321  0.11538129  0.46335209  1  0.046477  0  0.099211  0.098652  0  0.992662  0
H  H37  1  0.72596652  0.88462004  0.53664604  1  0.046416  0  0.099213  0.098657  0  0.992604  0
H  H38  1  0.72596286  0.38461670  0.96335435  1  0.046471  0  0.099206  0.098654  0  0.992609  0
H  H39  1  0.22596947  0.61538122  0.03664707  1  0.046431  0  0.09923  0.098657  0  0.992659  0
H  H40  1  0.36199640  0.09819262  0.33965716  1  0.046855  0  0.088968  0.085828  0  1.083814  0
H  H41  1  0.86200458  0.90180725  0.66034037  1  0.046863  0  0.088966  0.085825  0  1.083844  0
H  H42  1  0.86200118  0.40180580  0.83965998  1  0.046909  0  0.088944  0.085812  0  1.083843  0
H  H43  1  0.36200369  0.59819339  0.16034084  1  0.046826  0  0.088967  0.085813  0  1.083816  0
H  H44  1  0.29396365  0.21398751  0.24260629  1  0.054208  0  0.09106  0.079327  0  1.066694  0
H  H45  1  0.79397064  0.78601173  0.75739182  1  0.054224  0  0.091059  0.079329  0  1.066664  0
H  H46  1  0.79397133  0.28601220  0.74260846  1  0.054207  0  0.091075  0.079373  0  1.06663  0
H  H47  1  0.29396814  0.71398840  0.25739238  1  0.054223  0  0.091055  0.079328  0  1.066708  0
H  H48  1  0.09751992  0.34011614  0.26667404  1  0.035721  0  0.088624  0.083324  0  1.070744  0
H  H49  1  0.59751694  0.65988598  0.73332524  1  0.035756  0  0.088591  0.083259  0  1.070836  0
H  H50  1  0.59752146  0.15988580  0.76667283  1  0.03573  0  0.088623  0.083334  0  1.070707  0
H  H51  1  0.09751669  0.84011358  0.23332480  1  0.035748  0  0.088615  0.083315  0  1.070847  0
H  H52  1  0.00035446  0.58587373  0.75489773  1  0.010217  0  0.094679  0.087585  0  1.059663  0
H  H53  1  0.50034930  0.41412436  0.24510267  1  0.01022  0  0.094633  0.087578  0  1.059678  0
H  H54  1  0.50035250  0.91412730  0.25489771  1  0.010176  0  0.094679  0.08757  0  1.059649  0
H  H55  1  0.00034997  0.08587421  0.74510105  1  0.010255  0  0.094656  0.08756  0  1.059661  0
H  H56  1  0.17220156  0.53433951  0.86122491  1  0.052795  0  0.099142  0.095606  0  0.997258  0
H  H57  1  0.67219649  0.46565982  0.13877543  1  0.052779  0  0.099135  0.095562  0  0.997297  0
H  H58  1  0.67219947  0.96566220  0.36122438  1  0.052814  0  0.099154  0.095616  0  0.997282  0
H  H59  1  0.17219730  0.03433713  0.63877486  1  0.052766  0  0.09916  0.095615  0  0.997286  0
H  H60  1  0.33319502  0.38579956  0.85732506  1  0.045335  0  0.094706  0.09148  0  1.051676  0
H  H61  1  0.83319083  0.61419896  0.14267576  1  0.04539  0  0.094674  0.091363  0  1.051706  0
H  H62  1  0.83319516  0.11420163  0.35732371  1  0.04536  0  0.094666  0.091364  0  1.051717  0
H  H63  1  0.33319328  0.88579894  0.64267547  1  0.045358  0  0.094705  0.091453  0  1.051692  0
H  H64  1  0.30970978  0.28820381  0.74499320  1  0.062554  0  0.100412  0.091231  0  1.024067  0
H  H65  1  0.80970638  0.71179542  0.25500763  1  0.062591  0  0.100419  0.091195  0  1.024136  0
H  H66  1  0.80970836  0.21179726  0.24499138  1  0.062557  0  0.100399  0.091195  0  1.024084  0
H  H67  1  0.30970780  0.78820401  0.75500836  1  0.062583  0  0.100383  0.09115  0  1.024081  0
H  H68  1  0.13727097  0.33825682  0.63929299  1  0.023687  0  0.098722  0.100867  0  1.035724  0
H  H69  1  0.63726879  0.66174117  0.36070901  1  0.023657  0  0.098685  0.100835  0  1.035721  0
H  H70  1  0.63726970  0.16174288  0.13929222  1  0.023678  0  0.098696  0.100845  0  1.035723  0
H  H71  1  0.13727006  0.83826057  0.86070704  1  0.023418  0  0.098684  0.10086  0  1.035718  0
C  C72  1  0.10391143  0.71465303  0.42598708  1  0.637638  0  0.001645  0.318053  0  4.278565  0
C  C73  1  0.60391628  0.28534634  0.57401439  1  0.637642  0  0.001692  0.318055  0  4.278622  0
C  C74  1  0.60391782  0.78534881  0.92598597  1  0.636696  0  0.001768  0.3182  0  4.278574  0
C  C75  1  0.10391118  0.21465194  0.07401440  1  0.637587  0  0.001729  0.318228  0  4.278575  0
C  C76  1  0.28034847  0.72904162  0.40607595  1  -0.161512  0  -0.138198  -0.262982  0  4.006232  0
C  C77  1  0.78035202  0.27095899  0.59392599  1  -0.161561  0  -0.138196  -0.263005  0  4.005992  0
C  C78  1  0.78034972  0.77096280  0.90607592  1  -0.160613  0  -0.138247  -0.263105  0  4.006208  0
C  C79  1  0.28034689  0.22903849  0.09392547  1  -0.161542  0  -0.138212  -0.26306  0  4.006103  0
C  C80  1  0.34106962  0.81499386  0.38561676  1  -0.008302  0  -0.100274  -0.058059  0  4.07295  0
C  C81  1  0.84107076  0.18500534  0.61438516  1  -0.008243  0  -0.100234  -0.05798  0  4.07282  0
C  C82  1  0.84106980  0.68500843  0.88561721  1  -0.008209  0  -0.100233  -0.057971  0  4.072737  0
C  C83  1  0.34106670  0.31499213  0.11438416  1  -0.008208  0  -0.100272  -0.05804  0  4.0727  0
C  C84  1  0.23062336  0.89071159  0.38393633  1  -0.106766  0  -0.13055  -0.168317  0  4.093647  0
C  C85  1  0.73061952  0.10928838  0.61606344  1  -0.106846  0  -0.130578  -0.168319  0  4.093825  0
C  C86  1  0.73062115  0.60929010  0.88394001  1  -0.106817  0  -0.130459  -0.168213  0  4.093688  0
C  C87  1  0.23062043  0.39071054  0.11606140  1  -0.106789  0  -0.130477  -0.168255  0  4.093703  0
C  C88  1  0.05597954  0.87824946  0.40231592  1  -0.143416  0  -0.105032  -0.077528  0  4.100694  0
C  C89  1  0.55598478  0.12175064  0.59768337  1  -0.143466  0  -0.105  -0.077462  0  4.10083  0
C  C90  1  0.55598508  0.62175102  0.90231906  1  -0.143791  0  -0.105073  -0.077519  0  4.100859  0
C  C91  1  0.05598184  0.37824907  0.09768242  1  -0.143773  0  -0.105037  -0.07747  0  4.100814  0
C  C92  1  0.99312961  0.79253175  0.42218793  1  -0.024647  0  -0.132498  -0.248684  0  4.005604  0
C  C93  1  0.49313617  0.20746938  0.57781174  1  -0.024643  0  -0.132616  -0.248814  0  4.005707  0
C  C94  1  0.49313642  0.70746910  0.92218859  1  -0.02432  0  -0.132619  -0.248848  0  4.005641  0
C  C95  1  0.99313454  0.29253135  0.07781108  1  -0.024333  0  -0.132586  -0.248836  0  4.005789  0
C  C96  1  0.05687501  0.30930454  0.38272930  1  0.655201  0  0.016269  0.318678  0  4.271797  0
C  C97  1  0.55687608  0.69069760  0.61726835  1  0.655144  0  0.016281  0.318728  0  4.271678  0
C  C98  1  0.55687776  0.19069552  0.88272921  1  0.655028  0  0.016237  0.318653  0  4.271777  0
C  C99  1  0.05687591  0.80930253  0.11726898  1  0.655213  0  0.016273  0.318713  0  4.271719  0
C  C100  1  0.09583151  0.24104344  0.43649083  1  -0.078364  0  -0.137749  -0.269449  0  4.01176  0
C  C101  1  0.59583381  0.75895663  0.56350790  1  -0.078323  0  -0.137792  -0.269533  0  4.011739  0
C  C102  1  0.59583150  0.25895529  0.93649079  1  -0.078519  0  -0.137716  -0.269351  0  4.011695  0
C  C103  1  0.09583512  0.74104341  0.06350903  1  -0.078378  0  -0.137767  -0.269462  0  4.011648  0
C  C104  1  0.20033747  0.16591846  0.42071105  1  -0.080611  0  -0.107077  -0.06522  0  4.095991  0
C  C105  1  0.70034342  0.83408153  0.57928764  1  -0.080513  0  -0.107036  -0.065199  0  4.095825  0
C  C106  1  0.70034373  0.33407949  0.92071217  1  -0.080554  0  -0.10711  -0.065346  0  4.095927  0
C  C107  1  0.20034493  0.66591776  0.07928816  1  -0.080572  0  -0.10708  -0.06524  0  4.09597  0
C  C108  1  0.27479611  0.15491349  0.35131705  1  -0.152881  0  -0.175518  -0.222732  0  4.169398  0
C  C109  1  0.77480447  0.84508508  0.64868216  1  -0.152972  0  -0.175521  -0.222716  0  4.169396  0
C  C110  1  0.77480105  0.34508432  0.85131927  1  -0.152989  0  -0.175483  -0.222662  0  4.169404  0
C  C111  1  0.27480084  0.65491288  0.14868103  1  -0.15294  0  -0.175541  -0.222721  0  4.169406  0
C  C112  1  0.23742827  0.21994175  0.29724177  1  -0.131469  0  -0.148828  -0.116961  0  4.167051  0
C  C113  1  0.73743021  0.78005821  0.70275745  1  -0.131435  0  -0.148839  -0.116978  0  4.167164  0
C  C114  1  0.73743338  0.28005875  0.79724230  1  -0.131463  0  -0.14883  -0.116973  0  4.166845  0
C  C115  1  0.23742770  0.71994189  0.20275802  1  -0.131396  0  -0.148818  -0.116943  0  4.167028  0
C  C116  1  0.12899922  0.29376171  0.31155900  1  -0.052623  0  -0.140342  -0.247499  0  4.007028  0
C  C117  1  0.62900010  0.70623969  0.68844026  1  -0.052636  0  -0.140303  -0.247424  0  4.007076  0
C  C118  1  0.62900452  0.20623684  0.81156002  1  -0.052434  0  -0.140324  -0.247498  0  4.006843  0
C  C119  1  0.12899867  0.79376115  0.18844034  1  -0.052658  0  -0.14033  -0.247501  0  4.007067  0
C  C120  1  0.05767980  0.46846437  0.68631737  1  0.706058  0  0.025185  0.330409  0  4.252286  0
C  C121  1  0.55767677  0.53153505  0.31368301  1  0.706553  0  0.025195  0.330461  0  4.252127  0
C  C122  1  0.55768017  0.03153614  0.18631595  1  0.706667  0  0.025173  0.330385  0  4.252198  0
C  C123  1  0.05767899  0.96846601  0.81368334  1  0.706199  0  0.025139  0.33034  0  4.252178  0
C  C124  1  0.07043167  0.52108306  0.75219984  1  -0.111304  0  -0.136251  -0.267775  0  4.014071  0
C  C125  1  0.57043151  0.47891361  0.24780054  1  -0.111926  0  -0.136226  -0.267839  0  4.014002  0
C  C126  1  0.57043342  0.97891654  0.25219878  1  -0.111878  0  -0.136216  -0.267703  0  4.013942  0
C  C127  1  0.07042976  0.02108423  0.74779996  1  -0.111924  0  -0.136216  -0.267702  0  4.013966  0
C  C128  1  0.16643874  0.49148012  0.81229779  1  -0.122268  0  -0.0977  -0.057423  0  4.084562  0
C  C129  1  0.66643604  0.50851853  0.18770146  1  -0.122306  0  -0.09769  -0.057325  0  4.084414  0
C  C130  1  0.66643917  0.00852046  0.31229799  1  -0.122274  0  -0.097719  -0.057458  0  4.084587  0
C  C131  1  0.16643690  0.99147887  0.68770125  1  -0.122265  0  -0.097743  -0.05746  0  4.084594  0
C  C132  1  0.25439259  0.40772742  0.81093868  1  -0.083907  0  -0.162876  -0.214063  0  4.156208  0
C  C133  1  0.75438708  0.59227048  0.18906163  1  -0.083845  0  -0.162857  -0.214011  0  4.156004  0
C  C134  1  0.75439021  0.09227241  0.31093786  1  -0.083868  0  -0.162808  -0.213932  0  4.156147  0
C  C135  1  0.25438817  0.90772822  0.68906136  1  -0.084147  0  -0.162835  -0.214072  0  4.156252  0
C  C136  1  0.24092991  0.35342674  0.74784441  1  -0.1375  0  -0.143833  -0.117472  0  4.163627  0
C  C137  1  0.74092541  0.64657253  0.25215755  1  -0.137419  0  -0.143843  -0.117422  0  4.16338  0
C  C138  1  0.74092738  0.14657301  0.24784254  1  -0.137437  0  -0.143858  -0.117465  0  4.163473  0
C  C139  1  0.24092535  0.85342763  0.75215668  1  -0.137134  0  -0.143838  -0.117351  0  4.163347  0
C  C140  1  0.14558964  0.38230240  0.68738124  1  -0.062535  0  -0.137245  -0.245195  0  3.99215  0
C  C141  1  0.64559026  0.61769626  0.31262076  1  -0.062662  0  -0.137179  -0.24513  0  3.991893  0
C  C142  1  0.64558848  0.11769667  0.18737989  1  -0.062647  0  -0.1372  -0.245151  0  3.992055  0
C  C143  1  0.14559013  0.88230473  0.81261992  1  -0.062356  0  -0.137157  -0.245129  0  3.991986  0
O  O144  1  0.04827606  0.63422680  0.44794824  1  -1.251394  0  -0.712587  -0.774619  0  2.325245  0
O  O145  1  0.54828462  0.36577126  0.55205215  1  -1.251362  0  -0.712565  -0.774602  0  2.325321  0
O  O146  1  0.54827834  0.86577306  0.94794829  1  -1.251435  0  -0.712596  -0.774648  0  2.325247  0
O  O147  1  0.04827586  0.13422704  0.05205265  1  -1.251412  0  -0.712579  -0.774636  0  2.325209  0
O  O148  1  0.96206523  0.38121133  0.39793394  1  -1.249404  0  -0.635679  -0.747911  0  2.240566  0
O  O149  1  0.46206156  0.61879119  0.60206629  1  -1.249398  0  -0.635698  -0.747946  0  2.240518  0
O  O150  1  0.46206321  0.11878913  0.89793179  1  -1.249442  0  -0.635694  -0.74793  0  2.240535  0
O  O151  1  0.96206228  0.88120861  0.10206625  1  -1.249397  0  -0.63567  -0.747918  0  2.240529  0
O  O152  1  0.97112808  0.49750901  0.62917882  1  -1.243572  0  -0.632093  -0.754118  0  2.279258  0
O  O153  1  0.47112652  0.50248941  0.37082086  1  -1.243477  0  -0.632102  -0.754141  0  2.27923  0
O  O154  1  0.47112486  0.00249111  0.12917812  1  -1.243576  0  -0.632128  -0.754157  0  2.279249  0
O  O155  1  0.97112456  0.99751072  0.87082156  1  -1.24319  0  -0.632109  -0.754136  0  2.279237  0
