# generated using pymatgen
data_CdH8C8S2(NCl)2
_symmetry_space_group_name_H-M   'P 1'
_cell_length_a   6.98968026
_cell_length_b   9.30015118
_cell_length_c   10.30345086
_cell_angle_alpha   111.68688739
_cell_angle_beta   106.21688301
_cell_angle_gamma   94.18076264
_symmetry_Int_Tables_number   1
_chemical_formula_structural   CdH8C8S2(NCl)2
_chemical_formula_sum   'Cd2 H16 C16 S4 N4 Cl4'
_cell_volume   585.84911305
_cell_formula_units_Z   2
loop_
 _symmetry_equiv_pos_site_id
 _symmetry_equiv_pos_as_xyz
  1  'x, y, z'
loop_
 _atom_site_type_symbol
 _atom_site_label
 _atom_site_symmetry_multiplicity
 _atom_site_fract_x
 _atom_site_fract_y
 _atom_site_fract_z
 _atom_site_occupancy
 _atom_site_hle17_bader_spin_density
 _atom_site_hle17_ddec_charge
 _atom_site_hle17_ddec_spin_density
 _atom_site_hle17_ddec_sum_bond_order
 _atom_site_hle17_magmom
 _atom_site_hse06_10hf_bader_spin_density
 _atom_site_hse06_10hf_ddec_charge
 _atom_site_hse06_10hf_ddec_spin_density
 _atom_site_hse06_10hf_ddec_sum_bond_order
 _atom_site_hse06_10hf_magmom
 _atom_site_hse06_bader_spin_density
 _atom_site_hse06_ddec_charge
 _atom_site_hse06_ddec_spin_density
 _atom_site_hse06_ddec_sum_bond_order
 _atom_site_hse06_magmom
 _atom_site_pbe_bader_spin_density
 _atom_site_pbe_cm5_charge
 _atom_site_pbe_ddec_charge
 _atom_site_pbe_ddec_spin_density
 _atom_site_pbe_ddec_sum_bond_order
 _atom_site_pbe_magmom
Cd  Cd0  1  0.75095035  0.91651331  0.52327343  1  0  0.984484  0  1.885923  0  0  0.820838  0  2.339266  0  0  0.867847  0  2.299058  0  0  0.596802  0.787916  0  2.366573  0
Cd  Cd1  1  0.24904967  0.08348709  0.47672702  1  0  0.984481  0  1.885911  0  0  0.820834  0  2.339251  0  0  0.867845  0  2.299044  0  0  0.596797  0.787911  0  2.366561  0
H  H2  1  0.90885482  0.67364353  0.21154879  1  0  0.132512  0  0.958496  0  0  0.146683  0  1.030666  0  0  0.148933  0  1.029793  0  0  0.087968  0.145292  0  1.03086  0
H  H3  1  0.09114102  0.32635208  0.78844642  1  0  0.132474  0  0.958527  0  0  0.146644  0  1.030707  0  0  0.148895  0  1.029832  0  0  0.087922  0.145253  0  1.030899  0
H  H4  1  0.64112924  0.64328091  0.14675371  1  0  0.129031  0  0.945605  0  0  0.145814  0  1.012123  0  0  0.147871  0  1.011498  0  0  0.091674  0.144838  0  1.011751  0
H  H5  1  0.35886649  0.35671357  0.85324693  1  0  0.129048  0  0.945641  0  0  0.145833  0  1.012171  0  0  0.147878  0  1.01156  0  0  0.091671  0.14486  0  1.011796  0
H  H6  1  0.76469445  0.48263678  0.07960416  1  0  0.123489  0  0.931989  0  0  0.147526  0  0.984356  0  0  0.149582  0  0.983257  0  0  0.09278  0.146035  0  0.984908  0
H  H7  1  0.23529840  0.51735879  0.92039050  1  0  0.123493  0  0.931963  0  0  0.147561  0  0.9843  0  0  0.14962  0  0.983198  0  0  0.092796  0.146067  0  0.984859  0
H  H8  1  0.74190440  0.32480583  0.51227209  1  0  0.154273  0  0.979457  0  0  0.158543  0  1.047607  0  0  0.162131  0  1.045624  0  0  0.098708  0.155743  0  1.049642  0
H  H9  1  0.25809539  0.67519340  0.48772987  1  0  0.154239  0  0.979484  0  0  0.158529  0  1.047616  0  0  0.162118  0  1.04563  0  0  0.098697  0.15573  0  1.049649  0
H  H10  1  0.76812060  0.49068199  0.77571833  1  0  0.153512  0  0.96405  0  0  0.162822  0  1.023437  0  0  0.166208  0  1.021968  0  0  0.103868  0.160314  0  1.024548  0
H  H11  1  0.23188350  0.50932317  0.22428443  1  0  0.15353  0  0.963999  0  0  0.162867  0  1.023362  0  0  0.166252  0  1.02189  0  0  0.103885  0.16036  0  1.024476  0
H  H12  1  0.54716695  0.06167792  0.86486407  1  0  0.13859  0  0.952877  0  0  0.155176  0  1.020182  0  0  0.157369  0  1.019423  0  0  0.085797  0.153591  0  1.020517  0
H  H13  1  0.45283536  0.93832603  0.13513700  1  0  0.138554  0  0.952955  0  0  0.155153  0  1.020248  0  0  0.157347  0  1.019489  0  0  0.085775  0.153565  0  1.020586  0
H  H14  1  0.81039400  0.13426852  0.91812843  1  0  0.123808  0  0.970002  0  0  0.138585  0  1.040156  0  0  0.140556  0  1.039758  0  0  0.083978  0.136994  0  1.040583  0
H  H15  1  0.18960834  0.86573543  0.08187362  1  0  0.123817  0  0.97003  0  0  0.138589  0  1.040184  0  0  0.14056  0  1.039788  0  0  0.083986  0.136999  0  1.040608  0
H  H16  1  0.71415635  0.07514714  0.03817198  1  0  0.117386  0  0.976143  0  0  0.132272  0  1.046974  0  0  0.134234  0  1.04665  0  0  0.081874  0.130555  0  1.047814  0
H  H17  1  0.28584565  0.92485562  0.96182767  1  0  0.117373  0  0.976153  0  0  0.132246  0  1.047007  0  0  0.134208  0  1.046684  0  0  0.081865  0.13053  0  1.047845  0
C  C18  1  0.76918152  0.58676390  0.17691214  1  0  -0.377951  0  3.745055  0  0  -0.45903  0  3.989967  0  0  -0.463046  0  3.996341  0  0  -0.24519  -0.455977  0  3.984292  0
C  C19  1  0.23081382  0.41322936  0.82308415  1  0  -0.377952  0  3.745113  0  0  -0.459061  0  3.990006  0  0  -0.463073  0  3.996394  0  0  -0.245153  -0.456026  0  3.984353  0
C  C20  1  0.76044021  0.54316185  0.30041300  1  0  0.244174  0  3.702891  0  0  0.240988  0  3.987561  0  0  0.253313  0  4.004455  0  0  0.122012  0.233318  0  3.975189  0
C  C21  1  0.23955629  0.45683615  0.69958700  1  0  0.244199  0  3.702726  0  0  0.241012  0  3.987413  0  0  0.253343  0  4.004302  0  0  0.121997  0.233345  0  3.975034  0
C  C22  1  0.74924557  0.40983190  0.46337564  1  0  -0.21889  0  3.617464  0  0  -0.244132  0  3.89535  0  0  -0.246917  0  3.912245  0  0  -0.099152  -0.243752  0  3.8859  0
C  C23  1  0.25075749  0.59016855  0.53662731  1  0  -0.21884  0  3.617498  0  0  -0.24411  0  3.895347  0  0  -0.246894  0  3.912241  0  0  -0.099159  -0.243729  0  3.885894  0
C  C24  1  0.74840913  0.56896550  0.52292327  1  0  0.149674  0  3.855894  0  0  0.14604  0  4.106714  0  0  0.15001  0  4.129429  0  0  0.078647  0.143249  0  4.091303  0
C  C25  1  0.25159240  0.43103492  0.47707843  1  0  0.149649  0  3.855911  0  0  0.146046  0  4.106692  0  0  0.150022  0  4.129411  0  0  0.078663  0.143252  0  4.091285  0
C  C26  1  0.74378286  0.66112742  0.67063344  1  0  0.163125  0  3.867057  0  0  0.157221  0  4.122394  0  0  0.162658  0  4.144371  0  0  0.082388  0.154109  0  4.106664  0
C  C27  1  0.25621618  0.33887531  0.32936664  1  0  0.163093  0  3.867115  0  0  0.157193  0  4.122436  0  0  0.162608  0  4.144436  0  0  0.082375  0.154083  0  4.106711  0
C  C28  1  0.75831273  0.60884005  0.78134432  1  0  -0.261018  0  3.66359  0  0  -0.28666  0  3.944105  0  0  -0.291216  0  3.962088  0  0  -0.108993  -0.282481  0  3.930581  0
C  C29  1  0.24169054  0.39116156  0.21865711  1  0  -0.261033  0  3.663625  0  0  -0.286682  0  3.944076  0  0  -0.291248  0  3.962117  0  0  -0.108994  -0.282496  0  3.930538  0
C  C30  1  0.72667939  0.88513171  0.84765225  1  0  0.263689  0  3.687207  0  0  0.26104  0  3.968737  0  0  0.274425  0  3.984299  0  0  0.128688  0.251375  0  3.95926  0
C  C31  1  0.27332295  0.11487224  0.15234979  1  0  0.263795  0  3.687121  0  0  0.261141  0  3.968667  0  0  0.274528  0  3.984226  0  0  0.128749  0.251474  0  3.959194  0
C  C32  1  0.69871307  0.04852184  0.92251496  1  0  -0.382836  0  3.733894  0  0  -0.462523  0  3.975603  0  0  -0.4673  0  3.9824  0  0  -0.251789  -0.458913  0  3.971649  0
C  C33  1  0.30128866  0.95147974  0.07748425  1  0  -0.38282  0  3.733882  0  0  -0.462514  0  3.975589  0  0  -0.467292  0  3.982388  0  0  -0.251786  -0.458901  0  3.971632  0
S  S34  1  0.75933820  0.35386129  0.28906446  1  0  0.160062  0  2.713665  0  0  0.170061  0  3.055655  0  0  0.166748  0  3.064891  0  0  0.125406  0.170398  0  3.050245  0
S  S35  1  0.24066187  0.64613912  0.71093794  1  0  0.160035  0  2.713614  0  0  0.170033  0  3.055611  0  0  0.166714  0  3.064848  0  0  0.125399  0.170373  0  3.050192  0
S  S36  1  0.75154057  0.75864949  0.93655359  1  0  0.138417  0  2.649264  0  0  0.153922  0  2.981521  0  0  0.150142  0  2.98815  0  0  0.118407  0.157421  0  2.975398  0
S  S37  1  0.24846448  0.24135333  0.06344855  1  0  0.138382  0  2.64931  0  0  0.153887  0  2.98158  0  0  0.150107  0  2.988206  0  0  0.118397  0.157388  0  2.975463  0
N  N38  1  0.75509469  0.64253401  0.42935796  1  0  -0.391977  0  3.196822  0  0  -0.330713  0  3.461427  0  0  -0.35087  0  3.47921  0  0  -0.336655  -0.316362  0  3.448253  0
N  N39  1  0.24490353  0.35746518  0.57064080  1  0  -0.391967  0  3.19679  0  0  -0.330712  0  3.461385  0  0  -0.35087  0  3.479167  0  0  -0.336655  -0.316347  0  3.448174  0
N  N40  1  0.72692273  0.81763981  0.71033247  1  0  -0.392004  0  3.151909  0  0  -0.334685  0  3.416475  0  0  -0.354265  0  3.432893  0  0  -0.328371  -0.32195  0  3.40554  0
N  N41  1  0.27307726  0.18236058  0.28966700  1  0  -0.392016  0  3.151903  0  0  -0.334717  0  3.416508  0  0  -0.354287  0  3.432918  0  0  -0.328397  -0.321984  0  3.405579  0
Cl  Cl42  1  0.84861527  0.00551431  0.33048212  1  0  -0.582917  0  0.972421  0  0  -0.519785  0  1.257083  0  0  -0.539361  0  1.238146  0  0  -0.315428  -0.505409  0  1.269667  0
Cl  Cl43  1  0.15138295  0.99448488  0.66951664  1  0  -0.582915  0  0.972427  0  0  -0.519775  0  1.257078  0  0  -0.539353  0  1.238141  0  0  -0.315426  -0.505398  0  1.269662  0
Cl  Cl44  1  0.64913694  0.18262937  0.65289276  1  0  -0.568623  0  0.986483  0  0  -0.499999  0  1.260253  0  0  -0.51904  0  1.239976  0  0  -0.293413  -0.486305  0  1.274175  0
Cl  Cl45  1  0.35086612  0.81737108  0.34711019  1  0  -0.568628  0  0.986525  0  0  -0.500001  0  1.260291  0  0  -0.51904  0  1.240013  0  0  -0.29341  -0.486308  0  1.274214  0
