# generated using pymatgen
data_ZnH30C44(N5O2)2
_symmetry_space_group_name_H-M   'P 1'
_cell_length_a   9.30948846
_cell_length_b   20.78889507
_cell_length_c   21.43419941
_cell_angle_alpha   90.00018844
_cell_angle_beta   89.99989071
_cell_angle_gamma   89.99985106
_symmetry_Int_Tables_number   1
_chemical_formula_structural   ZnH30C44(N5O2)2
_chemical_formula_sum   'Zn4 H120 C176 N40 O16'
_cell_volume   4148.24589532
_cell_formula_units_Z   4
loop_
 _symmetry_equiv_pos_site_id
 _symmetry_equiv_pos_as_xyz
  1  'x, y, z'
loop_
 _atom_site_type_symbol
 _atom_site_label
 _atom_site_symmetry_multiplicity
 _atom_site_fract_x
 _atom_site_fract_y
 _atom_site_fract_z
 _atom_site_occupancy
 _atom_site_pbe_bader_charge
 _atom_site_pbe_bader_spin_density
 _atom_site_pbe_cm5_charge
 _atom_site_pbe_ddec_charge
 _atom_site_pbe_ddec_spin_density
 _atom_site_pbe_ddec_sum_bond_order
 _atom_site_pbe_magmom
Zn  Zn0  1  0.92754543  0.50271041  0.14353738  1  1.261943  0  0.705652  0.800817  0  2.417938  0
Zn  Zn1  1  0.57245072  0.49729271  0.64353893  1  1.261761  0  0.705644  0.80092  0  2.417974  0
Zn  Zn2  1  0.07245110  0.00270971  0.35646209  1  1.261894  0  0.705592  0.800842  0  2.418082  0
Zn  Zn3  1  0.42754717  0.99729376  0.85646120  1  1.261862  0  0.705665  0.800923  0  2.417888  0
H  H4  1  0.61392436  0.56411020  0.14656734  1  0.174051  0  0.142293  0.121252  0  1.013421  0
H  H5  1  0.88608037  0.43589244  0.64657311  1  0.173959  0  0.142242  0.121176  0  1.013373  0
H  H6  1  0.38608899  0.06410768  0.35342905  1  0.173922  0  0.142269  0.121169  0  1.013368  0
H  H7  1  0.11392110  0.93589096  0.85342962  1  0.173973  0  0.142236  0.121192  0  1.013445  0
H  H8  1  0.84839853  0.49096766  0.99563640  1  0.201963  0  0.138319  0.117494  0  1.019986  0
H  H9  1  0.65159929  0.50902945  0.49564116  1  0.202042  0  0.138322  0.117544  0  1.01993  0
H  H10  1  0.15159832  0.99096734  0.50435671  1  0.202003  0  0.138334  0.117477  0  1.019955  0
H  H11  1  0.34840042  0.00902963  0.00436112  1  0.202007  0  0.138348  0.117545  0  1.019936  0
H  H12  1  0.81187925  0.51882637  0.75536063  1  0.196075  0  0.147033  0.129077  0  1.00029  0
H  H13  1  0.68811641  0.48117183  0.25536154  1  0.195928  0  0.147011  0.129019  0  1.000424  0
H  H14  1  0.18811821  0.01882900  0.74463985  1  0.196105  0  0.14701  0.129046  0  1.000311  0
H  H15  1  0.31187626  0.98117360  0.24463664  1  0.196051  0  0.147009  0.129038  0  1.000311  0
H  H16  1  0.48578486  0.64150782  0.69060557  1  0.188914  0  0.14476  0.117409  0  0.979203  0
H  H17  1  0.01421199  0.35849556  0.19060530  1  0.188978  0  0.144745  0.11744  0  0.979175  0
H  H18  1  0.51421726  0.14150836  0.80939390  1  0.188896  0  0.14476  0.117419  0  0.979193  0
H  H19  1  0.98578676  0.85849628  0.30939436  1  0.189113  0  0.144739  0.117398  0  0.979205  0
H  H20  1  0.51773174  0.66939494  0.20715437  1  0.11478  0  0.135825  0.105667  0  0.988151  0
H  H21  1  0.98226306  0.33060647  0.70715879  1  0.114717  0  0.135823  0.105696  0  0.988163  0
H  H22  1  0.48225630  0.16939210  0.29284422  1  0.114772  0  0.135841  0.105669  0  0.988078  0
H  H23  1  0.01774118  0.83060537  0.79283988  1  0.114794  0  0.135836  0.105733  0  0.988208  0
H  H24  1  0.57109163  0.83401471  0.31718578  1  0.120489  0  0.120962  0.086015  0  1.045736  0
H  H25  1  0.92890161  0.16598515  0.81718645  1  0.120474  0  0.121028  0.086108  0  1.045732  0
H  H26  1  0.42890834  0.33401204  0.18281287  1  0.120532  0  0.120979  0.08606  0  1.045696  0
H  H27  1  0.07109821  0.66598024  0.68281589  1  0.119921  0  0.120986  0.085924  0  1.045913  0
H  H28  1  0.47963689  0.61516390  0.94395299  1  0.1109  0  0.111858  0.123919  0  0.996215  0
H  H29  1  0.02036208  0.38483986  0.44395607  1  0.110864  0  0.111835  0.123876  0  0.996201  0
H  H30  1  0.52036216  0.11516069  0.55604686  1  0.110913  0  0.111812  0.123819  0  0.996277  0
H  H31  1  0.97964297  0.88483106  0.05604694  1  0.111064  0  0.111899  0.123952  0  0.996184  0
H  H32  1  0.24486984  0.66831402  0.92716598  1  0.099676  0  0.102836  0.109813  0  1.039308  0
H  H33  1  0.25512919  0.33168824  0.42716590  1  0.099654  0  0.102845  0.109854  0  1.039296  0
H  H34  1  0.75512889  0.16831155  0.57283450  1  0.099638  0  0.102822  0.109777  0  1.039271  0
H  H35  1  0.74487401  0.83167978  0.07283415  1  0.099596  0  0.102845  0.10985  0  1.039246  0
H  H36  1  0.12283927  0.62275136  0.11686044  1  0.138752  0  0.106405  0.125561  0  1.043219  0
H  H37  1  0.37716220  0.37724695  0.61686090  1  0.138759  0  0.106391  0.125501  0  1.043235  0
H  H38  1  0.87716085  0.12275078  0.38314080  1  0.138795  0  0.106395  0.125523  0  1.043208  0
H  H39  1  0.62284176  0.87724835  0.88314212  1  0.138798  0  0.106397  0.125525  0  1.043216  0
H  H40  1  0.35468671  0.56986821  0.13272183  1  0.042085  0  0.110127  0.117216  0  0.995471  0
H  H41  1  0.14532006  0.43013160  0.63272544  1  0.04206  0  0.110132  0.117191  0  0.995573  0
H  H42  1  0.64531694  0.06986736  0.36727925  1  0.042113  0  0.110147  0.117234  0  0.995503  0
H  H43  1  0.85468467  0.93013171  0.86727914  1  0.042097  0  0.110137  0.117227  0  0.995484  0
H  H44  1  0.76737011  0.72995896  0.83258384  1  0.108859  0  0.114083  0.120933  0  1.013907  0
H  H45  1  0.73263165  0.27003903  0.33258124  1  0.108781  0  0.11414  0.121052  0  1.013851  0
H  H46  1  0.23262397  0.22996176  0.66741824  1  0.10885  0  0.114091  0.120943  0  1.013978  0
H  H47  1  0.26736654  0.77004154  0.16741907  1  0.10883  0  0.114105  0.120978  0  1.013808  0
H  H48  1  0.88778352  0.75648188  0.93394474  1  0.082758  0  0.103073  0.110663  0  1.027655  0
H  H49  1  0.61221565  0.24351597  0.43394216  1  0.082731  0  0.103063  0.110632  0  1.027641  0
H  H50  1  0.11220933  0.25648543  0.56605742  1  0.082679  0  0.103081  0.110654  0  1.027645  0
H  H51  1  0.38778592  0.74351607  0.06605947  1  0.082813  0  0.103102  0.110682  0  1.027615  0
H  H52  1  0.03433652  0.56017760  0.94834607  1  0.139265  0  0.113038  0.137635  0  1.018327  0
H  H53  1  0.46566564  0.43981945  0.44834708  1  0.139188  0  0.113019  0.137569  0  1.018435  0
H  H54  1  0.96566821  0.06017818  0.55165174  1  0.13911  0  0.113074  0.137689  0  1.018291  0
H  H55  1  0.53433586  0.93981885  0.05165237  1  0.139308  0  0.113036  0.137589  0  1.01839  0
H  H56  1  0.90418160  0.53285898  0.85168565  1  0.066946  0  0.115352  0.123181  0  0.981099  0
H  H57  1  0.59582223  0.46713764  0.35168846  1  0.067047  0  0.115345  0.123092  0  0.981167  0
H  H58  1  0.09583081  0.03285994  0.64831021  1  0.067007  0  0.115345  0.123048  0  0.981182  0
H  H59  1  0.40417481  0.96713992  0.14831015  1  0.066994  0  0.115355  0.123146  0  0.981202  0
H  H60  1  0.94132078  0.78025866  0.19097695  1  0.132338  0  0.107253  0.112652  0  1.050381  0
H  H61  1  0.55867838  0.21974173  0.69097577  1  0.132397  0  0.107274  0.112685  0  1.050296  0
H  H62  1  0.05867413  0.28025926  0.30902479  1  0.132339  0  0.10726  0.112685  0  1.050376  0
H  H63  1  0.44132650  0.71973875  0.80902254  1  0.132328  0  0.107245  0.112676  0  1.050338  0
H  H64  1  0.09991286  0.74860268  0.10375543  1  0.081478  0  0.101505  0.105863  0  1.045533  0
H  H65  1  0.40008652  0.25139511  0.60375360  1  0.081477  0  0.101494  0.105862  0  1.045489  0
H  H66  1  0.90008223  0.24860404  0.39624715  1  0.081399  0  0.101471  0.105795  0  1.045531  0
H  H67  1  0.59991603  0.75139465  0.89624669  1  0.081427  0  0.10146  0.105792  0  1.04556  0
H  H68  1  0.74588223  0.65356920  0.01350671  1  0.090674  0  0.104216  0.109897  0  1.031791  0
H  H69  1  0.75411771  0.34642963  0.51350950  1  0.090727  0  0.104211  0.109898  0  1.031806  0
H  H70  1  0.25411449  0.15356777  0.48649137  1  0.090687  0  0.104201  0.109911  0  1.031817  0
H  H71  1  0.24588214  0.84642844  0.98649015  1  0.090815  0  0.104238  0.109895  0  1.031837  0
H  H72  1  0.58509652  0.68811528  0.09868286  1  0.072739  0  0.098847  0.091533  0  1.059425  0
H  H73  1  0.91490304  0.31188672  0.59868494  1  0.072726  0  0.09886  0.09159  0  1.059407  0
H  H74  1  0.41490107  0.18811338  0.40131532  1  0.072753  0  0.098879  0.091621  0  1.059391  0
H  H75  1  0.08509915  0.81188543  0.90131460  1  0.07272  0  0.098845  0.091582  0  1.059339  0
H  H76  1  0.34427402  0.44120243  0.14857387  1  0.079924  0  0.100528  0.105197  0  1.006529  0
H  H77  1  0.15571442  0.55879695  0.64857461  1  0.079994  0  0.100532  0.105252  0  1.006463  0
H  H78  1  0.65572855  0.94120224  0.35142652  1  0.079908  0  0.100535  0.105264  0  1.006462  0
H  H79  1  0.84428388  0.05879918  0.85142786  1  0.080053  0  0.10057  0.105307  0  1.00654  0
H  H80  1  0.59289793  0.39706717  0.13766029  1  0.034268  0  0.091884  0.085045  0  1.04399  0
H  H81  1  0.90709824  0.60293496  0.63766144  1  0.034175  0  0.091919  0.085135  0  1.044061  0
H  H82  1  0.40710812  0.89706682  0.36233949  1  0.034315  0  0.09189  0.085037  0  1.043986  0
H  H83  1  0.09289765  0.10293907  0.86233931  1  0.034206  0  0.091901  0.085083  0  1.044035  0
H  H84  1  0.51352563  0.36235438  0.94273863  1  0.092465  0  0.096785  0.097196  0  1.049102  0
H  H85  1  0.98646813  0.63764542  0.44273932  1  0.093329  0  0.096778  0.097213  0  1.049088  0
H  H86  1  0.48647950  0.86235146  0.55725827  1  0.093196  0  0.096782  0.097178  0  1.049104  0
H  H87  1  0.01353298  0.13764666  0.05726151  1  0.093301  0  0.096811  0.09721  0  1.04903  0
H  H88  1  0.27076562  0.41079483  0.95345206  1  0.088748  0  0.103837  0.106078  0  0.999101  0
H  H89  1  0.22922256  0.58919982  0.45345234  1  0.08883  0  0.103833  0.106093  0  0.99902  0
H  H90  1  0.72923815  0.91079110  0.54654780  1  0.0887  0  0.10385  0.106109  0  0.99918  0
H  H91  1  0.77077668  0.08919966  0.04655020  1  0.088792  0  0.103835  0.106066  0  0.999017  0
H  H92  1  0.26966267  0.17071919  0.18667473  1  0.10775  0  0.098484  0.09852  0  1.030257  0
H  H93  1  0.23031701  0.82928898  0.68667114  1  0.107461  0  0.098542  0.098573  0  1.030296  0
H  H94  1  0.73033609  0.67072022  0.31332760  1  0.10778  0  0.098494  0.098536  0  1.030237  0
H  H95  1  0.76967542  0.32928973  0.81333266  1  0.107484  0  0.098524  0.098552  0  1.030279  0
H  H96  1  0.18340653  0.24958862  0.10907414  1  0.053793  0  0.100554  0.102608  0  1.015781  0
H  H97  1  0.31657886  0.75041832  0.60907256  1  0.053366  0  0.100496  0.102478  0  1.01584  0
H  H98  1  0.81659822  0.74959126  0.39092704  1  0.053778  0  0.10055  0.10259  0  1.015835  0
H  H99  1  0.68342047  0.25041847  0.89093285  1  0.053467  0  0.10053  0.102537  0  1.015771  0
H  H100  1  0.74646537  0.21363362  0.16841500  1  0.117192  0  0.094064  0.09362  0  1.059777  0
H  H101  1  0.75351455  0.78636765  0.66841451  1  0.117095  0  0.093992  0.093572  0  1.059906  0
H  H102  1  0.25353529  0.71363431  0.33158187  1  0.117196  0  0.094032  0.093617  0  1.059717  0
H  H103  1  0.24648349  0.28636667  0.83158448  1  0.117044  0  0.094023  0.093623  0  1.059922  0
H  H104  1  0.83698704  0.13850946  0.24801100  1  0.050377  0  0.099999  0.104855  0  1.000487  0
H  H105  1  0.66299791  0.86149208  0.74801130  1  0.050505  0  0.09994  0.104776  0  1.00063  0
H  H106  1  0.16301621  0.63851046  0.25198516  1  0.0503  0  0.100001  0.104867  0  1.000488  0
H  H107  1  0.33700400  0.36149216  0.75199120  1  0.05053  0  0.099925  0.104752  0  1.000612  0
H  H108  1  0.09106649  0.26515405  0.02074993  1  0.068592  0  0.099266  0.097909  0  1.036292  0
H  H109  1  0.40891929  0.73484490  0.52074916  1  0.068469  0  0.099274  0.097909  0  1.036326  0
H  H110  1  0.90893818  0.76515640  0.47924803  1  0.068549  0  0.09928  0.097944  0  1.036326  0
H  H111  1  0.59107476  0.23484257  0.97925154  1  0.068498  0  0.099275  0.097933  0  1.036279  0
H  H112  1  0.99713985  0.33074010  0.93428693  1  0.0706  0  0.103665  0.104015  0  0.985733  0
H  H113  1  0.50285609  0.66926017  0.43428812  1  0.070623  0  0.103647  0.103986  0  0.985792  0
H  H114  1  0.00286331  0.83074160  0.56571220  1  0.070897  0  0.103679  0.104031  0  0.985693  0
H  H115  1  0.49714591  0.16925221  0.06570954  1  0.070838  0  0.103664  0.103964  0  0.985794  0
H  H116  1  0.75595565  0.38155824  0.94168883  1  0.078771  0  0.101629  0.102417  0  1.00785  0
H  H117  1  0.74404026  0.61844445  0.44169013  1  0.07887  0  0.101575  0.102297  0  1.007973  0
H  H118  1  0.24405151  0.88156041  0.55831046  1  0.078731  0  0.101624  0.102444  0  1.007861  0
H  H119  1  0.25595989  0.11843867  0.05830690  1  0.078865  0  0.101537  0.102278  0  1.008084  0
H  H120  1  0.70331998  0.30109806  0.12534753  1  0.069611  0  0.099046  0.103017  0  1.03529  0
H  H121  1  0.79666120  0.69890692  0.62534767  1  0.069833  0  0.099032  0.103048  0  1.035104  0
H  H122  1  0.29667802  0.80109980  0.37465148  1  0.069438  0  0.099026  0.103048  0  1.035311  0
H  H123  1  0.20332876  0.19890949  0.87465198  1  0.069504  0  0.099027  0.102977  0  1.035235  0
C  C124  1  0.64219781  0.54867687  0.09981212  1  1.012345  0  0.164964  0.084057  0  3.90632  0
C  C125  1  0.85780605  0.45132562  0.59981749  1  1.012184  0  0.165054  0.084224  0  3.906165  0
C  C126  1  0.35781026  0.04867358  0.40018422  1  1.012273  0  0.165118  0.084302  0  3.906294  0
C  C127  1  0.14219748  0.95132426  0.90018622  1  1.012345  0  0.165019  0.084096  0  3.90649  0
C  C128  1  0.76060309  0.51284744  0.02129450  1  0.961034  0  0.154887  0.14525  0  3.980637  0
C  C129  1  0.73939897  0.48715189  0.52129822  1  0.961094  0  0.155001  0.145464  0  3.980501  0
C  C130  1  0.23939660  0.01284744  0.47870080  1  0.961552  0  0.154892  0.145442  0  3.980483  0
C  C131  1  0.26060114  0.98715163  0.97870374  1  0.961074  0  0.154874  0.145282  0  3.980501  0
C  C132  1  0.74282809  0.56034713  0.74909924  1  0.967106  0  0.168891  0.088639  0  3.866626  0
C  C133  1  0.75715685  0.43965298  0.24909949  1  0.96688  0  0.16877  0.088571  0  3.866253  0
C  C134  1  0.25717020  0.06034874  0.75089997  1  0.967039  0  0.168887  0.088643  0  3.866598  0
C  C135  1  0.24283498  0.93965436  0.25089996  1  0.966284  0  0.168833  0.088573  0  3.866359  0
C  C136  1  0.57618617  0.62334138  0.71721391  1  0.993439  0  0.164253  0.157805  0  3.950548  0
C  C137  1  0.92381396  0.37666247  0.21721430  1  0.994006  0  0.164296  0.157804  0  3.95041  0
C  C138  1  0.42381498  0.12334050  0.78278783  1  0.993408  0  0.16423  0.157781  0  3.95048  0
C  C139  1  0.07618361  0.87666175  0.28278635  1  0.993705  0  0.164291  0.157853  0  3.950496  0
C  C140  1  0.55101373  0.71549600  0.22581853  1  0.975905  0  0.150596  0.084014  0  3.957203  0
C  C141  1  0.94898098  0.28450402  0.72582189  1  0.976274  0  0.150653  0.084025  0  3.957379  0
C  C142  1  0.44898370  0.21549458  0.27417928  1  0.976044  0  0.150633  0.08399  0  3.95728  0
C  C143  1  0.05101923  0.78450186  0.77417663  1  0.976079  0  0.150579  0.083898  0  3.957508  0
C  C144  1  0.58238567  0.79865923  0.28034879  1  0.960813  0  0.127042  0.125802  0  4.047676  0
C  C145  1  0.91760988  0.20134195  0.78035099  1  0.961048  0  0.126996  0.125738  0  4.047736  0
C  C146  1  0.41761128  0.29865622  0.21964881  1  0.960862  0  0.127  0.125764  0  4.047724  0
C  C147  1  0.08238866  0.70133619  0.71965100  1  0.961363  0  0.127003  0.125903  0  4.047687  0
C  C148  1  0.43261273  0.58996143  0.03932389  1  0.285766  0  0.086641  0.114131  0  4.040041  0
C  C149  1  0.06739016  0.41004047  0.53932704  1  0.286008  0  0.086587  0.113964  0  4.040148  0
C  C150  1  0.56738866  0.08995858  0.46067538  1  0.28563  0  0.086595  0.114052  0  4.040099  0
C  C151  1  0.93261792  0.91003600  0.96067561  1  0.285899  0  0.086637  0.114134  0  4.040008  0
C  C152  1  0.40099875  0.61751045  0.98143192  1  -0.02431  0  -0.084169  -0.133319  0  3.979781  0
C  C153  1  0.09900327  0.38249199  0.48143305  1  -0.024056  0  -0.084142  -0.133149  0  3.979513  0
C  C154  1  0.59900351  0.11750414  0.51856887  1  -0.024279  0  -0.084138  -0.133203  0  3.97964  0
C  C155  1  0.90100608  0.88248508  0.01856715  1  -0.024468  0  -0.084207  -0.133455  0  3.979745  0
C  C156  1  0.26926857  0.64704696  0.97230735  1  0.017532  0  -0.091186  -0.15496  0  3.984921  0
C  C157  1  0.23073349  0.35295690  0.47230595  1  0.017435  0  -0.091217  -0.155042  0  3.984875  0
C  C158  1  0.73073137  0.14704244  0.52769447  1  0.017601  0  -0.091151  -0.154837  0  3.984792  0
C  C159  1  0.76927281  0.85295066  0.02769462  1  0.017543  0  -0.091153  -0.154785  0  3.984559  0
C  C160  1  0.16636489  0.64906137  0.02032129  1  0.331635  0  0.099865  0.186676  0  4.009412  0
C  C161  1  0.33363808  0.35093806  0.52032263  1  0.331693  0  0.099916  0.186555  0  4.009408  0
C  C162  1  0.83363615  0.14905924  0.47967864  1  0.331612  0  0.099939  0.186664  0  4.009375  0
C  C163  1  0.66636711  0.85093540  0.97967844  1  0.331695  0  0.099846  0.186539  0  4.00933  0
C  C164  1  0.20112292  0.62313559  0.07902135  1  -0.03968  0  -0.092973  -0.15891  0  3.954607  0
C  C165  1  0.29887872  0.37686211  0.57902233  1  -0.039762  0  -0.092908  -0.158699  0  3.954593  0
C  C166  1  0.79887827  0.12313426  0.42098083  1  -0.039617  0  -0.092968  -0.15871  0  3.954538  0
C  C167  1  0.70112310  0.87686066  0.92097975  1  -0.03969  0  -0.092904  -0.158702  0  3.954487  0
C  C168  1  0.33354594  0.59357022  0.08829521  1  0.009966  0  -0.090774  -0.157562  0  4.016131  0
C  C169  1  0.16646102  0.40643040  0.58829780  1  0.009818  0  -0.090792  -0.157548  0  4.016325  0
C  C170  1  0.66645864  0.09357046  0.41170454  1  0.00978  0  -0.090767  -0.157663  0  4.016266  0
C  C171  1  0.83354492  0.90642828  0.91170391  1  0.009844  0  -0.090832  -0.157676  0  4.016123  0
C  C172  1  0.82627481  0.63017393  0.83697617  1  0.256133  0  0.092904  0.127999  0  4.029805  0
C  C173  1  0.67372478  0.36982311  0.33697627  1  0.256144  0  0.092853  0.127998  0  4.029751  0
C  C174  1  0.17372629  0.13017582  0.66302420  1  0.256158  0  0.092875  0.127969  0  4.029653  0
C  C175  1  0.32626853  0.86982698  0.16302249  1  0.256078  0  0.092928  0.128075  0  4.029746  0
C  C176  1  0.82413268  0.69335145  0.85917024  1  -0.025159  0  -0.087487  -0.148958  0  4.004183  0
C  C177  1  0.67586467  0.30664470  0.35916921  1  -0.025226  0  -0.08754  -0.149123  0  4.004077  0
C  C178  1  0.17586161  0.19335470  0.64083033  1  -0.025196  0  -0.0874  -0.148828  0  4.004013  0
C  C179  1  0.32413331  0.80664802  0.14082936  1  -0.025202  0  -0.087571  -0.14907  0  4.004129  0
C  C180  1  0.89371314  0.70798047  0.91475150  1  0.033008  0  -0.090599  -0.158441  0  3.990183  0
C  C181  1  0.60628719  0.29201972  0.41475095  1  0.032971  0  -0.09062  -0.15838  0  3.990228  0
C  C182  1  0.10628322  0.20798265  0.58524864  1  0.03296  0  -0.090655  -0.158498  0  3.990147  0
C  C183  1  0.39370872  0.79202037  0.08525037  1  0.032938  0  -0.090608  -0.158389  0  3.990302  0
C  C184  1  0.96854546  0.66011358  0.94733017  1  0.357612  0  0.093524  0.176717  0  4.016156  0
C  C185  1  0.53145473  0.33988384  0.44733030  1  0.357872  0  0.09356  0.176683  0  4.016083  0
C  C186  1  0.03145333  0.16011526  0.55267075  1  0.357554  0  0.093544  0.176825  0  4.0161  0
C  C187  1  0.46854413  0.83988476  0.05266977  1  0.357911  0  0.093545  0.176642  0  4.016147  0
C  C188  1  0.97682757  0.59762681  0.92281411  1  -0.078073  0  -0.082173  -0.142648  0  3.942132  0
C  C189  1  0.52317165  0.40237101  0.42281491  1  -0.07734  0  -0.082186  -0.142578  0  3.942093  0
C  C190  1  0.02317480  0.09762809  0.57718475  1  -0.076931  0  -0.082213  -0.142757  0  3.942174  0
C  C191  1  0.47682792  0.90237105  0.07718489  1  -0.078309  0  -0.082159  -0.142442  0  3.941985  0
C  C192  1  0.90436940  0.58247828  0.86809035  1  0.045948  0  -0.084001  -0.144196  0  3.98368  0
C  C193  1  0.59563113  0.41751838  0.36809114  1  0.04509  0  -0.083969  -0.144134  0  3.983773  0
C  C194  1  0.09563413  0.08248064  0.63190846  1  0.045087  0  -0.083958  -0.144037  0  3.983715  0
C  C195  1  0.40436620  0.91752158  0.13190824  1  0.045966  0  -0.08397  -0.144268  0  3.983761  0
C  C196  1  0.75372423  0.73427502  0.15133890  1  0.313675  0  0.091678  0.128248  0  4.022516  0
C  C197  1  0.74627188  0.26572668  0.65134284  1  0.313548  0  0.091685  0.128195  0  4.022533  0
C  C198  1  0.24627095  0.23427553  0.34865990  1  0.313609  0  0.091724  0.128308  0  4.022462  0
C  C199  1  0.25373058  0.76572358  0.84865888  1  0.313549  0  0.091713  0.128311  0  4.022523  0
C  C200  1  0.89854094  0.75231678  0.15230928  1  -0.010086  0  -0.082106  -0.130886  0  3.963777  0
C  C201  1  0.60146054  0.24768685  0.65230862  1  -0.010014  0  -0.082136  -0.130904  0  3.963828  0
C  C202  1  0.10145521  0.25231505  0.34769051  1  -0.01008  0  -0.082177  -0.131065  0  3.963897  0
C  C203  1  0.39854418  0.74768309  0.84769165  1  -0.010072  0  -0.08222  -0.131124  0  3.963924  0
C  C204  1  0.98774579  0.73410788  0.10345365  1  0.032096  0  -0.090962  -0.152274  0  3.969274  0
C  C205  1  0.51225913  0.26589077  0.60345265  1  0.03203  0  -0.091026  -0.152348  0  3.969441  0
C  C206  1  0.01225369  0.23410979  0.39654888  1  0.032097  0  -0.090903  -0.152094  0  3.969133  0
C  C207  1  0.48774441  0.76588851  0.89654954  1  0.032019  0  -0.090887  -0.152107  0  3.969225  0
C  C208  1  0.93586453  0.69646850  0.05398174  1  0.333352  0  0.095248  0.183255  0  4.016265  0
C  C209  1  0.56413631  0.30352805  0.55398128  1  0.333277  0  0.09527  0.183193  0  4.016417  0
C  C210  1  0.06413516  0.19647004  0.44601881  1  0.333333  0  0.095251  0.183232  0  4.016341  0
C  C211  1  0.43586379  0.80352699  0.94601823  1  0.333326  0  0.09528  0.183315  0  4.016322  0
C  C212  1  0.78917660  0.68096319  0.05247577  1  -0.004713  0  -0.098923  -0.160073  0  3.981553  0
C  C213  1  0.71082424  0.31903625  0.55247711  1  -0.004494  0  -0.098897  -0.160072  0  3.981598  0
C  C214  1  0.21082425  0.18096168  0.44752380  1  -0.004711  0  -0.098899  -0.160049  0  3.9815  0
C  C215  1  0.28917577  0.81903488  0.94752199  1  -0.004757  0  -0.098947  -0.160134  0  3.981758  0
C  C216  1  0.69886751  0.70005717  0.10061433  1  -0.071656  0  -0.095175  -0.159166  0  4.032897  0
C  C217  1  0.80113528  0.29994483  0.60061646  1  -0.071839  0  -0.09518  -0.159118  0  4.032731  0
C  C218  1  0.30113324  0.20005635  0.39938530  1  -0.071612  0  -0.095232  -0.159227  0  4.032726  0
C  C219  1  0.19886806  0.79994389  0.89938350  1  -0.071622  0  -0.095155  -0.159104  0  4.032797  0
C  C220  1  0.14533413  0.45734467  0.05856315  1  1.574401  0  0.199795  0.571097  0  4.24514  0
C  C221  1  0.35465900  0.54264864  0.55855761  1  1.574928  0  0.20001  0.571555  0  4.244511  0
C  C222  1  0.85467908  0.95734503  0.44144382  1  1.57469  0  0.200053  0.571555  0  4.244426  0
C  C223  1  0.64535550  0.04265093  0.94142475  1  1.573277  0  0.199839  0.571125  0  4.244886  0
C  C224  1  0.11332221  0.10116835  0.26910977  1  1.543829  0  0.197264  0.570429  0  4.218956  0
C  C225  1  0.38666141  0.89883674  0.76910953  1  1.544337  0  0.197346  0.570723  0  4.21908  0
C  C226  1  0.88666730  0.60116891  0.23089048  1  1.544094  0  0.197308  0.570575  0  4.219246  0
C  C227  1  0.61334028  0.39883546  0.73089355  1  1.544055  0  0.197386  0.570724  0  4.219097  0
C  C228  1  0.29227571  0.42855853  0.05178042  1  -0.09007  0  -0.024064  -0.0399  0  3.983743  0
C  C229  1  0.20771423  0.57143523  0.55177883  1  -0.090066  0  -0.024062  -0.039895  0  3.983413  0
C  C230  1  0.70772586  0.92855764  0.44821946  1  -0.089869  0  -0.024016  -0.039823  0  3.983581  0
C  C231  1  0.79228829  0.07143882  0.94822321  1  -0.089827  0  -0.024124  -0.039929  0  3.983706  0
C  C232  1  0.38358138  0.42406626  0.10361250  1  -0.035825  0  -0.096605  -0.1124  0  4.019726  0
C  C233  1  0.11641371  0.57593393  0.60361426  1  -0.035866  0  -0.096585  -0.112404  0  4.019467  0
C  C234  1  0.61642451  0.92406434  0.39638643  1  -0.036014  0  -0.096558  -0.112344  0  4.019566  0
C  C235  1  0.88358879  0.07593483  0.89638639  1  -0.035925  0  -0.096626  -0.112533  0  4.019625  0
C  C236  1  0.52085646  0.39845635  0.09751420  1  -0.082317  0  -0.102741  -0.148316  0  4.018579  0
C  C237  1  0.97913989  0.60154805  0.59751762  1  -0.081925  0  -0.102774  -0.148409  0  4.018726  0
C  C238  1  0.47915172  0.89845509  0.40248465  1  -0.081925  0  -0.102826  -0.148466  0  4.018503  0
C  C239  1  0.02086461  0.10154853  0.90248546  1  -0.081975  0  -0.10275  -0.148318  0  4.018939  0
C  C240  1  0.57006237  0.37506007  0.03982270  1  0.02027  0  -0.008013  0.072252  0  3.990514  0
C  C241  1  0.92993209  0.62494461  0.53982389  1  0.020223  0  -0.008003  0.072284  0  3.990536  0
C  C242  1  0.42993951  0.87505763  0.46017655  1  0.02011  0  -0.00794  0.072341  0  3.990433  0
C  C243  1  0.07007120  0.12494427  0.96017599  1  0.02012  0  -0.008078  0.072217  0  3.990801  0
C  C244  1  0.47827757  0.38037516  0.98793793  1  -0.050606  0  -0.089597  -0.125874  0  3.962212  0
C  C245  1  0.02171046  0.61962394  0.48793802  1  -0.051366  0  -0.08955  -0.125883  0  3.962337  0
C  C246  1  0.52172638  0.88037156  0.51206182  1  -0.051357  0  -0.089604  -0.125792  0  3.962242  0
C  C247  1  0.97828539  0.11962534  0.01206182  1  -0.051306  0  -0.089601  -0.125932  0  3.962122  0
C  C248  1  0.34173614  0.40697888  0.99374417  1  -0.009765  0  -0.081794  -0.077837  0  3.963846  0
C  C249  1  0.15825186  0.59301880  0.49374500  1  -0.009981  0  -0.081795  -0.077898  0  3.963963  0
C  C250  1  0.65826658  0.90697557  0.50625613  1  -0.009925  0  -0.081852  -0.078046  0  3.964177  0
C  C251  1  0.84174629  0.09302034  0.00625569  1  -0.010028  0  -0.081736  -0.077679  0  3.963986  0
C  C252  1  0.05921715  0.14916267  0.22243726  1  -0.023572  0  -0.025748  -0.045119  0  3.979462  0
C  C253  1  0.44076130  0.85084370  0.72243636  1  -0.022657  0  -0.025871  -0.045143  0  3.979405  0
C  C254  1  0.94077852  0.64916093  0.27756174  1  -0.023647  0  -0.025854  -0.045401  0  3.979662  0
C  C255  1  0.55923208  0.35084264  0.77756610  1  -0.022471  0  -0.025806  -0.04511  0  3.979336  0
C  C256  1  0.15522242  0.18088862  0.18261726  1  -0.001401  0  -0.090408  -0.093397  0  3.993843  0
C  C257  1  0.34475835  0.81911761  0.68261494  1  -0.001929  0  -0.090367  -0.093545  0  3.993866  0
C  C258  1  0.84477843  0.68089050  0.31738417  1  -0.001238  0  -0.090335  -0.093261  0  3.99384  0
C  C259  1  0.65523736  0.31911802  0.81738976  1  -0.002081  0  -0.090375  -0.093592  0  3.993907  0
C  C260  1  0.10572021  0.22473458  0.13851866  1  -0.090674  0  -0.093487  -0.141942  0  3.983455  0
C  C261  1  0.39426076  0.77527054  0.63851756  1  -0.090071  0  -0.093308  -0.141511  0  3.983295  0
C  C262  1  0.89428147  0.72473510  0.36148244  1  -0.090834  0  -0.093562  -0.142027  0  3.983651  0
C  C263  1  0.60573628  0.27527260  0.86148746  1  -0.090181  0  -0.09341  -0.141621  0  3.983418  0
C  C264  1  0.95778527  0.23679340  0.13101070  1  -0.017465  0  -0.005924  0.064687  0  3.991292  0
C  C265  1  0.54219804  0.76321064  0.63101032  1  -0.01857  0  -0.006105  0.064443  0  3.991438  0
C  C266  1  0.04221634  0.73679301  0.36898857  1  -0.017319  0  -0.005821  0.064775  0  3.991274  0
C  C267  1  0.45779906  0.26321001  0.86899140  1  -0.018394  0  -0.006065  0.064546  0  3.991329  0
C  C268  1  0.86191749  0.20534837  0.17180251  1  -0.112987  0  -0.093233  -0.132316  0  3.966491  0
C  C269  1  0.63806242  0.79465436  0.67180402  1  -0.112837  0  -0.093148  -0.132223  0  3.966617  0
C  C270  1  0.13808108  0.70534677  0.32819340  1  -0.112924  0  -0.093272  -0.132379  0  3.966392  0
C  C271  1  0.36193236  0.29465371  0.82819500  1  -0.11286  0  -0.09316  -0.13228  0  3.966518  0
C  C272  1  0.91204379  0.16278916  0.21689998  1  -0.024869  0  -0.087622  -0.082766  0  3.971484  0
C  C273  1  0.58793592  0.83721325  0.71690073  1  -0.024619  0  -0.087579  -0.082779  0  3.971614  0
C  C274  1  0.08795395  0.66278939  0.28309626  1  -0.024923  0  -0.087591  -0.0827  0  3.971531  0
C  C275  1  0.41206183  0.33721094  0.78309889  1  -0.024546  0  -0.087569  -0.082691  0  3.971572  0
C  C276  1  0.90475871  0.27886628  0.08021487  1  0.012  0  -0.01107  0.061812  0  4.008772  0
C  C277  1  0.59522053  0.72113565  0.58021338  1  0.013014  0  -0.011185  0.06181  0  4.008965  0
C  C278  1  0.09523942  0.77886505  0.41978501  1  0.012001  0  -0.011086  0.061877  0  4.008782  0
C  C279  1  0.40476931  0.22113574  0.91978681  1  0.012656  0  -0.011135  0.061788  0  4.008926  0
C  C280  1  0.98639165  0.28804845  0.02560726  1  -0.009093  0  -0.088272  -0.121945  0  3.951332  0
C  C281  1  0.51359427  0.71195090  0.52560860  1  -0.009515  0  -0.088285  -0.122138  0  3.951562  0
C  C282  1  0.01360858  0.78805182  0.47439218  1  -0.009106  0  -0.088299  -0.122102  0  3.951579  0
C  C283  1  0.48640421  0.21194771  0.97439295  1  -0.009254  0  -0.088268  -0.122132  0  3.951459  0
C  C284  1  0.93265396  0.32454315  0.97634357  1  -0.101222  0  -0.088803  -0.062963  0  4.017649  0
C  C285  1  0.56733858  0.67545870  0.47634519  1  -0.101285  0  -0.088782  -0.062873  0  4.017706  0
C  C286  1  0.06734709  0.82454444  0.52365415  1  -0.101355  0  -0.088783  -0.062856  0  4.017609  0
C  C287  1  0.43266123  0.17545308  0.02365482  1  -0.10144  0  -0.088803  -0.062791  0  4.017547  0
C  C288  1  0.79717489  0.35282131  0.98032376  1  -0.051068  0  -0.089676  -0.133612  0  3.975767  0
C  C289  1  0.70281549  0.64718199  0.48032285  1  -0.050627  0  -0.089572  -0.1334  0  3.975871  0
C  C290  1  0.20282707  0.85282195  0.51967591  1  -0.051124  0  -0.089656  -0.13371  0  3.975784  0
C  C291  1  0.29718020  0.14717700  0.01967428  1  -0.050947  0  -0.089525  -0.133405  0  3.97587  0
C  C292  1  0.71375350  0.34530275  0.03454691  1  -0.034894  0  -0.012379  0.062231  0  4.020144  0
C  C293  1  0.78623561  0.65470048  0.53454645  1  -0.035275  0  -0.012426  0.062152  0  4.02005  0
C  C294  1  0.28624963  0.84530193  0.46545224  1  -0.034723  0  -0.012478  0.062154  0  4.02031  0
C  C295  1  0.21375783  0.15469998  0.96545259  1  -0.034998  0  -0.012403  0.06215  0  4.020264  0
C  C296  1  0.76915181  0.30828352  0.08380643  1  -0.082803  0  -0.091382  -0.178277  0  3.917567  0
C  C297  1  0.73082956  0.69171651  0.58380799  1  -0.083363  0  -0.091295  -0.178186  0  3.917202  0
C  C298  1  0.23085045  0.80828452  0.41619168  1  -0.082736  0  -0.091332  -0.178245  0  3.917517  0
C  C299  1  0.26916152  0.19171963  0.91619396  1  -0.083013  0  -0.091335  -0.178165  0  3.917389  0
N  N300  1  0.76595768  0.52010382  0.08469599  1  -1.244637  0  -0.353728  -0.319489  0  3.607305  0
N  N301  1  0.73404195  0.47989669  0.58470016  1  -1.244731  0  -0.353847  -0.319795  0  3.607403  0
N  N302  1  0.23404411  0.02010361  0.41529886  1  -1.244596  0  -0.353849  -0.319807  0  3.607429  0
N  N303  1  0.26595712  0.97989716  0.91530225  1  -1.244726  0  -0.353753  -0.319601  0  3.607395  0
N  N304  1  0.56608738  0.55814870  0.04716919  1  -0.889266  0  -0.115506  0.13988  0  3.771965  0
N  N305  1  0.93391456  0.44185264  0.54717354  1  -0.889399  0  -0.115479  0.139974  0  3.771861  0
N  N306  1  0.43391419  0.05814599  0.45282858  1  -0.889185  0  -0.11565  0.139761  0  3.772035  0
N  N307  1  0.06609010  0.94184963  0.95282875  1  -0.889267  0  -0.115518  0.139907  0  3.771852  0
N  N308  1  0.64087035  0.53563538  0.99651832  1  -0.677263  0  -0.217946  -0.255863  0  3.080292  0
N  N309  1  0.85913177  0.46436365  0.49652231  1  -0.677033  0  -0.218002  -0.256018  0  3.080259  0
N  N310  1  0.35912701  0.03563314  0.50347894  1  -0.677683  0  -0.217861  -0.255825  0  3.080235  0
N  N311  1  0.14087066  0.96436142  0.00348142  1  -0.677208  0  -0.217963  -0.255886  0  3.080055  0
N  N312  1  0.63862910  0.56481200  0.70648888  1  -1.24271  0  -0.34358  -0.307515  0  3.554021  0
N  N313  1  0.86136569  0.43519085  0.20648950  1  -1.242749  0  -0.343523  -0.307498  0  3.55352  0
N  N314  1  0.36136594  0.06481171  0.79351128  1  -1.242709  0  -0.343568  -0.307543  0  3.553899  0
N  N315  1  0.13863153  0.93519202  0.29351040  1  -1.242814  0  -0.343547  -0.307517  0  3.553823  0
N  N316  1  0.74224350  0.61445588  0.78389232  1  -0.865679  0  -0.110113  0.139461  0  3.763005  0
N  N317  1  0.75775525  0.38554146  0.28389240  1  -0.865468  0  -0.109963  0.139621  0  3.762735  0
N  N318  1  0.25775769  0.11445689  0.71610706  1  -0.865658  0  -0.110084  0.139515  0  3.763049  0
N  N319  1  0.24223582  0.88554417  0.21610594  1  -0.864988  0  -0.110088  0.139486  0  3.762839  0
N  N320  1  0.63596262  0.65506942  0.76396119  1  -0.675856  0  -0.20296  -0.232297  0  3.088866  0
N  N321  1  0.86404374  0.34493170  0.26395966  1  -0.676317  0  -0.203  -0.232335  0  3.088836  0
N  N322  1  0.36404157  0.15506893  0.73603972  1  -0.675767  0  -0.202963  -0.232315  0  3.088809  0
N  N323  1  0.13595401  0.84493268  0.23603995  1  -0.67616  0  -0.203015  -0.232319  0  3.088887  0
N  N324  1  0.49724152  0.74524999  0.27550975  1  -1.178179  0  -0.345077  -0.350319  0  3.25573  0
N  N325  1  0.00275281  0.25475079  0.77551292  1  -1.178471  0  -0.345096  -0.350404  0  3.255896  0
N  N326  1  0.50275144  0.24524641  0.22448815  1  -1.178284  0  -0.345042  -0.350246  0  3.25591  0
N  N327  1  0.99724650  0.75474640  0.72448737  1  -1.178342  0  -0.345087  -0.35034  0  3.255602  0
N  N328  1  0.66271800  0.74984404  0.20198793  1  -0.864429  0  -0.123709  0.127431  0  3.77871  0
N  N329  1  0.83727897  0.25015927  0.70199081  1  -0.864577  0  -0.123714  0.127475  0  3.778547  0
N  N330  1  0.33727923  0.24984284  0.29801045  1  -0.864435  0  -0.123744  0.127379  0  3.778746  0
N  N331  1  0.16272574  0.75015513  0.79800947  1  -0.864287  0  -0.123764  0.127325  0  3.778838  0
N  N332  1  0.68422271  0.80371564  0.23707866  1  -0.686128  0  -0.233774  -0.278932  0  3.09178  0
N  N333  1  0.81577303  0.19628491  0.73708139  1  -0.686202  0  -0.233825  -0.278935  0  3.091552  0
N  N334  1  0.31577529  0.30371530  0.26291943  1  -0.686159  0  -0.233792  -0.278942  0  3.091712  0
N  N335  1  0.18422662  0.69627966  0.76291965  1  -0.686213  0  -0.233731  -0.278841  0  3.091834  0
N  N336  1  0.02917793  0.67416666  0.00669083  1  -1.237923  0  -0.252135  -0.153535  0  3.65297  0
N  N337  1  0.47082402  0.32582984  0.50669058  1  -1.237903  0  -0.252103  -0.153369  0  3.652775  0
N  N338  1  0.97081867  0.17417019  0.49331058  1  -1.237856  0  -0.252185  -0.153734  0  3.653049  0
N  N339  1  0.52917594  0.82582979  0.99330901  1  -1.237889  0  -0.252108  -0.153513  0  3.65283  0
O  O340  1  0.10312329  0.46210984  0.11638805  1  -1.186454  0  -0.34645  -0.569066  0  2.357556  0
O  O341  1  0.39687281  0.53788607  0.61639040  1  -1.186367  0  -0.34655  -0.569421  0  2.357074  0
O  O342  1  0.89688237  0.96211235  0.38360960  1  -1.186412  0  -0.34657  -0.5694  0  2.356921  0
O  O343  1  0.60313313  0.03788821  0.88360734  1  -1.186212  0  -0.346388  -0.569065  0  2.357959  0
O  O344  1  0.07549791  0.47488476  0.01185747  1  -1.187187  0  -0.324396  -0.55834  0  2.155092  0
O  O345  1  0.42449113  0.52511271  0.51186255  1  -1.187779  0  -0.324508  -0.558451  0  2.155313  0
O  O346  1  0.92450339  0.97488135  0.48813882  1  -1.187494  0  -0.324465  -0.558424  0  2.155538  0
O  O347  1  0.57550091  0.02510610  0.98814168  1  -1.18645  0  -0.324527  -0.558518  0  2.154368  0
O  O348  1  0.01672504  0.07858045  0.30713918  1  -1.166853  0  -0.337161  -0.560175  0  2.332723  0
O  O349  1  0.48325411  0.92142236  0.80713427  1  -1.166793  0  -0.33708  -0.560191  0  2.332996  0
O  O350  1  0.98325493  0.57858173  0.19286239  1  -1.166866  0  -0.337107  -0.560176  0  2.332881  0
O  O351  1  0.51674638  0.42142155  0.69286841  1  -1.166648  0  -0.337119  -0.56018  0  2.332876  0
O  O352  1  0.24332080  0.08447042  0.26931543  1  -1.199736  0  -0.342875  -0.595392  0  2.136527  0
O  O353  1  0.25665422  0.91553179  0.76931349  1  -1.200304  0  -0.342917  -0.595599  0  2.136441  0
O  O354  1  0.75666665  0.58447161  0.23068849  1  -1.200038  0  -0.342901  -0.595418  0  2.136645  0
O  O355  1  0.74334415  0.41553132  0.73068778  1  -1.200301  0  -0.342974  -0.595651  0  2.136534  0
