# generated using pymatgen
data_CuH16C20S4N4(ClO4)2
_symmetry_space_group_name_H-M   'P 1'
_cell_length_a   10.82822730
_cell_length_b   11.66748865
_cell_length_c   11.66738826
_cell_angle_alpha   109.33021985
_cell_angle_beta   90.00045287
_cell_angle_gamma   90.00005539
_symmetry_Int_Tables_number   1
_chemical_formula_structural   CuH16C20S4N4(ClO4)2
_chemical_formula_sum   'Cu2 H32 C40 S8 N8 Cl4 O16'
_cell_volume   1390.94041916
_cell_formula_units_Z   2
loop_
 _symmetry_equiv_pos_site_id
 _symmetry_equiv_pos_as_xyz
  1  'x, y, z'
loop_
 _atom_site_type_symbol
 _atom_site_label
 _atom_site_symmetry_multiplicity
 _atom_site_fract_x
 _atom_site_fract_y
 _atom_site_fract_z
 _atom_site_occupancy
 _atom_site_pbe_bader_charge
 _atom_site_pbe_bader_spin_density
 _atom_site_pbe_cm5_charge
 _atom_site_pbe_ddec_charge
 _atom_site_pbe_ddec_spin_density
 _atom_site_pbe_ddec_sum_bond_order
 _atom_site_pbe_magmom
Cu  Cu0  1  0.77673869  0.00000004  0.50000011  1  1.028311  -0.552939  0.776513  0.646446  -0.719247  2.281211  -0.552
Cu  Cu1  1  0.27673035  0.49999631  0.99999768  1  1.028267  -0.552993  0.776698  0.646561  -0.719334  2.281807  -0.552
H  H2  1  0.00001583  0.95931399  0.34414721  1  0.169425  -0.0023  0.120856  0.112402  -0.001109  1.017502  -0.002
H  H3  1  0.00001483  0.04068588  0.65584978  1  0.169408  -0.002299  0.120864  0.112355  -0.001109  1.017591  -0.002
H  H4  1  0.50000942  0.65585881  0.04069194  1  0.169315  -0.002295  0.120848  0.112384  -0.001106  1.01768  -0.002
H  H5  1  0.50000764  0.34414201  0.95930815  1  0.169322  -0.002296  0.120854  0.112396  -0.001106  1.017665  -0.002
H  H6  1  0.17627769  0.07824316  0.31203770  1  0.148692  -0.000971  0.10111  0.115305  -0.000513  1.068963  -0.001
H  H7  1  0.17627697  0.92175827  0.68796110  1  0.14872  -0.000971  0.101122  0.115347  -0.000513  1.06894  -0.001
H  H8  1  0.67627104  0.68796881  0.92175943  1  0.148366  -0.000971  0.101142  0.115396  -0.000513  1.068926  -0.001
H  H9  1  0.67627278  0.31203813  0.07824145  1  0.148723  -0.00097  0.101099  0.115293  -0.000513  1.068998  -0.001
H  H10  1  0.00030828  0.39945691  0.55976990  1  0.071483  -0.001275  0.102115  0.114469  -0.000651  1.01071  -0.001
H  H11  1  0.00030234  0.60054385  0.44023167  1  0.071455  -0.001275  0.102135  0.114548  -0.00065  1.010726  -0.001
H  H12  1  0.50029798  0.44023033  0.60054607  1  0.071477  -0.001275  0.102146  0.114575  -0.00065  1.010693  -0.001
H  H13  1  0.50029904  0.55977139  0.39945605  1  0.071423  -0.001275  0.102126  0.114552  -0.000651  1.010673  -0.001
H  H14  1  0.83127259  0.26561963  0.58393923  1  0.153706  -0.002164  0.112853  0.090076  -0.00099  1.047148  -0.002
H  H15  1  0.83126381  0.73437971  0.41606107  1  0.153614  -0.002165  0.112834  0.090092  -0.00099  1.047132  -0.002
H  H16  1  0.33126349  0.41606620  0.73438931  1  0.153634  -0.002161  0.112847  0.090068  -0.000987  1.047322  -0.002
H  H17  1  0.33126157  0.58393035  0.26561069  1  0.15381  -0.002161  0.112825  0.090025  -0.000988  1.047367  -0.002
H  H18  1  0.72449468  0.04562388  0.27614898  1  0.180201  -0.002298  0.116908  0.09357  -0.001105  1.024423  -0.002
H  H19  1  0.72449153  0.95437960  0.72385194  1  0.180224  -0.002297  0.116901  0.093559  -0.001104  1.024518  -0.002
H  H20  1  0.22448996  0.72384954  0.95437250  1  0.179867  -0.002293  0.116926  0.093636  -0.001102  1.024464  -0.002
H  H21  1  0.22448492  0.27614210  0.04561907  1  0.179912  -0.002294  0.116913  0.093586  -0.001102  1.024471  -0.002
H  H22  1  0.55560150  0.13137140  0.18491897  1  0.086493  -0.001211  0.115012  0.13468  -0.00062  0.970153  -0.001
H  H23  1  0.55559996  0.86863418  0.81508228  1  0.086273  -0.001211  0.114991  0.134648  -0.00062  0.970182  -0.001
H  H24  1  0.05559588  0.81508364  0.86862572  1  0.086493  -0.001211  0.115042  0.134665  -0.00062  0.97029  -0.001
H  H25  1  0.05559240  0.18491373  0.13136826  1  0.086438  -0.00121  0.11503  0.134618  -0.00062  0.970307  -0.001
H  H26  1  0.36543801  0.22296998  0.53158333  1  0.162474  -0.001033  0.104209  0.123687  -0.000545  1.050167  -0.001
H  H27  1  0.36543065  0.77703670  0.46841862  1  0.162482  -0.001034  0.104187  0.123706  -0.000545  1.050092  -0.001
H  H28  1  0.86542131  0.46842077  0.77703213  1  0.162172  -0.001034  0.104273  0.123785  -0.000545  1.050135  -0.001
H  H29  1  0.86542451  0.53158235  0.22296712  1  0.162254  -0.001034  0.104212  0.123733  -0.000545  1.050092  -0.001
H  H30  1  0.54412960  0.13895403  0.60896301  1  0.123355  -0.002323  0.122839  0.103325  -0.001063  0.996258  -0.001
H  H31  1  0.54412720  0.86104425  0.39103483  1  0.123338  -0.002323  0.122851  0.103335  -0.001063  0.996242  -0.001
H  H32  1  0.04412376  0.39103985  0.86103939  1  0.123349  -0.002318  0.122855  0.103323  -0.001061  0.996302  -0.001
H  H33  1  0.04412725  0.60895657  0.13895333  1  0.123366  -0.002318  0.122856  0.103293  -0.001061  0.99629  -0.001
C  C34  1  0.00327278  0.05689788  0.39077832  1  0.440459  0.000904  0.050408  0.114115  0.001373  3.886373  0.001
C  C35  1  0.00326956  0.94310289  0.60922328  1  0.440484  0.000905  0.050412  0.114148  0.001373  3.88639  0.001
C  C36  1  0.50327140  0.60923311  0.94310817  1  0.440318  0.000901  0.050329  0.114138  0.001371  3.886184  0.001
C  C37  1  0.50327027  0.39076773  0.05689195  1  0.440275  0.000901  0.050336  0.114057  0.001371  3.886113  0.001
C  C38  1  0.10169328  0.12468171  0.37193428  1  0.085669  -0.006169  -0.08978  -0.174093  -0.004181  3.951432  -0.005
C  C39  1  0.10168923  0.87531760  0.62806840  1  0.085638  -0.006169  -0.089817  -0.174158  -0.004181  3.951429  -0.005
C  C40  1  0.60169074  0.62807476  0.87531853  1  0.085898  -0.006167  -0.089786  -0.174297  -0.00418  3.951601  -0.005
C  C41  1  0.60169201  0.37193008  0.12468195  1  0.085591  -0.006168  -0.089742  -0.174076  -0.00418  3.951501  -0.005
C  C42  1  0.10259772  0.24962555  0.43258520  1  -0.236362  0.00352  0.007379  0.110197  0.003901  4.014273  0.002
C  C43  1  0.10259394  0.75037377  0.56741577  1  -0.236386  0.00352  0.007408  0.110289  0.003901  4.01436  0.002
C  C44  1  0.60259060  0.56741711  0.75037459  1  -0.236406  0.003522  0.007485  0.11051  0.003902  4.0143  0.002
C  C45  1  0.60259300  0.43258592  0.24962614  1  -0.236427  0.003522  0.007425  0.110308  0.003902  4.014482  0.002
C  C46  1  0.00387739  0.30234646  0.50981423  1  0.02612  -0.006406  -0.092403  -0.17012  -0.004259  3.955937  -0.005
C  C47  1  0.00387198  0.69765338  0.49018878  1  0.026132  -0.006406  -0.092442  -0.170275  -0.004259  3.956047  -0.005
C  C48  1  0.50387519  0.49018890  0.69765204  1  0.026145  -0.006405  -0.092465  -0.170333  -0.004258  3.956021  -0.005
C  C49  1  0.50387443  0.50981013  0.30234748  1  0.026177  -0.006405  -0.092435  -0.170257  -0.004258  3.955896  -0.005
C  C50  1  0.90897570  0.22820344  0.52382327  1  0.497681  0.00036  0.042076  0.094021  0.000568  3.940337  0.0
C  C51  1  0.90897209  0.77179800  0.47617916  1  0.497705  0.00036  0.042092  0.093989  0.000568  3.940242  0.0
C  C52  1  0.40896892  0.47617905  0.77179631  1  0.497501  0.000361  0.042105  0.094119  0.000568  3.940053  0.0
C  C53  1  0.40896570  0.52381871  0.22820209  1  0.497345  0.000361  0.042124  0.094092  0.000569  3.940092  0.0
C  C54  1  0.64459173  0.08858483  0.32973399  1  0.417128  0.000648  0.043209  0.096748  0.00106  3.956275  0.0
C  C55  1  0.64459085  0.91141562  0.67026789  1  0.417047  0.000647  0.043135  0.096637  0.001059  3.956484  0.0
C  C56  1  0.14458747  0.67027271  0.91140788  1  0.417613  0.000647  0.043078  0.096447  0.001057  3.956114  0.0
C  C57  1  0.14458285  0.32972407  0.08858741  1  0.417617  0.000648  0.043113  0.096572  0.001058  3.955917  0.0
C  C58  1  0.54948918  0.13552153  0.27943302  1  0.068357  -0.006068  -0.086006  -0.165398  -0.004126  3.942725  -0.005
C  C59  1  0.54948868  0.86448311  0.72056787  1  0.068584  -0.006067  -0.085958  -0.165313  -0.004126  3.942831  -0.005
C  C60  1  0.04948309  0.72057170  0.86446974  1  0.068627  -0.006066  -0.085978  -0.165199  -0.004124  3.94289  -0.005
C  C61  1  0.04947697  0.27942655  0.13552535  1  0.068578  -0.006066  -0.085995  -0.165193  -0.004125  3.942753  -0.005
C  C62  1  0.44734999  0.18685592  0.35212456  1  -0.170253  0.003481  0.010465  0.105802  0.003859  4.012879  0.002
C  C63  1  0.44734696  0.81314925  0.64787576  1  -0.170471  0.003481  0.010482  0.105924  0.003859  4.012777  0.002
C  C64  1  0.94734263  0.64787940  0.81314254  1  -0.170821  0.003482  0.010487  0.105928  0.00386  4.012749  0.002
C  C65  1  0.94734257  0.35212220  0.18685765  1  -0.170711  0.003482  0.010499  0.10597  0.00386  4.012801  0.002
C  C66  1  0.44443220  0.18825153  0.47234872  1  0.007137  -0.006236  -0.0858  -0.163348  -0.004235  3.921878  -0.005
C  C67  1  0.44442723  0.81175091  0.52765151  1  0.007265  -0.006236  -0.085818  -0.163469  -0.004235  3.921848  -0.005
C  C68  1  0.94441503  0.52765385  0.81174116  1  0.007183  -0.006233  -0.085854  -0.163506  -0.004233  3.921879  -0.005
C  C69  1  0.94442065  0.47234593  0.18825754  1  0.006919  -0.006234  -0.085802  -0.163481  -0.004233  3.921832  -0.005
C  C70  1  0.54414582  0.14011464  0.51594397  1  0.470401  0.000599  0.055097  0.12085  0.001026  3.892995  0.0
C  C71  1  0.54414330  0.85988362  0.48405559  1  0.470451  0.000599  0.055066  0.120833  0.001026  3.893063  0.0
C  C72  1  0.04413026  0.48405570  0.85987872  1  0.470596  0.000598  0.055016  0.120873  0.001024  3.892567  0.0
C  C73  1  0.04413460  0.51594343  0.14011834  1  0.470823  0.000599  0.055041  0.120974  0.001024  3.892538  0.0
S  S74  1  0.22169569  0.34738204  0.41779287  1  0.080604  0.000262  0.052896  0.012211  0.000564  2.849354  0.0
S  S75  1  0.22169471  0.65262139  0.58220608  1  0.081118  0.000262  0.052901  0.012197  0.000564  2.849434  0.0
S  S76  1  0.72168540  0.58221058  0.65262226  1  0.081142  0.000263  0.052829  0.012147  0.000565  2.849392  0.0
S  S77  1  0.72169139  0.41779926  0.34738078  1  0.080813  0.000263  0.052861  0.012185  0.000565  2.849431  0.0
S  S78  1  0.33004058  0.24367054  0.28088037  1  0.099775  0.000364  0.072293  0.043703  0.000691  2.847073  0.0
S  S79  1  0.33003810  0.75633601  0.71912042  1  0.099821  0.000364  0.072285  0.043656  0.000691  2.847097  0.0
S  S80  1  0.83003329  0.71912343  0.75633473  1  0.099743  0.000364  0.072283  0.043624  0.000692  2.847053  0.0
S  S81  1  0.83003456  0.28088225  0.24366942  1  0.099511  0.000365  0.072299  0.043628  0.000692  2.847102  0.0
N  N82  1  0.90871127  0.10722168  0.46558014  1  -1.24441  -0.097781  -0.34913  -0.231619  -0.065491  3.60674  -0.084
N  N83  1  0.90870736  0.89277977  0.53442058  1  -1.244457  -0.097779  -0.349166  -0.231612  -0.065489  3.606694  -0.084
N  N84  1  0.40868780  0.53442131  0.89279472  1  -1.243914  -0.097784  -0.349142  -0.231769  -0.06549  3.606087  -0.084
N  N85  1  0.40868625  0.46557644  0.10720539  1  -1.24393  -0.097788  -0.349107  -0.231584  -0.065493  3.606127  -0.084
N  N86  1  0.64269810  0.09118734  0.44610919  1  -1.238531  -0.097501  -0.350829  -0.242335  -0.06525  3.617627  -0.084
N  N87  1  0.64269900  0.90881039  0.55388919  1  -1.238447  -0.097504  -0.350723  -0.242211  -0.065252  3.617557  -0.084
N  N88  1  0.14270990  0.55388457  0.90881530  1  -1.238253  -0.097496  -0.3508  -0.24236  -0.065245  3.616762  -0.084
N  N89  1  0.14271004  0.44611130  0.09117966  1  -1.238249  -0.097501  -0.350829  -0.242465  -0.065248  3.616783  -0.084
Cl  Cl90  1  0.74822209  0.23426531  0.81108142  1  3.059605  0.00016  0.718929  1.295353  0.000179  6.772384  0.0
Cl  Cl91  1  0.74821232  0.76572552  0.18891969  1  3.06043  0.00016  0.718981  1.295292  0.000179  6.77198  0.0
Cl  Cl92  1  0.24821113  0.18891877  0.76572114  1  3.060448  0.00016  0.718998  1.295422  0.000179  6.772102  0.0
Cl  Cl93  1  0.24821196  0.81108019  0.23427992  1  3.060813  0.00016  0.71893  1.295252  0.000179  6.772149  0.0
O  O94  1  0.81811768  0.13473011  0.72365245  1  -0.995154  0.000706  -0.32651  -0.555851  0.000984  2.20034  0.0
O  O95  1  0.81810877  0.86526280  0.27634987  1  -0.994909  0.000706  -0.326501  -0.555828  0.000984  2.200144  0.0
O  O96  1  0.31811224  0.27634600  0.86525916  1  -0.994847  0.000707  -0.326511  -0.555877  0.000984  2.200214  0.0
O  O97  1  0.31811120  0.72365686  0.13474201  1  -0.994798  0.000706  -0.326474  -0.555793  0.000984  2.200225  0.0
O  O98  1  0.82632584  0.29454115  0.91510106  1  -1.001968  8.2e-05  -0.315709  -0.486776  0.000119  2.06501  0.0
O  O99  1  0.82631420  0.70544998  0.08489986  1  -1.002582  8.2e-05  -0.315716  -0.48675  0.000118  2.064885  0.0
O  O100  1  0.32631132  0.08489822  0.70544372  1  -1.002588  8.2e-05  -0.315658  -0.486753  0.000118  2.064942  0.0
O  O101  1  0.32631092  0.91510010  0.29456112  1  -1.002984  8.1e-05  -0.315604  -0.486686  0.000118  2.065027  0.0
O  O102  1  0.71121397  0.32095259  0.75052032  1  -0.981262  -0.000517  -0.324733  -0.521839  -0.000315  2.106105  0.0
O  O103  1  0.71120002  0.67903719  0.24948103  1  -0.981229  -0.000517  -0.324781  -0.52187  -0.000315  2.106099  0.0
O  O104  1  0.21119734  0.24947823  0.67903118  1  -0.981335  -0.000516  -0.324802  -0.521907  -0.000314  2.106097  0.0
O  O105  1  0.21119885  0.75051788  0.32096694  1  -0.981382  -0.000516  -0.324846  -0.521903  -0.000314  2.106039  0.0
O  O106  1  0.63853299  0.18382728  0.84907950  1  -0.995203  -0.000362  -0.315998  -0.492351  -0.000235  2.0554  0.0
O  O107  1  0.63852387  0.81616586  0.15092159  1  -0.995651  -0.000362  -0.316011  -0.492326  -0.000235  2.055337  0.0
O  O108  1  0.13852578  0.15092063  0.81616545  1  -0.995618  -0.000362  -0.316045  -0.492353  -0.000235  2.055388  0.0
O  O109  1  0.13852622  0.84908064  0.18383644  1  -0.995585  -0.000362  -0.316033  -0.492319  -0.000235  2.055277  0.0
