# generated using pymatgen
data_ZnCr2H22C32(NO5)2
_symmetry_space_group_name_H-M   'P 1'
_cell_length_a   6.07791930
_cell_length_b   22.14296541
_cell_length_c   28.74091687
_cell_angle_alpha   90.00062849
_cell_angle_beta   90.00032950
_cell_angle_gamma   90.00047245
_symmetry_Int_Tables_number   1
_chemical_formula_structural   ZnCr2H22C32(NO5)2
_chemical_formula_sum   'Zn4 Cr8 H88 C128 N8 O40'
_cell_volume   3868.04332033
_cell_formula_units_Z   4
loop_
 _symmetry_equiv_pos_site_id
 _symmetry_equiv_pos_as_xyz
  1  'x, y, z'
loop_
 _atom_site_type_symbol
 _atom_site_label
 _atom_site_symmetry_multiplicity
 _atom_site_fract_x
 _atom_site_fract_y
 _atom_site_fract_z
 _atom_site_occupancy
 _atom_site_pbe_bader_charge
 _atom_site_pbe_bader_spin_density
 _atom_site_pbe_cm5_charge
 _atom_site_pbe_ddec_charge
 _atom_site_pbe_ddec_spin_density
 _atom_site_pbe_ddec_sum_bond_order
 _atom_site_pbe_magmom
Zn  Zn0  1  0.14677888  0.12203845  0.89725708  1  1.242589  0  0.69322  0.746613  0  2.384952  0
Zn  Zn1  1  0.85322110  0.87796129  0.39725671  1  1.24269  0  0.693238  0.746635  0  2.384943  0
Zn  Zn2  1  0.64678394  0.37795849  0.39725375  1  1.242537  0  0.693175  0.746541  0  2.385224  0
Zn  Zn3  1  0.35321111  0.62204396  0.89725379  1  1.242878  0  0.693153  0.746594  0  2.385131  0
Cr  Cr4  1  0.82790080  0.04992500  0.71290254  1  1.070821  0  0.711115  0.402214  0  4.737181  0
Cr  Cr5  1  0.17207747  0.95008215  0.21290207  1  1.070771  0  0.711105  0.401988  0  4.737575  0
Cr  Cr6  1  0.32794028  0.45007983  0.21289500  1  1.07053  0  0.711034  0.401873  0  4.737619  0
Cr  Cr7  1  0.67199357  0.54991648  0.71288700  1  1.070469  0  0.711107  0.401627  0  4.737846  0
Cr  Cr8  1  0.88290876  0.20316499  0.08460512  1  1.075692  0  0.711673  0.399379  0  4.740534  0
Cr  Cr9  1  0.11715242  0.79683427  0.58460190  1  1.07594  0  0.711726  0.399597  0  4.740095  0
Cr  Cr10  1  0.38289987  0.29683137  0.58460320  1  1.076181  0  0.711642  0.399494  0  4.740288  0
Cr  Cr11  1  0.61711359  0.70316292  0.08460348  1  1.076038  0  0.711604  0.399346  0  4.740308  0
H  H12  1  0.60332389  0.07435058  0.80422541  1  0.10823  0  0.110022  0.126249  0  1.011349  0
H  H13  1  0.39664382  0.92566370  0.30422856  1  0.108099  0  0.109971  0.12617  0  1.01146  0
H  H14  1  0.10340721  0.42565603  0.30422349  1  0.108346  0  0.109956  0.126158  0  1.011254  0
H  H15  1  0.89655062  0.57433657  0.80421586  1  0.108914  0  0.109933  0.126122  0  1.011276  0
H  H16  1  0.34860973  0.06530843  0.73612658  1  0.116092  0  0.108558  0.113634  0  1.017515  0
H  H17  1  0.65136962  0.93470344  0.23613341  1  0.11593  0  0.108573  0.113641  0  1.01744  0
H  H18  1  0.84865122  0.43470469  0.23613052  1  0.116114  0  0.108555  0.11358  0  1.017576  0
H  H19  1  0.15128207  0.56529273  0.73612321  1  0.116599  0  0.108535  0.113592  0  1.017869  0
H  H20  1  0.45690351  0.10776795  0.65872778  1  0.127995  0  0.116666  0.133418  0  0.997031  0
H  H21  1  0.54309529  0.89223557  0.15873616  1  0.128199  0  0.116521  0.133261  0  0.997115  0
H  H22  1  0.95689341  0.39224153  0.15872844  1  0.127825  0  0.116629  0.133386  0  0.997007  0
H  H23  1  0.04303793  0.60775612  0.65872263  1  0.127441  0  0.116619  0.13332  0  0.997133  0
H  H24  1  0.82383380  0.15834924  0.64975383  1  0.145963  0  0.117485  0.132807  0  0.996493  0
H  H25  1  0.17617939  0.84165059  0.14975418  1  0.146017  0  0.117449  0.132738  0  0.996547  0
H  H26  1  0.32381076  0.34165415  0.14974293  1  0.146012  0  0.117488  0.132801  0  0.996578  0
H  H27  1  0.67613332  0.65834929  0.64973899  1  0.146152  0  0.117474  0.13265  0  0.996816  0
H  H28  1  0.07684500  0.16797107  0.71827732  1  0.152867  0  0.119812  0.144338  0  0.974617  0
H  H29  1  0.92315492  0.83203071  0.21827469  1  0.15289  0  0.119837  0.144405  0  0.974541  0
H  H30  1  0.57685410  0.33202808  0.21826022  1  0.15317  0  0.11984  0.144358  0  0.974431  0
H  H31  1  0.42310468  0.66797054  0.71825769  1  0.152796  0  0.119849  0.144454  0  0.974419  0
H  H32  1  0.63833996  0.17556952  0.99491025  1  0.136286  0  0.111787  0.130922  0  0.998984  0
H  H33  1  0.36170075  0.82444236  0.49490351  1  0.135444  0  0.111829  0.130865  0  0.998944  0
H  H34  1  0.13832029  0.32443010  0.49490785  1  0.136156  0  0.111753  0.130853  0  0.999078  0
H  H35  1  0.86169081  0.67556598  0.99490835  1  0.136251  0  0.111813  0.130928  0  0.999009  0
H  H36  1  0.39871396  0.18815935  0.06500223  1  0.120644  0  0.107622  0.112166  0  1.02449  0
H  H37  1  0.60133479  0.81185193  0.56499519  1  0.120515  0  0.107595  0.112093  0  1.024742  0
H  H38  1  0.89870491  0.31184403  0.56500136  1  0.120758  0  0.107647  0.112209  0  1.024495  0
H  H39  1  0.10130928  0.68815009  0.06500371  1  0.120757  0  0.107584  0.112151  0  1.024596  0
H  H40  1  0.52219862  0.14817709  0.14224729  1  0.145686  0  0.115956  0.131798  0  1.018181  0
H  H41  1  0.47784219  0.85182176  0.64224380  1  0.145343  0  0.115956  0.131816  0  1.018203  0
H  H42  1  0.02220955  0.35182513  0.64224671  1  0.145339  0  0.115982  0.131854  0  1.018075  0
H  H43  1  0.97780164  0.64817192  0.14224787  1  0.145228  0  0.115958  0.131852  0  1.018039  0
H  H44  1  0.88430059  0.09614212  0.14924370  1  0.119311  0  0.121525  0.137387  0  0.958549  0
H  H45  1  0.11573232  0.90385093  0.64924556  1  0.118953  0  0.121531  0.137348  0  0.958652  0
H  H46  1  0.38432614  0.40385435  0.64924233  1  0.119856  0  0.121506  0.137327  0  0.958629  0
H  H47  1  0.61569361  0.59614050  0.14923857  1  0.119421  0  0.12148  0.137341  0  0.958695  0
H  H48  1  0.12724821  0.08423869  0.07836684  1  0.150239  0  0.12117  0.146524  0  0.966875  0
H  H49  1  0.87278799  0.91576052  0.57836668  1  0.150496  0  0.121157  0.146559  0  0.966704  0
H  H50  1  0.62726015  0.41575460  0.57836231  1  0.15061  0  0.121144  0.146538  0  0.96692  0
H  H51  1  0.37276947  0.58423557  0.07835798  1  0.150246  0  0.121132  0.146536  0  0.966871  0
H  H52  1  0.15255081  0.01023926  0.84232395  1  0.133201  0  0.117158  0.087958  0  1.032929  0
H  H53  1  0.84744005  0.98975818  0.34232627  1  0.133161  0  0.117146  0.088007  0  1.032913  0
H  H54  1  0.65256605  0.48975808  0.34232435  1  0.133089  0  0.117144  0.087994  0  1.03286  0
H  H55  1  0.34742480  0.51024433  0.84232065  1  0.133036  0  0.117147  0.087988  0  1.032879  0
H  H56  1  0.39543500  0.92144750  0.82995707  1  0.111255  0  0.116274  0.130715  0  0.985377  0
H  H57  1  0.60455528  0.07854848  0.32996116  1  0.111364  0  0.116311  0.130736  0  0.985535  0
H  H58  1  0.89545392  0.57854712  0.32996031  1  0.111368  0  0.116338  0.130804  0  0.98552  0
H  H59  1  0.10455282  0.42144932  0.82995896  1  0.111302  0  0.116305  0.130772  0  0.985479  0
H  H60  1  0.83128077  0.99632766  0.93419225  1  0.094738  0  0.114394  0.126145  0  0.977415  0
H  H61  1  0.16872916  0.00367285  0.43419671  1  0.094459  0  0.114389  0.126212  0  0.977424  0
H  H62  1  0.33128946  0.50367028  0.43419479  1  0.094584  0  0.114399  0.126199  0  0.977357  0
H  H63  1  0.66872704  0.49632753  0.93419521  1  0.094784  0  0.114378  0.126195  0  0.977415  0
H  H64  1  0.56859350  0.08170209  0.94260551  1  0.133056  0  0.122082  0.102236  0  1.007976  0
H  H65  1  0.43141023  0.91829849  0.44260859  1  0.133011  0  0.122077  0.102239  0  1.00806  0
H  H66  1  0.06860047  0.41829813  0.44260734  1  0.132925  0  0.122092  0.102279  0  1.00818  0
H  H67  1  0.93139174  0.58170651  0.94260363  1  0.13294  0  0.122085  0.102219  0  1.008118  0
H  H68  1  0.95438025  0.90966591  0.88237818  1  0.039714  0  0.096913  0.097154  0  0.994104  0
H  H69  1  0.04562069  0.09033731  0.38238465  1  0.039758  0  0.09691  0.097095  0  0.994156  0
H  H70  1  0.45439354  0.59033264  0.38238695  1  0.039548  0  0.096964  0.097205  0  0.99409  0
H  H71  1  0.54562220  0.40966154  0.88238144  1  0.039769  0  0.096933  0.097075  0  0.99413  0
H  H72  1  0.76702916  0.87645722  0.84270420  1  0.0536  0  0.104132  0.110918  0  0.963775  0
H  H73  1  0.23296665  0.12353978  0.34270904  1  0.053804  0  0.104098  0.110844  0  0.963723  0
H  H74  1  0.26706523  0.62353511  0.34270675  1  0.053491  0  0.104075  0.110848  0  0.963812  0
H  H75  1  0.73297665  0.37645557  0.84270788  1  0.053711  0  0.10413  0.110887  0  0.963659  0
H  H76  1  0.73410718  0.86852924  0.94958731  1  0.05347  0  0.10437  0.111285  0  0.963922  0
H  H77  1  0.26591333  0.13148179  0.44958981  1  0.053455  0  0.104353  0.111223  0  0.963831  0
H  H78  1  0.23409461  0.63148441  0.44958682  1  0.053686  0  0.104361  0.111238  0  0.963853  0
H  H79  1  0.76588641  0.36852075  0.94958995  1  0.053366  0  0.104395  0.111244  0  0.963923  0
H  H80  1  0.54767087  0.83500307  0.90986462  1  0.04664  0  0.096866  0.097378  0  0.99537  0
H  H81  1  0.45234122  0.16500220  0.40986549  1  0.046503  0  0.096858  0.097331  0  0.995224  0
H  H82  1  0.04767616  0.66500300  0.40985826  1  0.046689  0  0.0969  0.097408  0  0.995093  0
H  H83  1  0.95232770  0.33499684  0.90986872  1  0.046254  0  0.096875  0.097395  0  0.995289  0
H  H84  1  0.93275724  0.66157934  0.85245875  1  0.154394  0  0.120154  0.096694  0  1.018621  0
H  H85  1  0.06722915  0.33841549  0.35245004  1  0.15435  0  0.120194  0.096741  0  1.018491  0
H  H86  1  0.43278820  0.83841765  0.35245129  1  0.154511  0  0.120231  0.096759  0  1.018452  0
H  H87  1  0.56721135  0.16158034  0.85245298  1  0.154346  0  0.120175  0.096674  0  1.018481  0
H  H88  1  0.66901314  0.74678417  0.85986572  1  0.087616  0  0.114427  0.127086  0  0.980768  0
H  H89  1  0.33097524  0.25321208  0.35985889  1  0.087123  0  0.114448  0.127136  0  0.98064  0
H  H90  1  0.16903469  0.75321350  0.35985552  1  0.087126  0  0.11443  0.127135  0  0.980614  0
H  H91  1  0.83096356  0.24678546  0.85985760  1  0.087121  0  0.114412  0.127129  0  0.980726  0
H  H92  1  0.10849336  0.82503947  0.96185830  1  0.088712  0  0.115044  0.129923  0  0.995277  0
H  H93  1  0.89153265  0.17497393  0.46186049  1  0.088996  0  0.115027  0.129869  0  0.994944  0
H  H94  1  0.60847829  0.67497098  0.46185919  1  0.08896  0  0.115  0.129775  0  0.994982  0
H  H95  1  0.39153456  0.32502887  0.96186308  1  0.088925  0  0.114971  0.129849  0  0.994873  0
H  H96  1  0.35153440  0.73595080  0.95083347  1  0.111605  0  0.118076  0.087563  0  1.022652  0
H  H97  1  0.64848288  0.26405934  0.45083383  1  0.111391  0  0.118078  0.087575  0  1.022608  0
H  H98  1  0.85153895  0.76405673  0.45083471  1  0.111557  0  0.118071  0.087542  0  1.022565  0
H  H99  1  0.14847503  0.23594258  0.95083920  1  0.111244  0  0.118054  0.087596  0  1.022703  0
C  C100  1  0.85498863  0.12294343  0.76576837  1  -0.10916  0  -0.053044  -0.05077  0  3.956149  0
C  C101  1  0.14500032  0.87706193  0.26576843  1  -0.113241  0  -0.052976  -0.050833  0  3.956299  0
C  C102  1  0.35502805  0.37705639  0.26575823  1  -0.112901  0  -0.052928  -0.050565  0  3.955998  0
C  C103  1  0.64491977  0.62293994  0.76575352  1  -0.113622  0  -0.052869  -0.050534  0  3.955823  0
C  C104  1  0.64692939  0.09397513  0.77085673  1  -0.084987  0  -0.124062  -0.128515  0  3.955998  0
C  C105  1  0.35304335  0.90603750  0.27086033  1  -0.084646  0  -0.124078  -0.128435  0  3.955882  0
C  C106  1  0.14698954  0.40603154  0.27085250  1  -0.084405  0  -0.123989  -0.128464  0  3.955934  0
C  C107  1  0.85296345  0.59396302  0.77084717  1  -0.084583  0  -0.124004  -0.12832  0  3.955918  0
C  C108  1  0.50490433  0.08876941  0.73246333  1  -0.132407  0  -0.11467  -0.064853  0  3.95832  0
C  C109  1  0.49507814  0.91124334  0.23246808  1  -0.132268  0  -0.114627  -0.064844  0  3.958355  0
C  C110  1  0.00495015  0.41124358  0.23246194  1  -0.132528  0  -0.114629  -0.064742  0  3.958361  0
C  C111  1  0.99500106  0.58875607  0.73245695  1  -0.132661  0  -0.114605  -0.064853  0  3.958287  0
C  C112  1  0.56549259  0.11312993  0.68853343  1  -0.064079  0  -0.118005  -0.108941  0  3.93689  0
C  C113  1  0.43449772  0.88687747  0.18853753  1  -0.064238  0  -0.117813  -0.10854  0  3.936714  0
C  C114  1  0.06550822  0.38688073  0.18853036  1  -0.063848  0  -0.118014  -0.108898  0  3.936915  0
C  C115  1  0.93443931  0.61311944  0.68852285  1  -0.063675  0  -0.117976  -0.108694  0  3.936351  0
C  C116  1  0.77109209  0.14162133  0.68347986  1  -0.142431  0  -0.113263  -0.076424  0  3.961905  0
C  C117  1  0.22890621  0.85838376  0.18348182  1  -0.142207  0  -0.113233  -0.076526  0  3.962008  0
C  C118  1  0.27108702  0.35838428  0.18347229  1  -0.142608  0  -0.113309  -0.07657  0  3.96211  0
C  C119  1  0.72885533  0.64161494  0.68346851  1  -0.141935  0  -0.113243  -0.076361  0  3.962116  0
C  C120  1  0.91605237  0.14692956  0.72199504  1  -0.144766  0  -0.116122  -0.123383  0  3.92092  0
C  C121  1  0.08393784  0.85307451  0.22199480  1  -0.141078  0  -0.116185  -0.123361  0  3.920964  0
C  C122  1  0.41606986  0.35306973  0.22198393  1  -0.141826  0  -0.116129  -0.123307  0  3.920418  0
C  C123  1  0.58388416  0.64692667  0.72197947  1  -0.141655  0  -0.116279  -0.123588  0  3.920705  0
C  C124  1  0.01103653  0.12844476  0.80642318  1  1.587596  0  0.196827  0.561151  0  4.228546  0
C  C125  1  0.98894772  0.87155644  0.30642209  1  1.587496  0  0.196686  0.561064  0  4.228733  0
C  C126  1  0.51108379  0.37154854  0.30641246  1  1.580767  0  0.196504  0.560837  0  4.228062  0
C  C127  1  0.48886756  0.62845040  0.80640706  1  1.581344  0  0.196296  0.560728  0  4.228478  0
C  C128  1  0.02552260  0.03775257  0.66601795  1  0.781629  0  -0.031025  -0.044246  0  3.760703  0
C  C129  1  0.97443376  0.96225327  0.16601860  1  0.782161  0  -0.030935  -0.044125  0  3.760627  0
C  C130  1  0.52557318  0.46224985  0.16601038  1  0.782314  0  -0.030858  -0.043921  0  3.760746  0
C  C131  1  0.47429104  0.53775509  0.66600947  1  0.782263  0  -0.03085  -0.04385  0  3.76025  0
C  C132  1  0.98257662  0.99700364  0.74829112  1  0.760696  0  -0.048444  -0.059496  0  3.795343  0
C  C133  1  0.01740987  0.00300247  0.24828855  1  0.760534  0  -0.048583  -0.059663  0  3.795584  0
C  C134  1  0.48261487  0.50299955  0.24828878  1  0.760752  0  -0.04862  -0.059669  0  3.796051  0
C  C135  1  0.51736834  0.49699301  0.74828358  1  0.760972  0  -0.048628  -0.059595  0  3.796101  0
C  C136  1  0.67787507  0.98319757  0.69429444  1  0.807209  0  -0.030611  -0.028429  0  3.772797  0
C  C137  1  0.32212702  0.01680581  0.19428902  1  0.807521  0  -0.030527  -0.028243  0  3.77302  0
C  C138  1  0.17790470  0.51680812  0.19428566  1  0.807361  0  -0.030467  -0.028171  0  3.773001  0
C  C139  1  0.82203487  0.48319165  0.69426823  1  0.807476  0  -0.030379  -0.02816  0  3.773288  0
C  C140  1  0.89691222  0.12845253  0.03234644  1  -0.142564  0  -0.050693  -0.048037  0  3.95452  0
C  C141  1  0.10312349  0.87155350  0.53234374  1  -0.142222  0  -0.050721  -0.048363  0  3.954596  0
C  C142  1  0.39690357  0.37154424  0.53234295  1  -0.142518  0  -0.050693  -0.048177  0  3.954571  0
C  C143  1  0.60311570  0.62844869  0.03234166  1  -0.14249  0  -0.050679  -0.048022  0  3.95449  0
C  C144  1  0.68900185  0.15766655  0.02842081  1  -0.121312  0  -0.118294  -0.119405  0  3.944229  0
C  C145  1  0.31104026  0.84234170  0.52841541  1  -0.120499  0  -0.11848  -0.119155  0  3.943994  0
C  C146  1  0.18899547  0.34233293  0.52841768  1  -0.121281  0  -0.118303  -0.119267  0  3.944289  0
C  C147  1  0.81102197  0.65766132  0.02841784  1  -0.121338  0  -0.118494  -0.119504  0  3.944283  0
C  C148  1  0.55516452  0.16461942  0.06788616  1  -0.073486  0  -0.11563  -0.07209  0  3.964535  0
C  C149  1  0.44487120  0.83538782  0.56788003  1  -0.074069  0  -0.115568  -0.072209  0  3.965002  0
C  C150  1  0.05515915  0.33538117  0.56788539  1  -0.073918  0  -0.115623  -0.072193  0  3.964462  0
C  C151  1  0.94485025  0.66461252  0.06788603  1  -0.073995  0  -0.115486  -0.072032  0  3.964699  0
C  C152  1  0.62394296  0.14160320  0.11165848  1  -0.124813  0  -0.120296  -0.113435  0  3.95834  0
C  C153  1  0.37610631  0.85839901  0.61165642  1  -0.125019  0  -0.120231  -0.113451  0  3.958216  0
C  C154  1  0.12394955  0.35839807  0.61165693  1  -0.12419  0  -0.120359  -0.113521  0  3.958187  0
C  C155  1  0.87606845  0.64159781  0.11165623  1  -0.124398  0  -0.12024  -0.113414  0  3.958169  0
C  C156  1  0.82889837  0.11237699  0.11549782  1  -0.102694  0  -0.109988  -0.068442  0  3.951693  0
C  C157  1  0.17113627  0.88762254  0.61549777  1  -0.101034  0  -0.110019  -0.068358  0  3.951418  0
C  C158  1  0.32890763  0.38762203  0.61549591  1  -0.103264  0  -0.109943  -0.068309  0  3.951733  0
C  C159  1  0.67111055  0.61237118  0.11549585  1  -0.102547  0  -0.109976  -0.06844  0  3.95152  0
C  C160  1  0.96642776  0.10563998  0.07590269  1  -0.136116  0  -0.114762  -0.124097  0  3.922614  0
C  C161  1  0.03361656  0.89436146  0.57590267  1  -0.136956  0  -0.114687  -0.123986  0  3.922409  0
C  C162  1  0.46643270  0.39435837  0.57589982  1  -0.136537  0  -0.114683  -0.124077  0  3.92255  0
C  C163  1  0.53358694  0.60563268  0.07589475  1  -0.135991  0  -0.114628  -0.123952  0  3.922347  0
C  C164  1  0.04256276  0.12098130  0.99023078  1  1.586482  0  0.198035  0.564173  0  4.228276  0
C  C165  1  0.95746622  0.87902241  0.49022802  1  1.586575  0  0.19792  0.563961  0  4.228602  0
C  C166  1  0.54255640  0.37901850  0.49022606  1  1.586202  0  0.197896  0.563865  0  4.229057  0
C  C167  1  0.45744132  0.62097889  0.99022474  1  1.586609  0  0.197917  0.563797  0  4.229248  0
C  C168  1  0.03376608  0.25554860  0.04801598  1  0.754273  0  -0.048663  -0.059971  0  3.795484  0
C  C169  1  0.96630491  0.74444898  0.54800967  1  0.754547  0  -0.048723  -0.060122  0  3.795667  0
C  C170  1  0.53375748  0.24444555  0.54801362  1  0.754586  0  -0.048701  -0.060177  0  3.795402  0
C  C171  1  0.46625922  0.75554616  0.04801237  1  0.753995  0  -0.048585  -0.05986  0  3.795425  0
C  C172  1  0.74510035  0.27074652  0.10534422  1  0.805616  0  -0.029596  -0.023441  0  3.759493  0
C  C173  1  0.25496837  0.72925111  0.60533782  1  0.80478  0  -0.029638  -0.023804  0  3.759234  0
C  C174  1  0.24509354  0.22925214  0.60534498  1  0.805566  0  -0.029723  -0.023626  0  3.759297  0
C  C175  1  0.75491924  0.77074413  0.10534541  1  0.805552  0  -0.029694  -0.023713  0  3.759124  0
C  C176  1  0.08675465  0.21460632  0.13012203  1  0.778112  0  -0.031646  -0.039736  0  3.76152  0
C  C177  1  0.91332344  0.78538430  0.63011897  1  0.780187  0  -0.031843  -0.040031  0  3.761636  0
C  C178  1  0.58673497  0.28538526  0.63012155  1  0.778665  0  -0.03178  -0.039948  0  3.761691  0
C  C179  1  0.41327402  0.71460988  0.13011945  1  0.778373  0  -0.03182  -0.039962  0  3.76156  0
C  C180  1  0.30340693  0.00482120  0.86229616  1  0.471598  0  0.044751  0.088999  0  3.962702  0
C  C181  1  0.69658321  0.99517416  0.36230059  1  0.47142  0  0.044841  0.088957  0  3.962973  0
C  C182  1  0.80342596  0.49517371  0.36229942  1  0.471523  0  0.04486  0.089085  0  3.963105  0
C  C183  1  0.19657241  0.50482753  0.86229664  1  0.472094  0  0.044859  0.089094  0  3.962826  0
C  C184  1  0.44023537  0.95535179  0.85579117  1  -0.060466  0  -0.081957  -0.18868  0  3.937834  0
C  C185  1  0.55975611  0.04464894  0.35579520  1  -0.060342  0  -0.082055  -0.188748  0  3.937793  0
C  C186  1  0.94025284  0.54464612  0.35579333  1  -0.060297  0  -0.082184  -0.189011  0  3.937871  0
C  C187  1  0.05974851  0.45535100  0.85579375  1  -0.060403  0  -0.082118  -0.188954  0  3.938098  0
C  C188  1  0.63444695  0.95055918  0.88183210  1  -0.044654  0  0.018921  0.174134  0  3.945716  0
C  C189  1  0.36556054  0.04943861  0.38183890  1  -0.044665  0  0.018827  0.174024  0  3.945762  0
C  C190  1  0.13445981  0.54943696  0.38183727  1  -0.044972  0  0.019003  0.174324  0  3.945744  0
C  C191  1  0.86555920  0.45055993  0.88183513  1  -0.044879  0  0.018888  0.174135  0  3.946025  0
C  C192  1  0.68120758  0.99700833  0.91338531  1  -0.008708  0  -0.076897  -0.173619  0  3.911773  0
C  C193  1  0.31879645  0.00299516  0.41338981  1  -0.008348  0  -0.076911  -0.17376  0  3.911514  0
C  C194  1  0.18121785  0.50299294  0.41338714  1  -0.008429  0  -0.076955  -0.173797  0  3.911741  0
C  C195  1  0.81878452  0.49700784  0.91338693  1  -0.008643  0  -0.076909  -0.173663  0  3.911289  0
C  C196  1  0.53648160  0.04512517  0.91826160  1  0.497036  0  0.058268  0.121334  0  3.908784  0
C  C197  1  0.46352594  0.95487249  0.41826547  1  0.49714  0  0.058366  0.121466  0  3.908466  0
C  C198  1  0.03649026  0.45487085  0.41826525  1  0.497101  0  0.058307  0.121368  0  3.908562  0
C  C199  1  0.96351399  0.54513132  0.91826078  1  0.497343  0  0.058341  0.121346  0  3.908613  0
C  C200  1  0.78142561  0.89637519  0.87762631  1  0.018305  0  -0.149266  -0.19626  0  3.931993  0
C  C201  1  0.21857511  0.10362663  0.37763160  1  0.018004  0  -0.149271  -0.196204  0  3.931684  0
C  C202  1  0.28144340  0.60362373  0.37763002  1  0.018513  0  -0.149338  -0.196425  0  3.931936  0
C  C203  1  0.71857870  0.39637222  0.87763068  1  0.018225  0  -0.149344  -0.196262  0  3.931866  0
C  C204  1  0.72046428  0.84839088  0.91472574  1  -0.020054  0  -0.150261  -0.199013  0  3.934694  0
C  C205  1  0.27955297  0.15161578  0.41472709  1  -0.020051  0  -0.15025  -0.198771  0  3.93417  0
C  C206  1  0.22046176  0.65161482  0.41472375  1  -0.020206  0  -0.150259  -0.198787  0  3.934158  0
C  C207  1  0.77954068  0.34838552  0.91472769  1  -0.019677  0  -0.150244  -0.198819  0  3.934385  0
C  C208  1  0.96576420  0.69885490  0.87603860  1  0.463534  0  0.057929  0.123663  0  3.910426  0
C  C209  1  0.03422493  0.30114329  0.37603466  1  0.46394  0  0.05787  0.123504  0  3.910673  0
C  C210  1  0.46578189  0.80114176  0.37603453  1  0.463118  0  0.057764  0.12351  0  3.910452  0
C  C211  1  0.53420065  0.19885779  0.87603768  1  0.463695  0  0.057832  0.123554  0  3.910794  0
C  C212  1  0.82005544  0.74685092  0.88036266  1  -0.00425  0  -0.078373  -0.176866  0  3.911286  0
C  C213  1  0.17995199  0.25315093  0.38035646  1  -0.00403  0  -0.07836  -0.17682  0  3.910878  0
C  C214  1  0.32007040  0.75315245  0.38035594  1  -0.003637  0  -0.078441  -0.176987  0  3.911232  0
C  C215  1  0.67994361  0.24684804  0.88035483  1  -0.003524  0  -0.078338  -0.176907  0  3.910756  0
C  C216  1  0.86788882  0.79425025  0.91096391  1  -0.068189  0  0.017779  0.174279  0  3.94779  0
C  C217  1  0.13211674  0.20575367  0.41096446  1  -0.067938  0  0.017798  0.174141  0  3.947644  0
C  C218  1  0.36789288  0.70575372  0.41096082  1  -0.068312  0  0.017902  0.174276  0  3.947335  0
C  C219  1  0.63209951  0.29424658  0.91096582  1  -0.068201  0  0.017853  0.174313  0  3.947559  0
C  C220  1  0.06322736  0.79039048  0.93670023  1  0.0424  0  -0.083295  -0.192395  0  3.941443  0
C  C221  1  0.93679256  0.20961953  0.43669971  1  0.042224  0  -0.083257  -0.192213  0  3.941306  0
C  C222  1  0.56323189  0.70961894  0.43669735  1  0.042417  0  -0.083284  -0.192188  0  3.941395  0
C  C223  1  0.43679460  0.29037933  0.93670119  1  0.042117  0  -0.083307  -0.192361  0  3.941643  0
C  C224  1  0.20018795  0.74077002  0.93091065  1  0.450693  0  0.046271  0.093897  0  3.960772  0
C  C225  1  0.79982346  0.25923814  0.43091102  1  0.449866  0  0.046197  0.093736  0  3.960745  0
C  C226  1  0.70018384  0.75923271  0.43090871  1  0.45016  0  0.046162  0.093765  0  3.960957  0
C  C227  1  0.29981441  0.24076416  0.93091609  1  0.449842  0  0.046255  0.093713  0  3.960524  0
N  N228  1  0.34976927  0.04896261  0.89311347  1  -1.269542  0  -0.333889  -0.243813  0  3.592864  0
N  N229  1  0.65022888  0.95103618  0.39311423  1  -1.269364  0  -0.333875  -0.243752  0  3.593715  0
N  N230  1  0.84977111  0.45103607  0.39311308  1  -1.269222  0  -0.333864  -0.243823  0  3.59364  0
N  N231  1  0.15021387  0.54896724  0.89311010  1  -1.269848  0  -0.333854  -0.243755  0  3.593811  0
N  N232  1  0.15335339  0.69582655  0.90089986  1  -1.264794  0  -0.333171  -0.242341  0  3.598587  0
N  N233  1  0.84665828  0.30417773  0.40089555  1  -1.264305  0  -0.333139  -0.242195  0  3.59867  0
N  N234  1  0.65336983  0.80417648  0.40089600  1  -1.264393  0  -0.333009  -0.242184  0  3.598188  0
N  N235  1  0.34665171  0.19582103  0.90089696  1  -1.264038  0  -0.333144  -0.242171  0  3.598478  0
O  O236  1  0.93250819  0.10953311  0.84604515  1  -1.170308  0  -0.33606  -0.556007  0  2.315371  0
O  O237  1  0.06748448  0.89046844  0.34604638  1  -1.170389  0  -0.33609  -0.556055  0  2.315238  0
O  O238  1  0.43255376  0.39045187  0.34603621  1  -1.169859  0  -0.336042  -0.556002  0  2.315407  0
O  O239  1  0.56740601  0.60954877  0.84603166  1  -1.170494  0  -0.33604  -0.556018  0  2.315491  0
O  O240  1  0.19741370  0.15066015  0.80090856  1  -1.171564  0  -0.318218  -0.530941  0  2.131301  0
O  O241  1  0.80257853  0.84934190  0.30090679  1  -1.171533  0  -0.318077  -0.530809  0  2.131588  0
O  O242  1  0.69747703  0.34933402  0.30089445  1  -1.164952  0  -0.31803  -0.530715  0  2.130703  0
O  O243  1  0.30248558  0.65066352  0.80088785  1  -1.165387  0  -0.317798  -0.530582  0  2.130936  0
O  O244  1  0.15230178  0.03015575  0.63574715  1  -1.120741  0  -0.187651  -0.141492  0  2.445193  0
O  O245  1  0.84764660  0.96984757  0.13574889  1  -1.12104  0  -0.187739  -0.141565  0  2.445146  0
O  O246  1  0.65235305  0.46984702  0.13573966  1  -1.121377  0  -0.18784  -0.141796  0  2.445198  0
O  O247  1  0.34747851  0.53017165  0.63574384  1  -1.121546  0  -0.187862  -0.141806  0  2.445081  0
O  O248  1  0.07864934  0.96036426  0.77015400  1  -1.155709  0  -0.206602  -0.172071  0  2.453875  0
O  O249  1  0.92131349  0.03964385  0.27015462  1  -1.155768  0  -0.206608  -0.17207  0  2.453842  0
O  O250  1  0.57867130  0.53963419  0.27015714  1  -1.155632  0  -0.206401  -0.171833  0  2.454664  0
O  O251  1  0.42131457  0.46035811  0.77015600  1  -1.155976  0  -0.206499  -0.171973  0  2.454492  0
O  O252  1  0.58209169  0.93906624  0.68419602  1  -1.140839  0  -0.187336  -0.145582  0  2.472911  0
O  O253  1  0.41793296  0.06092757  0.18419045  1  -1.141156  0  -0.187291  -0.145566  0  2.473315  0
O  O254  1  0.08210231  0.56093281  0.18419088  1  -1.140993  0  -0.187394  -0.145689  0  2.47339  0
O  O255  1  0.91782692  0.43906868  0.68417158  1  -1.140985  0  -0.187459  -0.145582  0  2.473687  0
O  O256  1  0.94546511  0.13256389  0.95077959  1  -1.160704  0  -0.33655  -0.555724  0  2.312941  0
O  O257  1  0.05455545  0.86743812  0.45077707  1  -1.160965  0  -0.336473  -0.555571  0  2.313233  0
O  O258  1  0.44544442  0.36743733  0.45077351  1  -1.160662  0  -0.336457  -0.555564  0  2.313277  0
O  O259  1  0.55456627  0.63256377  0.95077236  1  -1.161132  0  -0.336543  -0.555691  0  2.313075  0
O  O260  1  0.23687530  0.10419337  0.99463141  1  -1.167823  0  -0.317288  -0.533297  0  2.129875  0
O  O261  1  0.76315387  0.89580722  0.49462948  1  -1.16776  0  -0.31723  -0.533192  0  2.129844  0
O  O262  1  0.73684744  0.39580421  0.49462585  1  -1.16778  0  -0.317186  -0.533067  0  2.130413  0
O  O263  1  0.26316858  0.60419909  0.99462217  1  -1.167732  0  -0.317092  -0.53294  0  2.130861  0
O  O264  1  0.12822554  0.29209770  0.02579179  1  -1.149696  0  -0.205807  -0.170196  0  2.456306  0
O  O265  1  0.87185265  0.70790150  0.52578328  1  -1.14977  0  -0.205709  -0.17002  0  2.456535  0
O  O266  1  0.62819551  0.20789287  0.52579040  1  -1.149993  0  -0.205757  -0.170017  0  2.456195  0
O  O267  1  0.37181028  0.79209187  0.02578537  1  -1.149401  0  -0.205815  -0.170191  0  2.456435  0
O  O268  1  0.66174193  0.31576504  0.11797350  1  -1.143554  0  -0.185675  -0.150671  0  2.474068  0
O  O269  1  0.33834712  0.68423225  0.61795652  1  -1.142971  0  -0.185599  -0.150278  0  2.473915  0
O  O270  1  0.16173760  0.18423574  0.61798070  1  -1.143682  0  -0.185555  -0.1505  0  2.473916  0
O  O271  1  0.83827741  0.81576290  0.11797959  1  -1.143625  0  -0.185597  -0.150463  0  2.473708  0
O  O272  1  0.21632630  0.22123188  0.16004946  1  -1.125186  0  -0.188117  -0.141409  0  2.444037  0
O  O273  1  0.78378115  0.77874636  0.66004940  1  -1.127127  0  -0.188065  -0.141284  0  2.443995  0
O  O274  1  0.71629121  0.27875424  0.66004890  1  -1.125796  0  -0.187984  -0.141222  0  2.444257  0
O  O275  1  0.28370600  0.72124117  0.16004718  1  -1.125558  0  -0.188026  -0.141301  0  2.44404  0
