# generated using pymatgen
data_ZnH10C16N3O4
_symmetry_space_group_name_H-M   'P 1'
_cell_length_a   7.71475304
_cell_length_b   10.47718133
_cell_length_c   13.25649502
_cell_angle_alpha   106.62949293
_cell_angle_beta   105.32701190
_cell_angle_gamma   92.66506455
_symmetry_Int_Tables_number   1
_chemical_formula_structural   ZnH10C16N3O4
_chemical_formula_sum   'Zn2 H20 C32 N6 O8'
_cell_volume   981.48811712
_cell_formula_units_Z   2
loop_
 _symmetry_equiv_pos_site_id
 _symmetry_equiv_pos_as_xyz
  1  'x, y, z'
loop_
 _atom_site_type_symbol
 _atom_site_label
 _atom_site_symmetry_multiplicity
 _atom_site_fract_x
 _atom_site_fract_y
 _atom_site_fract_z
 _atom_site_occupancy
 _atom_site_hle17_bader_spin_density
 _atom_site_hle17_ddec_charge
 _atom_site_hle17_ddec_spin_density
 _atom_site_hle17_ddec_sum_bond_order
 _atom_site_hle17_magmom
 _atom_site_hse06_10hf_bader_spin_density
 _atom_site_hse06_10hf_ddec_charge
 _atom_site_hse06_10hf_ddec_spin_density
 _atom_site_hse06_10hf_ddec_sum_bond_order
 _atom_site_hse06_10hf_magmom
 _atom_site_hse06_bader_spin_density
 _atom_site_hse06_ddec_charge
 _atom_site_hse06_ddec_spin_density
 _atom_site_hse06_ddec_sum_bond_order
 _atom_site_hse06_magmom
 _atom_site_pbe_bader_spin_density
 _atom_site_pbe_cm5_charge
 _atom_site_pbe_ddec_charge
 _atom_site_pbe_ddec_spin_density
 _atom_site_pbe_ddec_sum_bond_order
 _atom_site_pbe_magmom
Zn  Zn0  1  0.72358607  0.04938700  0.29215920  1  0  1.034163  0  1.869106  0  0  0.860916  0  2.338093  0  0  0.914171  0  2.27221  0  0  0.671749  0.823913  0  2.383144  0
Zn  Zn1  1  0.38594745  0.87699997  0.18240015  1  0  1.031503  0  1.903046  0  0  0.860169  0  2.37755  0  0  0.912246  0  2.311509  0  0  0.673096  0.823946  0  2.422762  0
H  H2  1  0.38968931  0.83295166  0.86309041  1  0  0.105551  0  0.943859  0  0  0.113424  0  1.005422  0  0  0.117447  0  1.002346  0  0  0.103234  0.110396  0  1.007804  0
H  H3  1  0.38574563  0.83028989  0.67453325  1  0  0.092622  0  0.947923  0  0  0.105474  0  1.002296  0  0  0.108602  0  1.000967  0  0  0.101876  0.103196  0  1.003363  0
H  H4  1  0.82628932  0.15614707  0.81297448  1  0  0.091457  0  0.944999  0  0  0.10201  0  1.003689  0  0  0.105244  0  1.002433  0  0  0.099062  0.099731  0  1.004613  0
H  H5  1  0.83159258  0.15458885  0.00189391  1  0  0.10381  0  0.95482  0  0  0.11366  0  1.016054  0  0  0.116693  0  1.014361  0  0  0.105338  0.11143  0  1.017332  0
H  H6  1  0.71539415  0.06409226  0.61704211  1  0  0.099764  0  0.937164  0  0  0.107877  0  1.001758  0  0  0.111593  0  0.998154  0  0  0.104397  0.105105  0  1.004475  0
H  H7  1  0.36874063  0.85869700  0.52055595  1  0  0.114882  0  0.944981  0  0  0.126241  0  1.00007  0  0  0.130388  0  0.998316  0  0  0.104888  0.123261  0  1.001463  0
H  H8  1  0.72399983  0.53654502  0.18158378  1  0  0.112271  0  0.951011  0  0  0.122018  0  1.009308  0  0  0.126131  0  1.007534  0  0  0.101954  0.119128  0  1.010676  0
H  H9  1  0.08187345  0.73139034  0.29185376  1  0  0.108933  0  0.952228  0  0  0.115487  0  1.020563  0  0  0.119437  0  1.016477  0  0  0.104079  0.112609  0  1.023554  0
H  H10  1  0.85380855  0.36666190  0.19765543  1  0  0.09712  0  0.947618  0  0  0.109157  0  1.00493  0  0  0.112539  0  1.002915  0  0  0.102194  0.106647  0  1.006605  0
H  H11  1  0.02457206  0.17485168  0.18981399  1  0  0.107303  0  0.977596  0  0  0.111388  0  1.05109  0  0  0.115641  0  1.046966  0  0  0.100973  0.108393  0  1.054022  0
H  H12  1  0.52819022  0.43897982  0.30708600  1  0  0.100708  0  0.941608  0  0  0.110014  0  1.001649  0  0  0.113809  0  0.998808  0  0  0.102234  0.107311  0  1.003653  0
H  H13  1  0.35573899  0.63540589  0.30788309  1  0  0.10864  0  0.965744  0  0  0.115646  0  1.029915  0  0  0.118963  0  1.028713  0  0  0.099512  0.113092  0  1.031074  0
H  H14  1  0.31508516  0.61687983  0.01115590  1  0  0.098657  0  0.929895  0  0  0.103434  0  0.995397  0  0  0.10677  0  0.99194  0  0  0.125455  0.100975  0  0.997955  0
H  H15  1  0.05131060  0.46608771  0.86273495  1  0  0.113887  0  0.949986  0  0  0.117473  0  1.018761  0  0  0.121482  0  1.016253  0  0  0.112505  0.114595  0  1.020759  0
H  H16  1  0.70385294  0.74801127  0.98158927  1  0  0.120999  0  0.965248  0  0  0.12392  0  1.03671  0  0  0.126907  0  1.035938  0  0  0.114374  0.121802  0  1.037336  0
H  H17  1  0.98262633  0.89166287  0.11958252  1  0  0.103712  0  0.933765  0  0  0.109922  0  0.998027  0  0  0.112827  0  0.995414  0  0  0.126699  0.107699  0  1.000139  0
H  H18  1  0.40594357  0.17513481  0.48913430  1  0  0.121375  0  0.967716  0  0  0.124099  0  1.039163  0  0  0.127174  0  1.038234  0  0  0.114778  0.121885  0  1.039974  0
H  H19  1  0.12821617  0.04784760  0.34060051  1  0  0.105222  0  0.936802  0  0  0.109864  0  1.002864  0  0  0.112772  0  1.000387  0  0  0.126058  0.107623  0  1.00494  0
H  H20  1  0.79291055  0.28525932  0.48837989  1  0  0.097372  0  0.9235  0  0  0.102644  0  0.988483  0  0  0.105761  0  0.98533  0  0  0.125012  0.100332  0  0.990837  0
H  H21  1  0.05609218  0.41685600  0.64783894  1  0  0.113063  0  0.954666  0  0  0.115611  0  1.025255  0  0  0.119544  0  1.023109  0  0  0.111225  0.112813  0  1.026929  0
C  C22  1  0.60904187  0.98840940  0.05531623  1  0  0.650422  0  3.896602  0  0  0.599027  0  4.188039  0  0  0.634463  0  4.180813  0  0  0.210328  0.575095  0  4.19214  0
C  C23  1  0.61021755  0.99375882  0.94367862  1  0  -0.06293  0  3.749337  0  0  -0.039682  0  3.982742  0  0  -0.048465  0  4.006659  0  0  -0.018182  -0.034103  0  3.966727  0
C  C24  1  0.48446200  0.90312652  0.85054956  1  0  -0.072224  0  3.76515  0  0  -0.097422  0  4.016856  0  0  -0.097067  0  4.037054  0  0  -0.08803  -0.097488  0  4.003156  0
C  C25  1  0.48261983  0.90264060  0.74571322  1  0  -0.113927  0  3.74705  0  0  -0.130895  0  3.988836  0  0  -0.134926  0  4.010649  0  0  -0.090129  -0.128258  0  3.973962  0
C  C26  1  0.60531249  0.99415403  0.73020316  1  0  0.08413  0  3.827301  0  0  0.1039  0  4.058832  0  0  0.103934  0  4.084092  0  0  -0.011604  0.103911  0  4.041675  0
C  C27  1  0.73048962  0.08496523  0.82407218  1  0  -0.117117  0  3.735778  0  0  -0.135919  0  3.982242  0  0  -0.140639  0  4.004581  0  0  -0.090821  -0.132779  0  3.966953  0
C  C28  1  0.73372049  0.08473614  0.92964131  1  0  -0.065202  0  3.743037  0  0  -0.088838  0  3.988319  0  0  -0.087852  0  4.008619  0  0  -0.084358  -0.089384  0  3.974523  0
C  C29  1  0.60643095  0.99689713  0.62118020  1  0  -0.041148  0  3.737489  0  0  -0.069952  0  3.994787  0  0  -0.06584  0  4.01209  0  0  -0.076242  -0.072433  0  3.982952  0
C  C30  1  0.48463569  0.92596691  0.52496429  1  0  -0.237204  0  3.677483  0  0  -0.251444  0  3.933224  0  0  -0.263744  0  3.950378  0  0  -0.101696  -0.243483  0  3.921494  0
C  C31  1  0.49621698  0.93770012  0.41821491  1  0  0.687378  0  3.914428  0  0  0.642071  0  4.199753  0  0  0.678303  0  4.192008  0  0  0.202189  0.617745  0  4.203942  0
C  C32  1  0.72529072  0.75235271  0.22419277  1  0  0.694869  0  3.902002  0  0  0.650234  0  4.18507  0  0  0.68692  0  4.177298  0  0  0.202587  0.625371  0  4.189396  0
C  C33  1  0.81610045  0.63058330  0.21911420  1  0  -0.246929  0  3.692637  0  0  -0.260506  0  3.948099  0  0  -0.273705  0  3.965845  0  0  -0.107643  -0.251601  0  3.935764  0
C  C34  1  0.99724793  0.63355657  0.25673978  1  0  -0.039305  0  3.723781  0  0  -0.066119  0  3.976743  0  0  -0.061399  0  3.994115  0  0  -0.07634  -0.068969  0  3.964559  0
C  C35  1  0.09281243  0.51624219  0.25331093  1  0  0.082085  0  3.818009  0  0  0.101831  0  4.048663  0  0  0.101522  0  4.073734  0  0  -0.011794  0.102014  0  4.031381  0
C  C36  1  0.00142341  0.38464821  0.21999222  1  0  -0.111066  0  3.725452  0  0  -0.128807  0  3.969523  0  0  -0.132635  0  3.990867  0  0  -0.089864  -0.126224  0  3.955052  0
C  C37  1  0.09742138  0.27574285  0.21666699  1  0  -0.07866  0  3.764213  0  0  -0.10536  0  4.019251  0  0  -0.105184  0  4.039868  0  0  -0.092432  -0.105406  0  4.005235  0
C  C38  1  0.28783321  0.29472314  0.24913220  1  0  -0.073152  0  3.771422  0  0  -0.049625  0  4.003112  0  0  -0.058903  0  4.028164  0  0  -0.023926  -0.043314  0  3.985982  0
C  C39  1  0.38862946  0.17630557  0.24893684  1  0  0.657175  0  3.8841  0  0  0.607301  0  4.172489  0  0  0.643013  0  4.165228  0  0  0.211843  0.583063  0  4.176634  0
C  C40  1  0.38036480  0.42498887  0.28269965  1  0  -0.068125  0  3.749726  0  0  -0.091967  0  3.997331  0  0  -0.091448  0  4.017519  0  0  -0.088121  -0.09198  0  3.983206  0
C  C41  1  0.28410135  0.53431952  0.28406433  1  0  -0.112767  0  3.707402  0  0  -0.131165  0  3.954332  0  0  -0.135349  0  3.975872  0  0  -0.089923  -0.127985  0  3.939361  0
C  C42  1  0.17704499  0.64177673  0.00026043  1  0  0.145922  0  3.653031  0  0  0.11586  0  3.900003  0  0  0.122182  0  3.919287  0  0  0.061536  0.111825  0  3.886829  0
C  C43  1  0.03057243  0.55861156  0.91885156  1  0  -0.135909  0  3.695613  0  0  -0.156496  0  3.941553  0  0  -0.164435  0  3.964169  0  0  -0.071798  -0.151316  0  3.926275  0
C  C44  1  0.85640344  0.59610818  0.91137043  1  0  0.040759  0  3.773213  0  0  0.052959  0  4.000641  0  0  0.054455  0  4.025254  0  0  0.014708  0.052307  0  3.983786  0
C  C45  1  0.83717659  0.71690517  0.98473891  1  0  -0.124562  0  3.674481  0  0  -0.147915  0  3.927144  0  0  -0.15588  0  3.9505  0  0  -0.068053  -0.142808  0  3.911415  0
C  C46  1  0.99143071  0.79608609  0.06208570  1  0  0.15542  0  3.636681  0  0  0.122844  0  3.888275  0  0  0.129709  0  3.906629  0  0  0.066036  0.118412  0  3.875846  0
C  C47  1  0.69579257  0.51138168  0.82750492  1  0  0.264701  0  3.722812  0  0  0.25753  0  3.977132  0  0  0.263763  0  3.992882  0  0  0.25384  0.253137  0  3.966074  0
C  C48  1  0.41300066  0.37670127  0.67242022  1  0  0.262163  0  3.720249  0  0  0.255444  0  3.973083  0  0  0.261595  0  3.988941  0  0  0.253022  0.250925  0  3.962568  0
C  C49  1  0.25268260  0.30547210  0.58058710  1  0  0.04292  0  3.765921  0  0  0.054696  0  3.993339  0  0  0.056282  0  4.017854  0  0  0.014727  0.053938  0  3.976681  0
C  C50  1  0.27245450  0.20156649  0.49218706  1  0  -0.123416  0  3.666697  0  0  -0.14608  0  3.918085  0  0  -0.154041  0  3.941489  0  0  -0.068263  -0.14099  0  3.902407  0
C  C51  1  0.11827207  0.13170447  0.40891051  1  0  0.152185  0  3.638392  0  0  0.119822  0  3.890036  0  0  0.126493  0  3.908585  0  0  0.064101  0.11546  0  3.8776  0
C  C52  1  0.93146249  0.26472805  0.49270238  1  0  0.145832  0  3.660029  0  0  0.114611  0  3.907348  0  0  0.121258  0  3.92628  0  0  0.060226  0.11035  0  3.894399  0
C  C53  1  0.07789027  0.33755041  0.58048840  1  0  -0.13668  0  3.694329  0  0  -0.156569  0  3.940547  0  0  -0.164594  0  3.962951  0  0  -0.072637  -0.151333  0  3.925414  0
N  N54  1  0.15751220  0.75818489  0.07048934  1  0  -0.291001  0  3.240726  0  0  -0.209518  0  3.508817  0  0  -0.228835  0  3.523896  0  0  -0.314959  -0.196455  0  3.498338  0
N  N55  1  0.53110735  0.53168995  0.84253641  1  0  -0.143464  0  2.922276  0  0  -0.127191  0  3.193584  0  0  -0.128874  0  3.202348  0  0  -0.13753  -0.125894  0  3.187462  0
N  N56  1  0.38679187  0.46251676  0.76352642  1  0  -0.156999  0  2.927352  0  0  -0.13996  0  3.195902  0  0  -0.142131  0  3.204906  0  0  -0.143921  -0.138231  0  3.189756  0
N  N57  1  0.57787743  0.34568172  0.66334017  1  0  -0.139264  0  2.933527  0  0  -0.121276  0  3.205945  0  0  -0.123583  0  3.215925  0  0  -0.133657  -0.119532  0  3.199313  0
N  N58  1  0.72205516  0.41395092  0.74261260  1  0  -0.16126  0  2.93638  0  0  -0.144981  0  3.208519  0  0  -0.147601  0  3.218095  0  0  -0.143952  -0.142999  0  3.201839  0
N  N59  1  0.95137950  0.16343091  0.40884022  1  0  -0.292234  0  3.249321  0  0  -0.207997  0  3.513818  0  0  -0.227577  0  3.529222  0  0  -0.313694  -0.194775  0  3.503252  0
O  O60  1  0.47880447  0.91107341  0.05734669  1  0  -0.640948  0  2.097176  0  0  -0.577984  0  2.359803  0  0  -0.606402  0  2.346526  0  0  -0.317679  -0.558349  0  2.368149  0
O  O61  1  0.73733866  0.05799564  0.13882531  1  0  -0.619413  0  2.044307  0  0  -0.550964  0  2.300467  0  0  -0.580012  0  2.287953  0  0  -0.309041  -0.530968  0  2.308468  0
O  O62  1  0.36412887  0.87401253  0.33364747  1  0  -0.633468  0  2.037018  0  0  -0.564217  0  2.293853  0  0  -0.593263  0  2.279663  0  0  -0.314258  -0.544084  0  2.303094  0
O  O63  1  0.63215814  0.01060863  0.41742833  1  0  -0.650803  0  2.071932  0  0  -0.586804  0  2.329859  0  0  -0.615825  0  2.31675  0  0  -0.320695  -0.566793  0  2.338137  0
O  O64  1  0.55209949  0.73094739  0.18695130  1  0  -0.641947  0  2.052249  0  0  -0.575389  0  2.311621  0  0  -0.604862  0  2.297598  0  0  -0.320219  -0.554824  0  2.320319  0
O  O65  1  0.82114258  0.86780927  0.26342021  1  0  -0.64768  0  2.06089  0  0  -0.578595  0  2.318878  0  0  -0.608298  0  2.305361  0  0  -0.320289  -0.557899  0  2.327451  0
O  O66  1  0.29437362  0.06033229  0.20658978  1  0  -0.638499  0  2.087302  0  0  -0.571104  0  2.350787  0  0  -0.600047  0  2.337018  0  0  -0.316703  -0.550914  0  2.359626  0
O  O67  1  0.56006869  0.19916813  0.29183479  1  0  -0.631672  0  2.063231  0  0  -0.567839  0  2.322831  0  0  -0.596615  0  2.309183  0  0  -0.317379  -0.547861  0  2.331484  0
