# generated using pymatgen
data_ZnH30C30(N4O3)2
_symmetry_space_group_name_H-M   'P 1'
_cell_length_a   9.01635475
_cell_length_b   13.48149566
_cell_length_c   13.09375149
_cell_angle_alpha   81.52715162
_cell_angle_beta   69.84933791
_cell_angle_gamma   70.45535543
_symmetry_Int_Tables_number   1
_chemical_formula_structural   ZnH30C30(N4O3)2
_chemical_formula_sum   'Zn2 H60 C60 N16 O12'
_cell_volume   1407.15593194
_cell_formula_units_Z   2
loop_
 _symmetry_equiv_pos_site_id
 _symmetry_equiv_pos_as_xyz
  1  'x, y, z'
loop_
 _atom_site_type_symbol
 _atom_site_label
 _atom_site_symmetry_multiplicity
 _atom_site_fract_x
 _atom_site_fract_y
 _atom_site_fract_z
 _atom_site_occupancy
 _atom_site_hle17_bader_spin_density
 _atom_site_hle17_ddec_charge
 _atom_site_hle17_ddec_spin_density
 _atom_site_hle17_ddec_sum_bond_order
 _atom_site_hle17_magmom
 _atom_site_hse06_10hf_bader_spin_density
 _atom_site_hse06_10hf_ddec_charge
 _atom_site_hse06_10hf_ddec_spin_density
 _atom_site_hse06_10hf_ddec_sum_bond_order
 _atom_site_hse06_10hf_magmom
 _atom_site_hse06_bader_spin_density
 _atom_site_hse06_ddec_charge
 _atom_site_hse06_ddec_spin_density
 _atom_site_hse06_ddec_sum_bond_order
 _atom_site_hse06_magmom
 _atom_site_pbe_bader_spin_density
 _atom_site_pbe_cm5_charge
 _atom_site_pbe_ddec_charge
 _atom_site_pbe_ddec_spin_density
 _atom_site_pbe_ddec_sum_bond_order
 _atom_site_pbe_magmom
Zn  Zn0  1  0.93842632  0.25008265  0.25035191  1  0  0.958832  0  1.871006  0  0  0.776506  0  2.299233  0  0  0.81913  0  2.25713  0  0  0.680004  0.747128  0  2.327424  0
Zn  Zn1  1  0.06157167  0.74991558  0.74964854  1  0  0.958785  0  1.871026  0  0  0.776453  0  2.299272  0  0  0.819098  0  2.257167  0  0  0.679976  0.747077  0  2.327461  0
H  H2  1  0.08554461  0.35384436  0.35180297  1  0  0.412136  0  0.90157  0  0  0.37787  0  0.971052  0  0  0.390361  0  0.953217  0  0  0.274461  0.36909  0  0.98353  0
H  H3  1  0.29130142  0.14665333  0.14907584  1  0  0.41352  0  0.899776  0  0  0.378591  0  0.970228  0  0  0.391094  0  0.952379  0  0  0.274352  0.369796  0  0.982734  0
H  H4  1  0.91445564  0.64615153  0.64819997  1  0  0.412129  0  0.901585  0  0  0.377839  0  0.971092  0  0  0.390331  0  0.953255  0  0  0.274479  0.369063  0  0.983564  0
H  H5  1  0.70870457  0.85334961  0.85092362  1  0  0.413555  0  0.899713  0  0  0.378572  0  0.970249  0  0  0.391079  0  0.952395  0  0  0.274341  0.369778  0  0.982754  0
H  H6  1  0.17317835  0.33855575  0.22588246  1  0  0.402776  0  0.871289  0  0  0.374046  0  0.950813  0  0  0.384084  0  0.938409  0  0  0.291579  0.366894  0  0.959576  0
H  H7  1  0.23767786  0.16212784  0.27500278  1  0  0.403027  0  0.870843  0  0  0.374048  0  0.951242  0  0  0.384132  0  0.938712  0  0  0.291286  0.366843  0  0.960135  0
H  H8  1  0.82681494  0.66144722  0.77411900  1  0  0.40274  0  0.87129  0  0  0.37401  0  0.950812  0  0  0.38405  0  0.938406  0  0  0.291557  0.36686  0  0.959573  0
H  H9  1  0.76232067  0.83787275  0.72499709  1  0  0.402992  0  0.870885  0  0  0.374014  0  0.951277  0  0  0.384098  0  0.938748  0  0  0.29128  0.366811  0  0.960166  0
H  H10  1  0.34299544  0.19886545  0.86438633  1  0  0.10523  0  0.961921  0  0  0.111949  0  1.03211  0  0  0.115002  0  1.030798  0  0  0.10204  0.109611  0  1.033267  0
H  H11  1  0.90662317  0.30085302  0.63592440  1  0  0.105446  0  0.962041  0  0  0.112097  0  1.032287  0  0  0.115174  0  1.030956  0  0  0.101973  0.109775  0  1.033421  0
H  H12  1  0.65699060  0.80113442  0.13562156  1  0  0.105315  0  0.961866  0  0  0.112048  0  1.032035  0  0  0.115077  0  1.030755  0  0  0.102078  0.109717  0  1.033186  0
H  H13  1  0.09338084  0.69914983  0.36406536  1  0  0.1055  0  0.962128  0  0  0.112156  0  1.032356  0  0  0.115232  0  1.031029  0  0  0.101986  0.109834  0  1.033484  0
H  H14  1  0.37545867  0.08058628  0.56650581  1  0  0.099794  0  0.945575  0  0  0.108906  0  1.011728  0  0  0.112829  0  1.008747  0  0  0.101968  0.106103  0  1.013988  0
H  H15  1  0.52252079  0.41939176  0.93365502  1  0  0.100263  0  0.945083  0  0  0.108921  0  1.011678  0  0  0.112909  0  1.008613  0  0  0.101731  0.106125  0  1.013908  0
H  H16  1  0.62454032  0.91941278  0.43349907  1  0  0.099812  0  0.945505  0  0  0.108929  0  1.01165  0  0  0.112846  0  1.008677  0  0  0.10198  0.106128  0  1.01391  0
H  H17  1  0.47748828  0.58060878  0.06633913  1  0  0.100318  0  0.945181  0  0  0.108927  0  1.011817  0  0  0.112914  0  1.008751  0  0  0.101759  0.106132  0  1.014047  0
H  H18  1  0.21076149  0.35972723  0.04495838  1  0  0.097004  0  0.990427  0  0  0.105229  0  1.056339  0  0  0.107638  0  1.053614  0  0  0.131172  0.103481  0  1.058421  0
H  H19  1  0.11518772  0.14023590  0.45544679  1  0  0.096159  0  0.99215  0  0  0.104751  0  1.057295  0  0  0.107159  0  1.054585  0  0  0.130857  0.102986  0  1.059416  0
H  H20  1  0.78924657  0.64026546  0.95503967  1  0  0.097003  0  0.990459  0  0  0.105223  0  1.056366  0  0  0.107634  0  1.053639  0  0  0.131117  0.103477  0  1.058448  0
H  H21  1  0.88480433  0.85975600  0.54455110  1  0  0.096191  0  0.992004  0  0  0.10472  0  1.057239  0  0  0.107123  0  1.054531  0  0  0.130877  0.102962  0  1.059345  0
H  H22  1  0.17749663  0.41275330  0.61774235  1  0  0.107048  0  0.950272  0  0  0.116132  0  1.014448  0  0  0.119975  0  1.011482  0  0  0.105045  0.113331  0  1.016551  0
H  H23  1  0.70757590  0.08723961  0.88259105  1  0  0.107681  0  0.949141  0  0  0.116989  0  1.013145  0  0  0.12083  0  1.010182  0  0  0.105303  0.11419  0  1.01523  0
H  H24  1  0.82250970  0.58724811  0.38226110  1  0  0.107017  0  0.950307  0  0  0.116169  0  1.014408  0  0  0.120013  0  1.011444  0  0  0.105068  0.11337  0  1.016508  0
H  H25  1  0.29242908  0.91276251  0.11740398  1  0  0.107641  0  0.949021  0  0  0.116952  0  1.013039  0  0  0.120792  0  1.010079  0  0  0.105291  0.114154  0  1.015125  0
H  H26  1  0.30996797  0.41471364  0.84253538  1  0  0.089961  0  0.929924  0  0  0.103251  0  0.995726  0  0  0.10375  0  0.996483  0  0  0.112547  0.102523  0  0.995744  0
H  H27  1  0.06723411  0.08501270  0.65784784  1  0  0.08927  0  0.930373  0  0  0.102223  0  0.996415  0  0  0.102769  0  0.997115  0  0  0.112303  0.101463  0  0.996482  0
H  H28  1  0.69003345  0.58528622  0.15747137  1  0  0.089952  0  0.929897  0  0  0.103267  0  0.995663  0  0  0.10377  0  0.996417  0  0  0.112532  0.102538  0  0.995681  0
H  H29  1  0.93276214  0.91498546  0.34214500  1  0  0.089349  0  0.930376  0  0  0.102287  0  0.996431  0  0  0.102822  0  0.997122  0  0  0.112323  0.101527  0  0.996498  0
H  H30  1  0.14584096  0.48167519  0.78744160  1  0  0.099241  0  0.942304  0  0  0.109144  0  1.012306  0  0  0.110533  0  1.011147  0  0  0.111605  0.108196  0  1.01294  0
H  H31  1  0.91490411  0.01814685  0.71299463  1  0  0.097597  0  0.945307  0  0  0.107377  0  1.015541  0  0  0.108744  0  1.014389  0  0  0.111023  0.106415  0  1.016235  0
H  H32  1  0.85416434  0.51832621  0.21256051  1  0  0.099335  0  0.942209  0  0  0.109235  0  1.012199  0  0  0.110624  0  1.01104  0  0  0.111617  0.108287  0  1.012842  0
H  H33  1  0.08509296  0.98184981  0.28700637  1  0  0.097617  0  0.945253  0  0  0.107415  0  1.015487  0  0  0.108771  0  1.014329  0  0  0.111019  0.106449  0  1.016184  0
H  H34  1  0.52467447  0.96687586  0.70549434  1  0  0.100988  0  0.930456  0  0  0.116516  0  0.992095  0  0  0.11799  0  0.990624  0  0  0.119436  0.115426  0  0.993127  0
H  H35  1  0.69736257  0.53292735  0.79472089  1  0  0.101887  0  0.929902  0  0  0.116554  0  0.992308  0  0  0.11806  0  0.990837  0  0  0.119187  0.115467  0  0.993317  0
H  H36  1  0.47532055  0.03312479  0.29451247  1  0  0.100964  0  0.930471  0  0  0.11643  0  0.992133  0  0  0.117902  0  0.990666  0  0  0.119395  0.115341  0  0.993164  0
H  H37  1  0.30264747  0.46707244  0.20527853  1  0  0.101877  0  0.929895  0  0  0.116543  0  0.992324  0  0  0.118047  0  0.99086  0  0  0.11921  0.115459  0  0.993329  0
H  H38  1  0.45814715  0.01643217  0.83798032  1  0  0.106075  0  0.909802  0  0  0.11896  0  0.970622  0  0  0.120935  0  0.968485  0  0  0.117468  0.117446  0  0.972144  0
H  H39  1  0.81326394  0.48325099  0.66229357  1  0  0.105903  0  0.910283  0  0  0.119199  0  0.970297  0  0  0.121139  0  0.968237  0  0  0.117658  0.117683  0  0.97182  0
H  H40  1  0.54184657  0.98356770  0.16202701  1  0  0.106051  0  0.909899  0  0  0.118912  0  0.970702  0  0  0.120885  0  0.968569  0  0  0.117452  0.117399  0  0.972224  0
H  H41  1  0.18674373  0.51675113  0.33770232  1  0  0.105853  0  0.910309  0  0  0.119107  0  0.970386  0  0  0.121087  0  0.968279  0  0  0.11767  0.117592  0  0.971912  0
H  H42  1  0.90443520  0.37891162  0.85603748  1  0  0.106401  0  1.00693  0  0  0.119183  0  1.063028  0  0  0.120633  0  1.064291  0  0  0.116443  0.11802  0  1.062077  0
H  H43  1  0.63934101  0.12072730  0.64466075  1  0  0.106804  0  1.006077  0  0  0.119154  0  1.062916  0  0  0.120612  0  1.06415  0  0  0.116181  0.117991  0  1.061964  0
H  H44  1  0.09555101  0.62110161  0.14396683  1  0  0.10631  0  1.00724  0  0  0.119184  0  1.063213  0  0  0.120634  0  1.064475  0  0  0.116435  0.118022  0  1.062263  0
H  H45  1  0.36065170  0.87926697  0.35533761  1  0  0.106859  0  1.006031  0  0  0.119181  0  1.062909  0  0  0.120638  0  1.064143  0  0  0.116204  0.118017  0  1.061959  0
H  H46  1  0.77224399  0.29890712  0.06206528  1  0  0.099009  0  0.986684  0  0  0.105023  0  1.053624  0  0  0.10681  0  1.053507  0  0  0.112461  0.103069  0  1.054958  0
H  H47  1  0.63254290  0.20134393  0.43889080  1  0  0.098585  0  0.987015  0  0  0.104858  0  1.053818  0  0  0.10675  0  1.053611  0  0  0.112586  0.102824  0  1.055225  0
H  H48  1  0.22774454  0.70110691  0.93793985  1  0  0.098982  0  0.986748  0  0  0.10501  0  1.053668  0  0  0.106797  0  1.053553  0  0  0.112512  0.103063  0  1.054979  0
H  H49  1  0.36745111  0.79865351  0.56110931  1  0  0.098549  0  0.986938  0  0  0.104848  0  1.053713  0  0  0.106739  0  1.053507  0  0  0.112577  0.102813  0  1.055122  0
H  H50  1  0.40939982  0.83364236  0.70042426  1  0  0.102863  0  0.980248  0  0  0.106112  0  1.054998  0  0  0.109285  0  1.051151  0  0  0.130644  0.103669  0  1.057955  0
H  H51  1  0.44431365  0.66654828  0.79907353  1  0  0.103458  0  0.981002  0  0  0.106907  0  1.055374  0  0  0.110061  0  1.051567  0  0  0.130784  0.104449  0  1.058319  0
H  H52  1  0.59059479  0.16636296  0.29957585  1  0  0.102829  0  0.980222  0  0  0.10612  0  1.05494  0  0  0.109294  0  1.051087  0  0  0.130639  0.103666  0  1.057892  0
H  H53  1  0.55568681  0.33344606  0.20093235  1  0  0.103436  0  0.980993  0  0  0.106923  0  1.055339  0  0  0.110078  0  1.05153  0  0  0.130773  0.104468  0  1.058285  0
H  H54  1  0.08943092  0.08239179  0.90858624  1  0  0.115058  0  0.961366  0  0  0.123883  0  1.023767  0  0  0.126308  0  1.023642  0  0  0.122546  0.122029  0  1.02412  0
H  H55  1  0.58104218  0.41716406  0.59180946  1  0  0.114929  0  0.960904  0  0  0.123918  0  1.02321  0  0  0.126339  0  1.023102  0  0  0.122815  0.122125  0  1.023447  0
H  H56  1  0.91056078  0.91760805  0.09141842  1  0  0.115097  0  0.961353  0  0  0.123922  0  1.023742  0  0  0.126344  0  1.02362  0  0  0.122571  0.122068  0  1.024093  0
H  H57  1  0.41897038  0.58284043  0.40818622  1  0  0.114942  0  0.960852  0  0  0.123918  0  1.023193  0  0  0.126338  0  1.023086  0  0  0.122799  0.122123  0  1.023433  0
H  H58  1  0.91821460  0.94289551  0.91275156  1  0  0.104506  0  0.95036  0  0  0.118113  0  1.00287  0  0  0.120457  0  1.001712  0  0  0.120761  0.116356  0  1.00383  0
H  H59  1  0.27478375  0.55677868  0.58716326  1  0  0.104133  0  0.951038  0  0  0.116952  0  1.0045  0  0  0.119258  0  1.003385  0  0  0.120637  0.11524  0  1.005405  0
H  H60  1  0.08177719  0.05710741  0.08724438  1  0  0.104508  0  0.950301  0  0  0.118094  0  1.002852  0  0  0.120439  0  1.001691  0  0  0.120769  0.116338  0  1.003812  0
H  H61  1  0.72522623  0.44322424  0.41283345  1  0  0.104119  0  0.951002  0  0  0.116878  0  1.004553  0  0  0.119183  0  1.003442  0  0  0.120608  0.115166  0  1.005458  0
C  C62  1  0.24381980  0.26566660  0.47173086  1  0  0.620978  0  3.955636  0  0  0.571933  0  4.258058  0  0  0.60485  0  4.251243  0  0  0.19174  0.549411  0  4.262759  0
C  C63  1  0.48113999  0.23444873  0.02862162  1  0  0.62334  0  3.956111  0  0  0.574583  0  4.257787  0  0  0.607525  0  4.250945  0  0  0.192509  0.552059  0  4.2625  0
C  C64  1  0.75617770  0.73432696  0.52827600  1  0  0.620947  0  3.955561  0  0  0.571943  0  4.257922  0  0  0.604861  0  4.251103  0  0  0.191748  0.549424  0  4.262625  0
C  C65  1  0.51887405  0.76555343  0.97137731  1  0  0.623359  0  3.955857  0  0  0.574633  0  4.25747  0  0  0.607574  0  4.250625  0  0  0.192477  0.552112  0  4.262185  0
C  C66  1  0.32515401  0.21365627  0.78436137  1  0  -0.153165  0  3.688734  0  0  -0.185288  0  3.93715  0  0  -0.186732  0  3.956595  0  0  -0.088994  -0.183866  0  3.92384  0
C  C67  1  0.82337105  0.28615533  0.71593227  1  0  -0.152589  0  3.690855  0  0  -0.184953  0  3.939438  0  0  -0.186401  0  3.958863  0  0  -0.088351  -0.183535  0  3.92611  0
C  C68  1  0.67483667  0.78634676  0.21564733  1  0  -0.15338  0  3.688937  0  0  -0.185486  0  3.937483  0  0  -0.186918  0  3.956934  0  0  -0.089107  -0.184068  0  3.924179  0
C  C69  1  0.17663354  0.71384281  0.28405818  1  0  -0.152845  0  3.691134  0  0  -0.185258  0  3.939695  0  0  -0.186704  0  3.959111  0  0  -0.088467  -0.183834  0  3.926369  0
C  C70  1  0.26111840  0.31700422  0.74705975  1  0  0.072212  0  3.7531  0  0  0.096464  0  3.993383  0  0  0.095302  0  4.017739  0  0  -0.011706  0.097266  0  3.976215  0
C  C71  1  0.82513463  0.18285422  0.75327720  1  0  0.070094  0  3.756782  0  0  0.095529  0  3.995439  0  0  0.094323  0  4.019846  0  0  -0.012035  0.096401  0  3.978204  0
C  C72  1  0.73887923  0.68299957  0.25294520  1  0  0.07236  0  3.753053  0  0  0.096403  0  3.993653  0  0  0.095248  0  4.017995  0  0  -0.011709  0.097209  0  3.976493  0
C  C73  1  0.17486670  0.81714863  0.24671170  1  0  0.070293  0  3.756618  0  0  0.095769  0  3.995232  0  0  0.094555  0  4.019616  0  0  -0.01193  0.096633  0  3.978005  0
C  C74  1  0.34220765  0.14631775  0.61823215  1  0  -0.125796  0  3.715647  0  0  -0.158938  0  3.966  0  0  -0.159733  0  3.985419  0  0  -0.08832  -0.159198  0  3.953895  0
C  C75  1  0.60674082  0.35364753  0.88193089  1  0  -0.126169  0  3.714294  0  0  -0.158736  0  3.964417  0  0  -0.159521  0  3.983777  0  0  -0.088492  -0.159042  0  3.952329  0
C  C76  1  0.65778803  0.85368289  0.38177285  1  0  -0.125705  0  3.715589  0  0  -0.158868  0  3.965944  0  0  -0.15966  0  3.985362  0  0  -0.088227  -0.159132  0  3.953839  0
C  C77  1  0.39326939  0.64634982  0.11806027  1  0  -0.126072  0  3.713886  0  0  -0.158626  0  3.963973  0  0  -0.159415  0  3.983335  0  0  -0.088469  -0.158931  0  3.9519  0
C  C78  1  0.27795822  0.24862253  0.57984549  1  0  -0.050251  0  3.752398  0  0  -0.024419  0  3.9867  0  0  -0.031107  0  4.010251  0  0  -0.019257  -0.019886  0  3.971504  0
C  C79  1  0.60619658  0.25139611  0.92037006  1  0  -0.052299  0  3.7548  0  0  -0.026168  0  3.988563  0  0  -0.032952  0  4.012257  0  0  -0.01947  -0.021559  0  3.973258  0
C  C80  1  0.72203987  0.75137652  0.42015911  1  0  -0.050318  0  3.752114  0  0  -0.024474  0  3.986383  0  0  -0.031162  0  4.009936  0  0  -0.019316  -0.019939  0  3.971188  0
C  C81  1  0.39380700  0.74860761  0.07962670  1  0  -0.052464  0  3.754828  0  0  -0.026341  0  3.988598  0  0  -0.033125  0  4.012289  0  0  -0.019517  -0.021735  0  3.973294  0
C  C82  1  0.10737970  0.35412760  0.02390254  1  0  0.165163  0  3.627946  0  0  0.103101  0  3.893153  0  0  0.117257  0  3.905603  0  0  0.137917  0.093999  0  3.884468  0
C  C83  1  0.98509981  0.14586385  0.47661698  1  0  0.164953  0  3.628441  0  0  0.102819  0  3.893272  0  0  0.116962  0  3.905714  0  0  0.137739  0.093674  0  3.884693  0
C  C84  1  0.89262252  0.64587062  0.97609724  1  0  0.165187  0  3.627965  0  0  0.103112  0  3.893128  0  0  0.117267  0  3.905574  0  0  0.137957  0.094008  0  3.88444  0
C  C85  1  0.01489951  0.85412488  0.52337888  1  0  0.164829  0  3.628316  0  0  0.102719  0  3.893258  0  0  0.116868  0  3.905699  0  0  0.137683  0.093575  0  3.884674  0
C  C86  1  0.36273362  0.12826219  0.72152076  1  0  0.059806  0  3.788431  0  0  0.083584  0  4.031298  0  0  0.082472  0  4.054224  0  0  -0.017176  0.084548  0  4.015618  0
C  C87  1  0.71268432  0.37161365  0.77868180  1  0  0.061567  0  3.788095  0  0  0.084412  0  4.031709  0  0  0.083351  0  4.054614  0  0  -0.016808  0.085341  0  4.016125  0
C  C88  1  0.63726100  0.87173768  0.27848685  1  0  0.059835  0  3.788579  0  0  0.083612  0  4.031376  0  0  0.082506  0  4.054293  0  0  -0.017162  0.084575  0  4.015701  0
C  C89  1  0.28732207  0.62838926  0.22131377  1  0  0.061483  0  3.787956  0  0  0.084415  0  4.031473  0  0  0.083352  0  4.054387  0  0  -0.016832  0.085329  0  4.015911  0
C  C90  1  0.23495527  0.33364541  0.64599825  1  0  -0.121817  0  3.698556  0  0  -0.154453  0  3.94473  0  0  -0.155705  0  3.965262  0  0  -0.082703  -0.153116  0  3.930183  0
C  C91  1  0.71435280  0.16630066  0.85430171  1  0  -0.121832  0  3.698802  0  0  -0.15518  0  3.944557  0  0  -0.156411  0  3.965118  0  0  -0.083234  -0.153833  0  3.929925  0
C  C92  1  0.76504696  0.66635520  0.35400380  1  0  -0.121875  0  3.698503  0  0  -0.154515  0  3.944753  0  0  -0.155772  0  3.965287  0  0  -0.082744  -0.153167  0  3.930205  0
C  C93  1  0.28565074  0.83369672  0.14569135  1  0  -0.121686  0  3.698752  0  0  -0.155049  0  3.94448  0  0  -0.156285  0  3.965047  0  0  -0.083201  -0.153696  0  3.929851  0
C  C94  1  0.20571010  0.40650317  0.82293552  1  0  -0.047801  0  3.628412  0  0  -0.114818  0  3.875909  0  0  -0.110353  0  3.886238  0  0  -0.048636  -0.117645  0  3.86871  0
C  C95  1  0.93511766  0.09329187  0.67748383  1  0  -0.044929  0  3.63234  0  0  -0.111846  0  3.878817  0  0  -0.107346  0  3.889112  0  0  -0.047979  -0.114713  0  3.871696  0
C  C96  1  0.79429124  0.59349982  0.17706851  1  0  -0.047894  0  3.628224  0  0  -0.114835  0  3.875738  0  0  -0.110375  0  3.886063  0  0  -0.048614  -0.117674  0  3.86856  0
C  C97  1  0.06488031  0.90670159  0.32251209  1  0  -0.045329  0  3.632509  0  0  -0.112272  0  3.879103  0  0  -0.107716  0  3.889317  0  0  -0.048078  -0.115133  0  3.871976  0
C  C98  1  0.42007960  0.01751122  0.76652791  1  0  -0.052419  0  3.631307  0  0  -0.120053  0  3.878046  0  0  -0.11529  0  3.88688  0  0  -0.046541  -0.123017  0  3.871751  0
C  C99  1  0.70458910  0.48232001  0.73363310  1  0  -0.053904  0  3.630919  0  0  -0.120728  0  3.87694  0  0  -0.116079  0  3.886017  0  0  -0.04671  -0.12369  0  3.870631  0
C  C100  1  0.57991250  0.98249179  0.23347822  1  0  -0.052422  0  3.631252  0  0  -0.119898  0  3.877825  0  0  -0.115133  0  3.886652  0  0  -0.04652  -0.122865  0  3.871538  0
C  C101  1  0.29542074  0.51768133  0.26636340  1  0  -0.053738  0  3.631033  0  0  -0.120559  0  3.877028  0  0  -0.11594  0  3.886101  0  0  -0.046778  -0.123524  0  3.870742  0
C  C102  1  0.94342905  0.36535158  0.92738177  1  0  -0.074576  0  3.709466  0  0  -0.114024  0  3.963383  0  0  -0.113216  0  3.984155  0  0  -0.009204  -0.114505  0  3.948771  0
C  C103  1  0.73596730  0.13443861  0.57327809  1  0  -0.073458  0  3.708094  0  0  -0.112697  0  3.962199  0  0  -0.111914  0  3.983012  0  0  -0.007979  -0.113131  0  3.947497  0
C  C104  1  0.05656551  0.63465381  0.07262538  1  0  -0.074588  0  3.709617  0  0  -0.114129  0  3.96354  0  0  -0.113323  0  3.984311  0  0  -0.009264  -0.114609  0  3.948929  0
C  C105  1  0.26402975  0.86555328  0.42671838  1  0  -0.073476  0  3.708121  0  0  -0.112633  0  3.962151  0  0  -0.111849  0  3.982967  0  0  -0.007909  -0.113068  0  3.947455  0
C  C106  1  0.88135264  0.32475468  0.02943537  1  0  -0.011552  0  3.777314  0  0  -0.044374  0  4.044256  0  0  -0.042738  0  4.06556  0  0  -0.010762  -0.045317  0  4.030097  0
C  C107  1  0.73505894  0.17534172  0.47136032  1  0  -0.010885  0  3.776808  0  0  -0.043944  0  4.04342  0  0  -0.042395  0  4.064716  0  0  -0.010867  -0.04479  0  4.02923  0
C  C108  1  0.11863928  0.67525384  0.97056925  1  0  -0.011416  0  3.777201  0  0  -0.044265  0  4.044147  0  0  -0.042629  0  4.06545  0  0  -0.010704  -0.045205  0  4.029984  0
C  C109  1  0.26493364  0.82465254  0.52863699  1  0  -0.010978  0  3.777063  0  0  -0.044066  0  4.04369  0  0  -0.042521  0  4.06499  0  0  -0.010947  -0.044904  0  4.029496  0
C  C110  1  0.29522399  0.87968778  0.75736087  1  0  0.155289  0  3.632027  0  0  0.094629  0  3.899282  0  0  0.107605  0  3.911746  0  0  0.140252  0.086452  0  3.89055  0
C  C111  1  0.43311788  0.62041166  0.74224748  1  0  0.154918  0  3.630553  0  0  0.093993  0  3.897605  0  0  0.106987  0  3.91005  0  0  0.139916  0.085821  0  3.888855  0
C  C112  1  0.70477033  0.12031438  0.24263882  1  0  0.155409  0  3.632054  0  0  0.094672  0  3.89931  0  0  0.107652  0  3.911769  0  0  0.140248  0.086516  0  3.890563  0
C  C113  1  0.56688458  0.37958659  0.25775440  1  0  0.154938  0  3.630404  0  0  0.093977  0  3.897445  0  0  0.106969  0  3.909888  0  0  0.139872  0.0858  0  3.888696  0
C  C114  1  0.12869034  0.00883366  0.86876540  1  0  -0.070236  0  3.679576  0  0  -0.109538  0  3.935693  0  0  -0.108623  0  3.955507  0  0  1.1e-05  -0.110122  0  3.922455  0
C  C115  1  0.50700398  0.49088751  0.63134677  1  0  -0.069976  0  3.679903  0  0  -0.109564  0  3.935917  0  0  -0.108652  0  3.955705  0  0  -0.000189  -0.110149  0  3.922695  0
C  C116  1  0.87129923  0.99116772  0.13123470  1  0  -0.070284  0  3.679618  0  0  -0.109576  0  3.93573  0  0  -0.108664  0  3.955552  0  0  2.9e-05  -0.110157  0  3.922487  0
C  C117  1  0.49300563  0.50911620  0.36864989  1  0  -0.069925  0  3.679563  0  0  -0.109517  0  3.935602  0  0  -0.108603  0  3.955389  0  0  -0.000167  -0.110099  0  3.922375  0
C  C118  1  0.04573858  0.93974551  0.86919299  1  0  -0.007852  0  3.770776  0  0  -0.039617  0  4.036848  0  0  -0.037942  0  4.056373  0  0  -0.002525  -0.040656  0  4.023493  0
C  C119  1  0.35553240  0.56004562  0.63067178  1  0  -0.006853  0  3.773579  0  0  -0.037823  0  4.039809  0  0  -0.036105  0  4.059307  0  0  -0.002959  -0.038952  0  4.02653  0
C  C120  1  0.95425526  0.06025661  0.13080251  1  0  -0.00777  0  3.770604  0  0  -0.039545  0  4.036646  0  0  -0.037871  0  4.056171  0  0  -0.002552  -0.040584  0  4.023292  0
C  C121  1  0.64447845  0.43995573  0.36932605  1  0  -0.006793  0  3.773313  0  0  -0.037734  0  4.039541  0  0  -0.036018  0  4.059039  0  0  -0.002964  -0.038867  0  4.026261  0
N  N122  1  0.08628202  0.38355322  0.92483464  1  0  -0.063435  0  3.573976  0  0  0.031115  0  3.793665  0  0  0.016157  0  3.819277  0  0  -0.246505  0.041183  0  3.775641  0
N  N123  1  0.89459416  0.11618882  0.57563825  1  0  -0.064648  0  3.575966  0  0  0.029741  0  3.795621  0  0  0.014764  0  3.821232  0  0  -0.246911  0.03982  0  3.777625  0
N  N124  1  0.91371522  0.61644897  0.07516800  1  0  -0.063492  0  3.573875  0  0  0.031069  0  3.79358  0  0  0.016111  0  3.819189  0  0  -0.246561  0.041143  0  3.77556  0
N  N125  1  0.10540249  0.88379990  0.42435675  1  0  -0.064228  0  3.575773  0  0  0.03014  0  3.795377  0  0  0.015149  0  3.820972  0  0  -0.246838  0.040218  0  3.777383  0
N  N126  1  0.98464922  0.31799726  0.08927470  1  0  -0.374197  0  3.262312  0  0  -0.295965  0  3.539962  0  0  -0.315814  0  3.556642  0  0  -0.351043  -0.282592  0  3.528427  0
N  N127  1  0.89136561  0.18221068  0.41143427  1  0  -0.373421  0  3.25929  0  0  -0.294971  0  3.536744  0  0  -0.314816  0  3.553452  0  0  -0.351102  -0.281629  0  3.525272  0
N  N128  1  0.01535073  0.68200651  0.91072796  1  0  -0.374209  0  3.262296  0  0  -0.295918  0  3.539895  0  0  -0.315771  0  3.556576  0  0  -0.35103  -0.282547  0  3.528358  0
N  N129  1  0.10862759  0.81778281  0.58856516  1  0  -0.373386  0  3.259407  0  0  -0.294918  0  3.536853  0  0  -0.314767  0  3.553565  0  0  -0.351034  -0.281575  0  3.525377  0
N  N130  1  0.28668036  0.96912512  0.79778094  1  0  -0.046825  0  3.570098  0  0  0.047885  0  3.786461  0  0  0.033191  0  3.813167  0  0  -0.241211  0.057398  0  3.768365  0
N  N131  1  0.55427888  0.53078588  0.70215928  1  0  -0.046916  0  3.56625  0  0  0.048124  0  3.78212  0  0  0.033464  0  3.808826  0  0  -0.240717  0.057641  0  3.764015  0
N  N132  1  0.71331698  0.03087551  0.20222358  1  0  -0.046852  0  3.570232  0  0  0.047819  0  3.786615  0  0  0.033124  0  3.813321  0  0  -0.241192  0.057332  0  3.768517  0
N  N133  1  0.44572658  0.46921628  0.29783993  1  0  -0.047077  0  3.566454  0  0  0.047973  0  3.782325  0  0  0.033309  0  3.809044  0  0  -0.240684  0.057495  0  3.764212  0
N  N134  1  0.14985434  0.86008173  0.79905132  1  0  -0.37667  0  3.267206  0  0  -0.304628  0  3.550778  0  0  -0.322989  0  3.566814  0  0  -0.350051  -0.292201  0  3.539408  0
N  N135  1  0.30990054  0.63996284  0.70050668  1  0  -0.377413  0  3.26678  0  0  -0.305699  0  3.55059  0  0  -0.324061  0  3.566595  0  0  -0.349943  -0.293293  0  3.539284  0
N  N136  1  0.85013889  0.13992355  0.20094432  1  0  -0.376813  0  3.267255  0  0  -0.304682  0  3.550776  0  0  -0.323041  0  3.56681  0  0  -0.350038  -0.292253  0  3.539394  0
N  N137  1  0.69010498  0.36003462  0.29949609  1  0  -0.377404  0  3.26665  0  0  -0.305653  0  3.550409  0  0  -0.324009  0  3.566409  0  0  -0.349848  -0.293241  0  3.539097  0
O  O138  1  0.06178729  0.36027190  0.27959588  1  0  -0.826667  0  1.870069  0  0  -0.769168  0  2.079914  0  0  -0.789219  0  2.048905  0  0  -0.583724  -0.754878  0  2.101192  0
O  O139  1  0.20162891  0.14046327  0.22130251  1  0  -0.827997  0  1.866904  0  0  -0.770474  0  2.078004  0  0  -0.790435  0  2.046795  0  0  -0.58402  -0.756286  0  2.099402  0
O  O140  1  0.93820775  0.63972793  0.72040783  1  0  -0.826633  0  1.87009  0  0  -0.769116  0  2.080004  0  0  -0.789173  0  2.048993  0  0  -0.583732  -0.754833  0  2.101273  0
O  O141  1  0.79837222  0.85953807  0.77869322  1  0  -0.827976  0  1.866863  0  0  -0.770418  0  2.078019  0  0  -0.790386  0  2.046811  0  0  -0.584017  -0.756238  0  2.099427  0
O  O142  1  0.32489020  0.19397284  0.40223933  1  0  -0.667034  0  1.912586  0  0  -0.618492  0  2.143728  0  0  -0.641697  0  2.132568  0  0  -0.349142  -0.60205  0  2.151431  0
O  O143  1  0.42083229  0.30639254  0.09783394  1  0  -0.6684  0  1.91169  0  0  -0.620296  0  2.143004  0  0  -0.643448  0  2.131821  0  0  -0.350395  -0.603886  0  2.150693  0
O  O144  1  0.67510866  0.80601600  0.59776748  1  0  -0.667014  0  1.912757  0  0  -0.618465  0  2.143857  0  0  -0.641666  0  2.132693  0  0  -0.349119  -0.602028  0  2.151563  0
O  O145  1  0.57919167  0.69361114  0.90216025  1  0  -0.668442  0  1.911675  0  0  -0.620322  0  2.142923  0  0  -0.643472  0  2.131736  0  0  -0.350371  -0.603909  0  2.150611  0
O  O146  1  0.12915559  0.34902025  0.46131243  1  0  -0.630236  0  1.932111  0  0  -0.576622  0  2.14918  0  0  -0.601044  0  2.138821  0  0  -0.331535  -0.559011  0  2.155767  0
O  O147  1  0.43978867  0.15091371  0.03945546  1  0  -0.631641  0  1.932385  0  0  -0.577812  0  2.149521  0  0  -0.60224  0  2.139135  0  0  -0.331762  -0.560239  0  2.156144  0
O  O148  1  0.87084801  0.65097481  0.53868646  1  0  -0.630198  0  1.931988  0  0  -0.576598  0  2.149045  0  0  -0.601019  0  2.138683  0  0  -0.331539  -0.558993  0  2.15563  0
O  O149  1  0.56022851  0.84908454  0.96054708  1  0  -0.63163  0  1.932212  0  0  -0.577793  0  2.149346  0  0  -0.60222  0  2.138957  0  0  -0.331707  -0.560222  0  2.15597  0
