# generated using pymatgen
data_Al2H6C24(S2O5)3
_symmetry_space_group_name_H-M   'P 1'
_cell_length_a   3.96272423
_cell_length_b   20.15270269
_cell_length_c   20.15269613
_cell_angle_alpha   120.00004664
_cell_angle_beta   90.00007090
_cell_angle_gamma   89.99999123
_symmetry_Int_Tables_number   1
_chemical_formula_structural   Al2H6C24(S2O5)3
_chemical_formula_sum   'Al2 H6 C24 S6 O15'
_cell_volume   1393.76877925
_cell_formula_units_Z   1
loop_
 _symmetry_equiv_pos_site_id
 _symmetry_equiv_pos_as_xyz
  1  'x, y, z'
loop_
 _atom_site_type_symbol
 _atom_site_label
 _atom_site_symmetry_multiplicity
 _atom_site_fract_x
 _atom_site_fract_y
 _atom_site_fract_z
 _atom_site_occupancy
 _atom_site_pbe_bader_charge
 _atom_site_pbe_bader_spin_density
 _atom_site_pbe_cm5_charge
 _atom_site_pbe_ddec_charge
 _atom_site_pbe_ddec_spin_density
 _atom_site_pbe_ddec_sum_bond_order
 _atom_site_pbe_magmom
Al  Al0  1  0.00317084  0.50000096  0.49999878  1  2.504201  0  0.426685  1.589986  0  2.573734  0
Al  Al1  1  0.00295765  0.16666821  0.83333274  1  2.503913  0  0.42417  1.596219  0  2.564709  0
H  H2  1  0.47240165  0.17779606  0.61437257  1  0.120681  0  0.117933  0.142049  0  0.968943  0
H  H3  1  0.47237659  0.93658195  0.82220310  1  0.112755  0  0.117933  0.142045  0  0.968934  0
H  H4  1  0.47239467  0.38562299  0.06341891  1  0.099762  0  0.117939  0.142036  0  0.968898  0
H  H5  1  0.49867936  0.51623457  0.78447666  1  0.621528  0  0.335034  0.359312  0  0.880511  0
H  H6  1  0.49867821  0.76824342  0.48376643  1  0.617728  0  0.335013  0.359241  0  0.880635  0
H  H7  1  0.49867776  0.21552449  0.23175697  1  0.615557  0  0.335019  0.359248  0  0.880698  0
C  C8  1  0.50234225  0.43873749  0.38237402  1  1.677436  0  0.275228  0.696108  0  4.065185  0
C  C9  1  0.50234283  0.44363973  0.56126373  1  1.588659  0  0.27511  0.695999  0  4.065383  0
C  C10  1  0.50234017  0.61762612  0.55636145  1  1.57606  0  0.275261  0.696139  0  4.065218  0
C  C11  1  0.50233105  0.22544616  0.77449433  1  1.557409  0  0.273182  0.670174  0  4.084048  0
C  C12  1  0.50232612  0.04905231  0.77455342  1  1.556777  0  0.273111  0.670087  0  4.084154  0
C  C13  1  0.50232910  0.22550351  0.95094851  1  1.671876  0  0.273165  0.670158  0  4.084023  0
C  C14  1  0.49064168  0.43081120  0.68190125  1  0.473097  0  0.071819  0.252014  0  4.122105  0
C  C15  1  0.48484521  0.23899611  0.65489394  1  0.129284  0  -0.094154  -0.146097  0  3.973952  0
C  C16  1  0.49771486  0.40092348  0.60327737  1  -0.030688  0  -0.02785  -0.221551  0  3.889878  0
C  C17  1  0.49817718  0.26869103  0.73310328  1  -0.257384  0  -0.01539  -0.096164  0  3.932892  0
C  C18  1  0.50387999  0.29779533  0.63600800  1  -0.160196  0  -0.025399  0.00682  0  4.104231  0
C  C19  1  0.50787488  0.37163937  0.70062887  1  -0.156235  0  -0.042872  -0.155474  0  4.125298  0
C  C20  1  0.49063858  0.75109308  0.56918959  1  0.541141  0  0.071922  0.252272  0  4.122134  0
C  C21  1  0.48482491  0.91589920  0.76100295  1  0.091143  0  -0.09416  -0.14609  0  3.974048  0
C  C22  1  0.49770203  0.70235790  0.59907868  1  -0.048412  0  -0.027989  -0.221814  0  3.890079  0
C  C23  1  0.49816662  0.96441584  0.73130959  1  -0.13366  0  -0.015413  -0.096179  0  3.932783  0
C  C24  1  0.50386218  0.83821790  0.70220518  1  -0.207373  0  -0.025451  0.006817  0  4.104427  0
C  C25  1  0.50786677  0.82899398  0.62836223  1  -0.1494  0  -0.042873  -0.155492  0  4.125282  0
C  C26  1  0.49064792  0.31809835  0.24890707  1  0.542612  0  0.071944  0.252372  0  4.121993  0
C  C27  1  0.48484075  0.34510489  0.08410146  1  0.06323  0  -0.094164  -0.146056  0  3.973997  0
C  C28  1  0.49771387  0.39672105  0.29764109  1  -0.16832  0  -0.02797  -0.221813  0  3.889933  0
C  C29  1  0.49816986  0.26689370  0.03558414  1  -0.230276  0  -0.015373  -0.096111  0  3.932738  0
C  C30  1  0.50388344  0.36398907  0.16178211  1  -0.165694  0  -0.025458  0.00671  0  4.104429  0
C  C31  1  0.50787572  0.29936928  0.17100682  1  -0.144559  0  -0.042889  -0.155542  0  4.125237  0
S  S32  1  0.51662347  0.30133104  0.55249383  1  0.308764  0  0.080132  0.116125  0  2.790309  0
S  S33  1  0.52649871  0.36825418  0.78435774  1  0.251632  0  0.057854  0.086766  0  2.815562  0
S  S34  1  0.51660094  0.75116695  0.69867171  1  0.256674  0  0.080176  0.116141  0  2.790234  0
S  S35  1  0.52650289  0.91610648  0.63174584  1  0.214948  0  0.057838  0.08673  0  2.815637  0
S  S36  1  0.51661986  0.44750592  0.24883310  1  0.267536  0  0.080174  0.116183  0  2.790182  0
S  S37  1  0.52650157  0.21563992  0.08389345  1  0.20653  0  0.057831  0.086735  0  2.815618  0
O  O38  1  0.73816034  0.58504222  0.57270739  1  -1.24694  0  -0.235737  -0.595122  0  2.345227  0
O  O39  1  0.73815989  0.48766905  0.41495919  1  -1.249279  0  -0.235706  -0.595132  0  2.345281  0
O  O40  1  0.73816025  0.42729327  0.51233159  1  -1.246249  0  -0.235674  -0.595094  0  2.345359  0
O  O41  1  0.26962891  0.58315522  0.50732779  1  -1.246434  0  -0.231846  -0.579781  0  2.328497  0
O  O42  1  0.26962667  0.49267370  0.57582519  1  -1.244073  0  -0.23183  -0.579833  0  2.328625  0
O  O43  1  0.26962872  0.42417423  0.41684427  1  -1.242914  0  -0.231867  -0.579798  0  2.328471  0
O  O44  1  0.73773779  0.17657914  0.91744521  1  -1.253331  0  -0.240244  -0.597942  0  2.353211  0
O  O45  1  0.73773491  0.24086875  0.82342055  1  -1.242572  0  -0.240297  -0.597975  0  2.353156  0
O  O46  1  0.73773229  0.08255463  0.75913111  1  -1.244728  0  -0.240207  -0.597861  0  2.353153  0
O  O47  1  0.27029921  0.24136400  0.91714691  1  -1.254715  0  -0.238035  -0.590034  0  2.335851  0
O  O48  1  0.27029397  0.08285479  0.82421471  1  -1.252461  0  -0.238008  -0.590035  0  2.335991  0
O  O49  1  0.27029369  0.17578618  0.75863645  1  -1.247305  0  -0.238008  -0.589989  0  2.335797  0
O  O50  1  0.48024491  0.50768452  0.73266352  1  -1.134832  0  -0.343211  -0.409171  0  2.258757  0
O  O51  1  0.48024650  0.72498199  0.49231687  1  -1.107941  0  -0.343185  -0.409144  0  2.258907  0
O  O52  1  0.48024358  0.26733682  0.27501880  1  -1.104967  0  -0.343213  -0.409189  0  2.258873  0
