# generated using pymatgen
data_HgH18C20I2(N2O)2
_symmetry_space_group_name_H-M   'P 1'
_cell_length_a   9.49926507
_cell_length_b   11.50255966
_cell_length_c   11.50251221
_cell_angle_alpha   103.95112204
_cell_angle_beta   95.37736771
_cell_angle_gamma   95.37808618
_symmetry_Int_Tables_number   1
_chemical_formula_structural   HgH18C20I2(N2O)2
_chemical_formula_sum   'Hg2 H36 C40 I4 N8 O4'
_cell_volume   1205.55728591
_cell_formula_units_Z   2
loop_
 _symmetry_equiv_pos_site_id
 _symmetry_equiv_pos_as_xyz
  1  'x, y, z'
loop_
 _atom_site_type_symbol
 _atom_site_label
 _atom_site_symmetry_multiplicity
 _atom_site_fract_x
 _atom_site_fract_y
 _atom_site_fract_z
 _atom_site_occupancy
 _atom_site_hle17_bader_spin_density
 _atom_site_hle17_ddec_charge
 _atom_site_hle17_ddec_spin_density
 _atom_site_hle17_ddec_sum_bond_order
 _atom_site_hle17_magmom
 _atom_site_hse06_10hf_bader_spin_density
 _atom_site_hse06_10hf_ddec_charge
 _atom_site_hse06_10hf_ddec_spin_density
 _atom_site_hse06_10hf_ddec_sum_bond_order
 _atom_site_hse06_10hf_magmom
 _atom_site_hse06_bader_spin_density
 _atom_site_hse06_ddec_charge
 _atom_site_hse06_ddec_spin_density
 _atom_site_hse06_ddec_sum_bond_order
 _atom_site_hse06_magmom
 _atom_site_pbe_bader_spin_density
 _atom_site_pbe_cm5_charge
 _atom_site_pbe_ddec_charge
 _atom_site_pbe_ddec_spin_density
 _atom_site_pbe_ddec_sum_bond_order
 _atom_site_pbe_magmom
Hg  Hg0  1  0.15151143  0.81294431  0.13323979  1  0  0.495095  0  2.255669  0  0  0.36267  0  2.746018  0  0  0.405681  0  2.718781  0  0  0.384436  0.334487  0  2.762759  0
Hg  Hg1  1  0.65151164  0.13323689  0.81294563  1  0  0.495034  0  2.255698  0  0  0.36263  0  2.74603  0  0  0.405644  0  2.718795  0  0  0.384432  0.334448  0  2.762776  0
H  H2  1  0.97961057  0.26790831  0.29518117  1  0  0.309365  0  0.935831  0  0  0.286317  0  1.007378  0  0  0.294226  0  1.001793  0  0  0.302455  0.279712  0  1.012438  0
H  H3  1  0.47960944  0.29517748  0.26790752  1  0  0.309275  0  0.935916  0  0  0.286206  0  1.007479  0  0  0.294115  0  1.001893  0  0  0.302414  0.279601  0  1.01254  0
H  H4  1  0.72206240  0.68027638  0.73289687  1  0  0.29847  0  0.872252  0  0  0.290599  0  0.920195  0  0  0.29612  0  0.917712  0  0  0.323851  0.286406  0  0.922514  0
H  H5  1  0.22204738  0.73289398  0.68027226  1  0  0.298648  0  0.872143  0  0  0.290642  0  0.92019  0  0  0.296159  0  0.917707  0  0  0.323897  0.286447  0  0.92251  0
H  H6  1  0.85473970  0.76223001  0.25042545  1  0  0.079526  0  0.956367  0  0  0.08331  0  1.028892  0  0  0.085755  0  1.027365  0  0  0.102895  0.081291  0  1.030334  0
H  H7  1  0.35474368  0.25042970  0.76222641  1  0  0.079523  0  0.956318  0  0  0.083294  0  1.02885  0  0  0.085735  0  1.027331  0  0  0.102868  0.081275  0  1.030294  0
H  H8  1  0.66231098  0.87038944  0.35080363  1  0  0.100085  0  0.96205  0  0  0.106667  0  1.027445  0  0  0.109312  0  1.027486  0  0  0.097068  0.10454  0  1.027999  0
H  H9  1  0.16231657  0.35080800  0.87039063  1  0  0.099921  0  0.962148  0  0  0.1065  0  1.027573  0  0  0.109146  0  1.027615  0  0  0.096982  0.104375  0  1.028129  0
H  H10  1  0.67286587  0.09330349  0.37893081  1  0  0.114697  0  0.993822  0  0  0.121007  0  1.059609  0  0  0.125097  0  1.055575  0  0  0.090351  0.118117  0  1.062232  0
H  H11  1  0.17286928  0.37892991  0.09330472  1  0  0.114659  0  0.993814  0  0  0.121002  0  1.059585  0  0  0.125094  0  1.055549  0  0  0.090354  0.118109  0  1.062215  0
H  H12  1  0.05280614  0.08125663  0.20062052  1  0  0.087666  0  0.94777  0  0  0.091726  0  1.021768  0  0  0.094853  0  1.019138  0  0  0.10555  0.088721  0  1.024604  0
H  H13  1  0.55280374  0.20061613  0.08124887  1  0  0.087627  0  0.947775  0  0  0.091694  0  1.021781  0  0  0.094801  0  1.01918  0  0  0.105532  0.088717  0  1.024591  0
H  H14  1  0.88118902  0.47708724  0.41163418  1  0  0.115176  0  0.937216  0  0  0.130805  0  0.997819  0  0  0.132564  0  0.997487  0  0  0.105049  0.129544  0  0.99798  0
H  H15  1  0.38118585  0.41163035  0.47708396  1  0  0.115141  0  0.937211  0  0  0.130765  0  0.997815  0  0  0.132528  0  0.99748  0  0  0.105027  0.129504  0  0.997974  0
H  H16  1  0.90502740  0.43698051  0.25882311  1  0  0.120232  0  0.937024  0  0  0.132377  0  1.003088  0  0  0.135548  0  1.000662  0  0  0.099361  0.130084  0  1.004977  0
H  H17  1  0.40502647  0.25881829  0.43697541  1  0  0.120284  0  0.936949  0  0  0.132401  0  1.003033  0  0  0.135573  0  1.000606  0  0  0.099368  0.130107  0  1.004925  0
H  H18  1  0.72507075  0.44795079  0.10092346  1  0  0.08402  0  0.988277  0  0  0.091056  0  1.059303  0  0  0.094305  0  1.057524  0  0  0.080846  0.088849  0  1.060529  0
H  H19  1  0.22506722  0.10092154  0.44796161  1  0  0.08401  0  0.988179  0  0  0.091046  0  1.059219  0  0  0.094295  0  1.057441  0  0  0.080849  0.088836  0  1.060451  0
H  H20  1  0.52217729  0.54714117  0.03783751  1  0  0.085027  0  0.955091  0  0  0.10111  0  1.006461  0  0  0.10323  0  1.006273  0  0  0.098354  0.099496  0  1.006978  0
H  H21  1  0.02217437  0.03784100  0.54715539  1  0  0.085059  0  0.955121  0  0  0.101133  0  1.006497  0  0  0.10325  0  1.006315  0  0  0.098403  0.099527  0  1.007003  0
H  H22  1  0.38621370  0.66425243  0.19368196  1  0  0.066443  0  0.99909  0  0  0.071414  0  1.076447  0  0  0.073815  0  1.075171  0  0  0.078988  0.068903  0  1.078804  0
H  H23  1  0.88620908  0.19368892  0.66426095  1  0  0.06643  0  0.999065  0  0  0.071435  0  1.076401  0  0  0.073837  0  1.075122  0  0  0.078975  0.068924  0  1.078761  0
H  H24  1  0.45453609  0.67550574  0.40993248  1  0  0.084518  0  0.94803  0  0  0.096954  0  1.005208  0  0  0.100174  0  1.00369  0  0  0.093775  0.094747  0  1.00634  0
H  H25  1  0.95453244  0.40993868  0.67550310  1  0  0.084572  0  0.947957  0  0  0.097012  0  1.005131  0  0  0.100232  0  1.003611  0  0  0.093842  0.094803  0  1.006268  0
H  H26  1  0.57195587  0.59449778  0.56001882  1  0  0.104925  0  0.936425  0  0  0.11825  0  0.999908  0  0  0.120834  0  0.998285  0  0  0.101618  0.116345  0  1.001311  0
H  H27  1  0.07194930  0.56000973  0.59448783  1  0  0.10504  0  0.936444  0  0  0.118326  0  0.999915  0  0  0.120924  0  0.998278  0  0  0.101648  0.116421  0  1.001317  0
H  H28  1  0.69461000  0.48987900  0.52554227  1  0  0.120128  0  0.91234  0  0  0.13799  0  0.965869  0  0  0.140298  0  0.964661  0  0  0.110612  0.136344  0  0.9667  0
H  H29  1  0.19460044  0.52553913  0.48987134  1  0  0.120204  0  0.912254  0  0  0.137978  0  0.965845  0  0  0.140284  0  0.96464  0  0  0.110586  0.136331  0  0.966676  0
H  H30  1  0.91625737  0.92010886  0.63673895  1  0  0.116911  0  0.943343  0  0  0.12892  0  0.999149  0  0  0.132035  0  0.996701  0  0  0.114156  0.12648  0  1.00125  0
H  H31  1  0.41624114  0.63673385  0.92010374  1  0  0.116946  0  0.943279  0  0  0.128853  0  0.99919  0  0  0.131967  0  0.996743  0  0  0.114119  0.126422  0  1.001295  0
H  H32  1  0.11659992  0.06290886  0.77064698  1  0  0.105413  0  0.96409  0  0  0.113586  0  1.027359  0  0  0.115637  0  1.028617  0  0  0.1047  0.112052  0  1.026554  0
H  H33  1  0.61658785  0.77063846  0.06290002  1  0  0.105333  0  0.96394  0  0  0.113518  0  1.027215  0  0  0.115565  0  1.02848  0  0  0.104688  0.111986  0  1.026408  0
H  H34  1  0.20859918  0.01993871  0.96682128  1  0  0.077187  0  0.947768  0  0  0.080577  0  1.021636  0  0  0.083131  0  1.020203  0  0  0.103259  0.078469  0  1.023297  0
H  H35  1  0.70859188  0.96680818  0.01992763  1  0  0.0771  0  0.947519  0  0  0.080461  0  1.0215  0  0  0.08301  0  1.020054  0  0  0.103187  0.078335  0  1.023176  0
H  H36  1  0.92047610  0.71158077  0.90259347  1  0  0.074552  0  0.98621  0  0  0.078017  0  1.061916  0  0  0.081713  0  1.058292  0  0  0.093629  0.075147  0  1.065097  0
H  H37  1  0.42045982  0.90259252  0.71157996  1  0  0.074629  0  0.986227  0  0  0.07805  0  1.061948  0  0  0.081745  0  1.058324  0  0  0.093627  0.075186  0  1.065126  0
C  C38  1  0.85326919  0.85921949  0.26308749  1  0  0.093941  0  3.718816  0  0  0.065307  0  3.965801  0  0  0.070907  0  3.984929  0  0  0.028615  0.061622  0  3.953231  0
C  C39  1  0.35326769  0.26308952  0.85921546  1  0  0.093956  0  3.718799  0  0  0.06535  0  3.965758  0  0  0.070954  0  3.984881  0  0  0.028657  0.061662  0  3.953191  0
C  C40  1  0.74757947  0.91958198  0.31849764  1  0  -0.102398  0  3.77172  0  0  -0.1105  0  4.018359  0  0  -0.116167  0  4.040647  0  0  -0.088991  -0.107421  0  4.003333  0
C  C41  1  0.24758673  0.31849791  0.91958020  1  0  -0.102195  0  3.771861  0  0  -0.110295  0  4.018499  0  0  -0.115964  0  4.040788  0  0  -0.088878  -0.107216  0  4.003473  0
C  C42  1  0.75184587  0.04362156  0.33313368  1  0  -0.107149  0  3.700163  0  0  -0.132552  0  3.946679  0  0  -0.132334  0  3.964307  0  0  -0.081788  -0.13213  0  3.933387  0
C  C43  1  0.25184908  0.33313174  0.04361901  1  0  -0.107172  0  3.699956  0  0  -0.132618  0  3.946489  0  0  -0.132401  0  3.964114  0  0  -0.081831  -0.132195  0  3.933197  0
C  C44  1  0.86236222  0.10499448  0.29086844  1  0  0.212534  0  3.793785  0  0  0.211351  0  4.037882  0  0  0.215335  0  4.060107  0  0  0.100662  0.208216  0  4.023089  0
C  C45  1  0.36236540  0.29086104  0.10499432  1  0  0.212635  0  3.793829  0  0  0.211403  0  4.037959  0  0  0.215397  0  4.060166  0  0  0.100718  0.208268  0  4.023169  0
C  C46  1  0.96412607  0.03750126  0.23468012  1  0  0.018476  0  3.686891  0  0  -0.019768  0  3.948265  0  0  -0.015119  0  3.965344  0  0  0.033978  -0.022094  0  3.935895  0
C  C47  1  0.46412182  0.23467587  0.03749562  1  0  0.018481  0  3.687012  0  0  -0.019751  0  3.948395  0  0  -0.015096  0  3.965489  0  0  0.034021  -0.022102  0  3.936008  0
C  C48  1  0.77471641  0.30330642  0.31654046  1  0  0.60789  0  3.74355  0  0  0.564029  0  4.036574  0  0  0.591989  0  4.0365  0  0  0.249156  0.544938  0  4.036068  0
C  C49  1  0.27472293  0.31653612  0.30330421  1  0  0.607595  0  3.743487  0  0  0.56367  0  4.036557  0  0  0.591652  0  4.036453  0  0  0.24897  0.544568  0  4.036066  0
C  C50  1  0.82459865  0.43452544  0.32125721  1  0  -0.30234  0  3.699527  0  0  -0.347015  0  3.938506  0  0  -0.351474  0  3.946019  0  0  -0.159029  -0.343486  0  3.932975  0
C  C51  1  0.32459368  0.32125244  0.43452007  1  0  -0.302315  0  3.699703  0  0  -0.346935  0  3.938604  0  0  -0.351406  0  3.946115  0  0  -0.158966  -0.343399  0  3.933065  0
C  C52  1  0.70396739  0.50219668  0.29037472  1  0  0.077402  0  3.708638  0  0  0.093501  0  3.942145  0  0  0.093855  0  3.965022  0  0  -0.008445  0.092614  0  3.926904  0
C  C53  1  0.20396696  0.29037154  0.50219425  1  0  0.077377  0  3.708814  0  0  0.093532  0  3.94225  0  0  0.093886  0  3.965125  0  0  -0.008385  0.092646  0  3.92701  0
C  C54  1  0.66534344  0.49806603  0.16881053  1  0  -0.121566  0  3.759302  0  0  -0.142479  0  4.00993  0  0  -0.145108  0  4.031086  0  0  -0.100375  -0.140357  0  3.995111  0
C  C55  1  0.16534098  0.16880799  0.49807531  1  0  -0.121557  0  3.759536  0  0  -0.142491  0  4.010151  0  0  -0.145121  0  4.031308  0  0  -0.100431  -0.140371  0  3.995336  0
C  C56  1  0.55180719  0.55528549  0.13355550  1  0  -0.071612  0  3.790996  0  0  -0.085053  0  4.038013  0  0  -0.087076  0  4.060273  0  0  -0.098215  -0.082954  0  4.02235  0
C  C57  1  0.05180558  0.13355803  0.55529358  1  0  -0.071618  0  3.791253  0  0  -0.08506  0  4.038285  0  0  -0.087085  0  4.060547  0  0  -0.098236  -0.082963  0  4.022619  0
C  C58  1  0.47541653  0.61931005  0.22021801  1  0  -0.062199  0  3.795563  0  0  -0.075221  0  4.04493  0  0  -0.076802  0  4.067617  0  0  -0.099495  -0.073605  0  4.029757  0
C  C59  1  0.97541890  0.22022004  0.61931649  1  0  -0.062149  0  3.795544  0  0  -0.075201  0  4.044901  0  0  -0.076781  0  4.067587  0  0  -0.099504  -0.073585  0  4.029729  0
C  C60  1  0.51339546  0.62449730  0.34168416  1  0  -0.128293  0  3.763927  0  0  -0.145543  0  4.008128  0  0  -0.149038  0  4.030361  0  0  -0.099766  -0.14363  0  3.993197  0
C  C61  1  0.01339287  0.34168291  0.62449667  1  0  -0.128394  0  3.763896  0  0  -0.145653  0  4.008131  0  0  -0.149148  0  4.030366  0  0  -0.099809  -0.143737  0  3.993199  0
C  C62  1  0.62608234  0.56579826  0.37799051  1  0  0.065337  0  3.726165  0  0  0.078932  0  3.964168  0  0  0.07882  0  3.988547  0  0  -0.013511  0.079119  0  3.947713  0
C  C63  1  0.12607710  0.37798904  0.56579326  1  0  0.065479  0  3.726089  0  0  0.079014  0  3.964076  0  0  0.078904  0  3.988453  0  0  -0.013516  0.079198  0  3.947625  0
C  C64  1  0.66420194  0.57579519  0.51046782  1  0  -0.295174  0  3.715584  0  0  -0.342498  0  3.96571  0  0  -0.346606  0  3.97299  0  0  -0.153805  -0.339579  0  3.960514  0
C  C65  1  0.16419612  0.51046752  0.57579288  1  0  -0.295558  0  3.715842  0  0  -0.342691  0  3.96578  0  0  -0.346811  0  3.973051  0  0  -0.153899  -0.339772  0  3.960587  0
C  C66  1  0.78871872  0.67340042  0.56612206  1  0  0.592407  0  3.776233  0  0  0.552686  0  4.071867  0  0  0.580059  0  4.071752  0  0  0.242784  0.534363  0  4.070984  0
C  C67  1  0.28870285  0.56612274  0.67339326  1  0  0.592477  0  3.776122  0  0  0.552722  0  4.071644  0  0  0.580096  0  4.071531  0  0  0.242871  0.534399  0  4.070763  0
C  C68  1  0.90346045  0.80487615  0.75913743  1  0  0.201174  0  3.818497  0  0  0.200064  0  4.069247  0  0  0.20334  0  4.091803  0  0  0.09312  0.197357  0  4.054886  0
C  C69  1  0.40343939  0.75913370  0.80487103  1  0  0.201202  0  3.818648  0  0  0.199972  0  4.069399  0  0  0.203246  0  4.091952  0  0  0.093025  0.197265  0  4.055041  0
C  C70  1  0.96058451  0.90460466  0.72153142  1  0  -0.103292  0  3.698335  0  0  -0.130676  0  3.949853  0  0  -0.129433  0  3.965937  0  0  -0.072761  -0.131314  0  3.93909  0
C  C71  1  0.46056952  0.72152837  0.90460124  1  0  -0.103545  0  3.698246  0  0  -0.130808  0  3.949851  0  0  -0.129566  0  3.965936  0  0  -0.072818  -0.131463  0  3.939103  0
C  C72  1  0.07149398  0.98320468  0.79591024  1  0  -0.111567  0  3.7712  0  0  -0.121846  0  4.021884  0  0  -0.127584  0  4.043755  0  0  -0.087601  -0.117648  0  4.007074  0
C  C73  1  0.57147898  0.79590384  0.98319605  1  0  -0.111306  0  3.770968  0  0  -0.121589  0  4.02164  0  0  -0.127328  0  4.043512  0  0  -0.087466  -0.117391  0  4.006829  0
C  C74  1  0.12213957  0.96067521  0.90523749  1  0  0.108779  0  3.717611  0  0  0.075371  0  3.974689  0  0  0.081702  0  3.992854  0  0  0.036446  0.070969  0  3.963305  0
C  C75  1  0.62212939  0.90522984  0.96066764  1  0  0.108893  0  3.717215  0  0  0.075474  0  3.974328  0  0  0.081821  0  3.992475  0  0  0.036459  0.071093  0  3.962955  0
C  C76  1  0.96008261  0.78902288  0.86996299  1  0  0.012906  0  3.709387  0  0  -0.022402  0  3.962779  0  0  -0.018835  0  3.980829  0  0  0.028564  -0.025486  0  3.952403  0
C  C77  1  0.46006448  0.86995970  0.78902142  1  0  0.012664  0  3.709579  0  0  -0.022555  0  3.962997  0  0  -0.018995  0  3.98106  0  0  0.028455  -0.025647  0  3.952628  0
I  I78  1  0.02787772  0.58318714  0.07240273  1  0  -0.347654  0  1.177306  0  0  -0.30525  0  1.501258  0  0  -0.320881  0  1.479888  0  0  -0.162835  -0.293855  0  1.516869  0
I  I79  1  0.52787311  0.07240573  0.58318807  1  0  -0.347668  0  1.177312  0  0  -0.30525  0  1.501229  0  0  -0.320879  0  1.479857  0  0  -0.162835  -0.293857  0  1.516843  0
I  I80  1  0.37370398  0.98304027  0.21994489  1  0  -0.313642  0  1.197536  0  0  -0.271166  0  1.546015  0  0  -0.288613  0  1.529016  0  0  -0.150405  -0.258476  0  1.556308  0
I  I81  1  0.87370300  0.21994156  0.98303832  1  0  -0.313596  0  1.197547  0  0  -0.271114  0  1.546044  0  0  -0.288562  0  1.529043  0  0  -0.150387  -0.258427  0  1.556339  0
N  N82  1  0.95912669  0.91853094  0.22232743  1  0  -0.273905  0  3.310783  0  0  -0.19612  0  3.570939  0  0  -0.215035  0  3.594504  0  0  -0.320816  -0.18313  0  3.552832  0
N  N83  1  0.45912349  0.22232796  0.91852796  1  0  -0.273922  0  3.310713  0  0  -0.196181  0  3.5709  0  0  -0.215095  0  3.594456  0  0  -0.320842  -0.18319  0  3.552801  0
N  N84  1  0.87911271  0.22972919  0.30385234  1  0  -0.45855  0  3.372334  0  0  -0.401925  0  3.610571  0  0  -0.425275  0  3.622822  0  0  -0.398773  -0.38544  0  3.603137  0
N  N85  1  0.37910837  0.30384881  0.22972605  1  0  -0.458288  0  3.372693  0  0  -0.401567  0  3.610831  0  0  -0.424926  0  3.623082  0  0  -0.398667  -0.385082  0  3.603397  0
N  N86  1  0.79203609  0.72072073  0.68876175  1  0  -0.466627  0  3.325753  0  0  -0.416226  0  3.563594  0  0  -0.437563  0  3.573859  0  0  -0.405947  -0.401209  0  3.556559  0
N  N87  1  0.29201994  0.68875835  0.72071641  1  0  -0.466643  0  3.325898  0  0  -0.415991  0  3.563661  0  0  -0.43732  0  3.573923  0  0  -0.405824  -0.400973  0  3.556621  0
N  N88  1  0.06653410  0.86526287  0.94072098  1  0  -0.266318  0  3.280901  0  0  -0.193885  0  3.544574  0  0  -0.211404  0  3.566455  0  0  -0.317785  -0.18278  0  3.530506  0
N  N89  1  0.56651986  0.94071724  0.86525980  1  0  -0.266224  0  3.280682  0  0  -0.193805  0  3.544349  0  0  -0.211324  0  3.566225  0  0  -0.317704  -0.182699  0  3.530275  0
O  O90  1  0.64876195  0.26727482  0.32403479  1  0  -0.566497  0  1.978875  0  0  -0.512775  0  2.200816  0  0  -0.534067  0  2.195486  0  0  -0.291865  -0.496761  0  2.203681  0
O  O91  1  0.14875069  0.32403281  0.26727069  1  0  -0.566501  0  1.978425  0  0  -0.512734  0  2.200336  0  0  -0.534039  0  2.194999  0  0  -0.291822  -0.496711  0  2.203201  0
O  O92  1  0.88079884  0.70585559  0.50808160  1  0  -0.531512  0  1.888543  0  0  -0.491728  0  2.093401  0  0  -0.511951  0  2.089585  0  0  -0.292097  -0.477612  0  2.095833  0
O  O93  1  0.38079735  0.50807907  0.70584737  1  0  -0.531526  0  1.888298  0  0  -0.491757  0  2.093136  0  0  -0.511984  0  2.08932  0  0  -0.292128  -0.477638  0  2.095572  0
