# generated using pymatgen
data_CoH8C9O8
_symmetry_space_group_name_H-M   'P 1'
_cell_length_a   7.67134914
_cell_length_b   10.48914398
_cell_length_c   33.28740970
_cell_angle_alpha   89.99994974
_cell_angle_beta   90.00066994
_cell_angle_gamma   100.49281841
_symmetry_Int_Tables_number   1
_chemical_formula_structural   CoH8C9O8
_chemical_formula_sum   'Co8 H64 C72 O64'
_cell_volume   2633.71031801
_cell_formula_units_Z   8
loop_
 _symmetry_equiv_pos_site_id
 _symmetry_equiv_pos_as_xyz
  1  'x, y, z'
loop_
 _atom_site_type_symbol
 _atom_site_label
 _atom_site_symmetry_multiplicity
 _atom_site_fract_x
 _atom_site_fract_y
 _atom_site_fract_z
 _atom_site_occupancy
 _atom_site_pbe_bader_charge
 _atom_site_pbe_bader_spin_density
 _atom_site_pbe_cm5_charge
 _atom_site_pbe_ddec_charge
 _atom_site_pbe_ddec_spin_density
 _atom_site_pbe_ddec_sum_bond_order
 _atom_site_pbe_magmom
Co  Co0  1  0.94240151  0.51981863  0.75131950  1  1.303852  2.614406  0.636219  1.071962  2.80478  2.237181  2.602
Co  Co1  1  0.55759332  0.48018239  0.25132033  1  1.303904  2.614411  0.63622  1.071897  2.804776  2.237161  2.602
Co  Co2  1  0.05759764  0.48018274  0.24868262  1  1.303839  2.614421  0.636227  1.071978  2.804799  2.237098  2.602
Co  Co3  1  0.44240014  0.51981701  0.74867969  1  1.303864  2.614413  0.636229  1.071936  2.80478  2.23715  2.602
Co  Co4  1  0.49999827  0.50000068  0.49999986  1  1.313482  2.627009  0.6401  1.083044  2.815971  2.234254  2.614
Co  Co5  1  0.00000524  0.49999717  0.99999783  1  1.313434  2.627013  0.640203  1.083185  2.815966  2.23427  2.614
Co  Co6  1  0.99999320  0.49999741  0.50000084  1  1.30139  2.615064  0.635499  1.066348  2.800295  2.226621  2.602
Co  Co7  1  0.50000416  0.49999974  0.99999941  1  1.301419  2.615052  0.635475  1.066263  2.800288  2.226772  2.602
H  H8  1  0.08807793  0.91959787  0.76458486  1  0.115444  0.000153  0.115541  0.126431  4.4e-05  0.978061  0.0
H  H9  1  0.41191750  0.08041063  0.26458647  1  0.115311  0.000153  0.115502  0.126317  4.4e-05  0.978113  0.0
H  H10  1  0.91193059  0.08040454  0.23541606  1  0.11558  0.000153  0.115515  0.126396  4.4e-05  0.978095  0.0
H  H11  1  0.58808817  0.91959079  0.73541325  1  0.115339  0.000153  0.115499  0.126352  4.4e-05  0.978049  0.0
H  H12  1  0.26410708  0.14388783  0.76281577  1  0.122265  0.000144  0.112993  0.123955  2.9e-05  0.993202  0.0
H  H13  1  0.23589933  0.85611784  0.26281548  1  0.122687  0.000144  0.11298  0.12393  2.9e-05  0.993138  0.0
H  H14  1  0.73589689  0.85611745  0.23718334  1  0.122606  0.000144  0.112976  0.123926  2.9e-05  0.993208  0.0
H  H15  1  0.76411379  0.14388751  0.73718334  1  0.122778  0.000144  0.112975  0.123907  2.9e-05  0.993208  0.0
H  H16  1  0.34664539  0.08753679  0.48524398  1  0.073763  9.2e-05  0.109808  0.111287  -9e-06  0.989087  0.0
H  H17  1  0.15336082  0.91245909  0.98524436  1  0.073768  9.2e-05  0.109833  0.11132  -9e-06  0.989081  0.0
H  H18  1  0.65333449  0.91245477  0.51475544  1  0.073667  9.2e-05  0.109786  0.111252  -9e-06  0.989082  0.0
H  H19  1  0.84666184  0.08754246  0.01475536  1  0.073652  9.2e-05  0.109782  0.11127  -9e-06  0.989026  0.0
H  H20  1  0.16859853  0.86530109  0.48742854  1  0.137029  0.000131  0.112341  0.126523  1.4e-05  0.99577  0.0
H  H21  1  0.33141455  0.13469581  0.98742722  1  0.136952  0.000131  0.112352  0.126569  1.4e-05  0.99568  0.0
H  H22  1  0.83138828  0.13468664  0.51257358  1  0.137241  0.000131  0.112414  0.126624  1.4e-05  0.995682  0.0
H  H23  1  0.66860679  0.86530573  0.01257190  1  0.137079  0.000131  0.112394  0.126613  1.4e-05  0.995758  0.0
H  H24  1  0.15956731  0.43705100  0.79559525  1  0.64602  0.000256  0.293888  0.383933  0.000252  0.959089  0.0
H  H25  1  0.34043158  0.56294894  0.29559623  1  0.646022  0.000256  0.293885  0.383942  0.000252  0.959068  0.0
H  H26  1  0.84043013  0.56295423  0.20440687  1  0.646036  0.000256  0.293857  0.38393  0.000252  0.9591  0.0
H  H27  1  0.65956541  0.43705436  0.70440319  1  0.645966  0.000256  0.293876  0.383917  0.000252  0.959111  0.0
H  H28  1  0.23012745  0.60390803  0.79484819  1  0.639143  0.000167  0.29453  0.387317  0.000198  0.954438  0.0
H  H29  1  0.26987748  0.39609001  0.29484963  1  0.639513  0.000167  0.294507  0.387299  0.000198  0.954449  0.0
H  H30  1  0.76986540  0.39609426  0.20515273  1  0.639194  0.000167  0.29456  0.387331  0.000198  0.954413  0.0
H  H31  1  0.73012797  0.60391044  0.70515039  1  0.639514  0.000167  0.294516  0.3873  0.000198  0.954441  0.0
H  H32  1  0.75866150  0.66842156  0.79120939  1  0.664424  0.000325  0.293237  0.391157  -0.00014  0.954432  0.0
H  H33  1  0.74134129  0.33158257  0.29120986  1  0.664411  0.000324  0.29326  0.391122  -0.00014  0.954461  0.0
H  H34  1  0.24134140  0.33158468  0.20879183  1  0.6644  0.000324  0.29327  0.391167  -0.00014  0.954423  0.0
H  H35  1  0.25866285  0.66841787  0.70878926  1  0.664445  0.000324  0.293265  0.391131  -0.00014  0.954444  0.0
H  H36  1  0.89761704  0.62673826  0.82175236  1  0.632798  0.001173  0.332397  0.414874  0.00063  0.853338  0.001
H  H37  1  0.60238403  0.37326308  0.32175394  1  0.632709  0.001173  0.332393  0.414792  0.000629  0.853411  0.001
H  H38  1  0.10238364  0.37326410  0.17824766  1  0.632775  0.001173  0.332427  0.414864  0.000629  0.853356  0.001
H  H39  1  0.39761528  0.62673346  0.67824607  1  0.63275  0.001172  0.332458  0.414871  0.000629  0.853412  0.001
H  H40  1  0.96080287  0.39492794  0.68211620  1  0.589492  0.001257  0.332893  0.412905  0.000622  0.856323  0.001
H  H41  1  0.53918595  0.60506794  0.18211635  1  0.589515  0.001257  0.332906  0.412889  0.000622  0.856315  0.001
H  H42  1  0.03918844  0.60507338  0.31788592  1  0.589437  0.001257  0.332862  0.412918  0.000622  0.856347  0.001
H  H43  1  0.46081297  0.39493247  0.81788487  1  0.589465  0.001258  0.332838  0.412825  0.000623  0.856438  0.001
H  H44  1  0.12357816  0.36963911  0.70905348  1  0.650418  0.000619  0.292582  0.392472  6.6e-05  0.951478  0.001
H  H45  1  0.37641566  0.63036336  0.20905454  1  0.650362  0.000619  0.292626  0.392479  6.5e-05  0.95145  0.001
H  H46  1  0.87640793  0.63036217  0.29094834  1  0.650318  0.000619  0.292584  0.392454  6.6e-05  0.951475  0.001
H  H47  1  0.62358110  0.36963896  0.79094729  1  0.650383  0.000619  0.292621  0.392485  6.6e-05  0.951444  0.001
H  H48  1  0.53094573  0.68954805  0.55399807  1  0.628301  0.001013  0.323306  0.410866  0.000596  0.878294  0.001
H  H49  1  0.96905983  0.31045230  0.05399826  1  0.628313  0.001013  0.323287  0.410841  0.000596  0.878373  0.001
H  H50  1  0.46905227  0.31044847  0.44600165  1  0.62825  0.001013  0.323272  0.410827  0.000596  0.878377  0.001
H  H51  1  0.03094108  0.68955103  0.94600026  1  0.62828  0.001013  0.323289  0.410893  0.000597  0.878278  0.001
H  H52  1  0.32098766  0.63833125  0.54713994  1  0.663162  0.000679  0.293286  0.396079  0.00017  0.940258  0.001
H  H53  1  0.17901365  0.36166582  0.04714054  1  0.663179  0.000679  0.293297  0.396066  0.00017  0.940265  0.001
H  H54  1  0.67900382  0.36166522  0.45285978  1  0.663191  0.000679  0.29329  0.3961  0.00017  0.940236  0.001
H  H55  1  0.82098481  0.63833265  0.95285888  1  0.663148  0.000679  0.293277  0.396077  0.00017  0.94026  0.001
H  H56  1  0.77867538  0.57089841  0.54551323  1  0.673574  3.2e-05  0.295638  0.384518  -0.000131  0.959168  0.0
H  H57  1  0.72133121  0.42909708  0.04551212  1  0.673488  3.1e-05  0.295641  0.384458  -0.00013  0.959257  0.0
H  H58  1  0.22132017  0.42909326  0.45448799  1  0.673443  3.1e-05  0.295689  0.384544  -0.00013  0.959133  0.0
H  H59  1  0.27868076  0.57090343  0.95448580  1  0.673483  3.2e-05  0.295681  0.384509  -0.00013  0.959184  0.0
H  H60  1  0.70732665  0.40497722  0.54403001  1  0.655936  0.000283  0.294602  0.389638  0.000456  0.950359  0.0
H  H61  1  0.79267409  0.59502692  0.04402694  1  0.655944  0.000283  0.294566  0.389623  0.000456  0.950384  0.0
H  H62  1  0.29266721  0.59501830  0.45596970  1  0.655937  0.000282  0.294614  0.38977  0.000455  0.950197  0.0
H  H63  1  0.20732682  0.40497640  0.95597067  1  0.655908  0.000283  0.294616  0.389683  0.000456  0.950307  0.0
H  H64  1  0.04457100  0.37905031  0.56726523  1  0.598947  0.000962  0.33375  0.415713  0.000447  0.850111  0.001
H  H65  1  0.45544111  0.62094402  0.06726440  1  0.598844  0.000962  0.333703  0.415626  0.000447  0.850193  0.001
H  H66  1  0.95543053  0.62095012  0.43273539  1  0.598969  0.000962  0.333721  0.415661  0.000447  0.850166  0.001
H  H67  1  0.54456518  0.37905450  0.93273772  1  0.599037  0.000962  0.333733  0.415599  0.000447  0.850191  0.001
H  H68  1  0.17797047  0.33808734  0.53553300  1  0.663023  0.000263  0.294033  0.39173  -0.000186  0.953057  0.0
H  H69  1  0.32203791  0.66191458  0.03553149  1  0.663072  0.000263  0.294056  0.391813  -0.000186  0.952944  0.0
H  H70  1  0.82202101  0.66190914  0.46446642  1  0.662953  0.000262  0.294115  0.391848  -0.000186  0.952916  0.0
H  H71  1  0.67797935  0.33809176  0.96446913  1  0.663061  0.000263  0.294093  0.391836  -0.000186  0.952909  0.0
C  C72  1  0.09446960  0.89383878  0.70036720  1  -0.005796  0.004282  0.006908  -0.022598  0.002051  3.914369  0.003
C  C73  1  0.40554375  0.10615994  0.20036668  1  -0.005894  0.004283  0.00696  -0.022586  0.002052  3.914484  0.003
C  C74  1  0.90553800  0.10615976  0.29963432  1  -0.005794  0.004282  0.00698  -0.022635  0.002052  3.914503  0.003
C  C75  1  0.59445494  0.89383950  0.79963244  1  -0.005912  0.004282  0.006927  -0.022627  0.002051  3.914464  0.003
C  C76  1  0.13405883  0.96411498  0.73597080  1  -0.058534  0.001942  -0.06452  -0.075692  0.000885  3.917305  0.001
C  C77  1  0.36593990  0.03589150  0.23597109  1  -0.058308  0.001941  -0.064502  -0.075541  0.000885  3.917145  0.001
C  C78  1  0.86594077  0.03588833  0.26403012  1  -0.058418  0.001941  -0.064548  -0.075581  0.000885  3.917209  0.001
C  C79  1  0.63405318  0.96411176  0.76402833  1  -0.058293  0.001942  -0.064447  -0.075456  0.000885  3.917059  0.001
C  C80  1  0.23372709  0.08939572  0.73497669  1  0.009832  0.001971  -0.065032  -0.074713  0.00092  3.914611  0.001
C  C81  1  0.26627573  0.91061176  0.23497766  1  0.009179  0.001971  -0.065065  -0.074807  0.00092  3.914615  0.001
C  C82  1  0.76626837  0.91060659  0.26502273  1  0.009244  0.001971  -0.065048  -0.074781  0.00092  3.914694  0.001
C  C83  1  0.73371150  0.08939437  0.76502206  1  0.009063  0.00197  -0.06505  -0.074824  0.00092  3.914613  0.001
C  C84  1  0.29390809  0.14711689  0.69834519  1  -0.020937  0.003977  0.003985  -0.030147  0.001895  3.912961  0.003
C  C85  1  0.20608824  0.85288749  0.19834722  1  -0.02096  0.003978  0.004059  -0.030016  0.001896  3.912681  0.003
C  C86  1  0.70608476  0.85288540  0.30165302  1  -0.021135  0.003977  0.00402  -0.030085  0.001895  3.91291  0.003
C  C87  1  0.79390046  0.14711380  0.80165220  1  -0.020957  0.003978  0.004043  -0.029947  0.001896  3.9127  0.003
C  C88  1  0.25227068  0.07832854  0.66237088  1  -0.018004  0.003171  -0.006078  -0.052299  0.001563  3.953651  0.002
C  C89  1  0.24772572  0.92167281  0.16237180  1  -0.017931  0.003171  -0.006079  -0.052316  0.001562  3.953368  0.002
C  C90  1  0.74772562  0.92167185  0.33762853  1  -0.017884  0.003171  -0.006124  -0.052399  0.001563  3.95349  0.002
C  C91  1  0.75226905  0.07832660  0.83762821  1  -0.018009  0.003171  -0.006084  -0.052295  0.001562  3.953372  0.002
C  C92  1  0.29501911  0.14354593  0.62314679  1  0.899597  0.002413  0.15994  0.352607  0.001208  4.010136  0.001
C  C93  1  0.20497384  0.85644362  0.12314882  1  0.89999  0.002411  0.159921  0.352461  0.001208  4.010637  0.001
C  C94  1  0.70497475  0.85644959  0.37685172  1  0.899479  0.002412  0.160003  0.352773  0.001208  4.009971  0.001
C  C95  1  0.79501695  0.14354994  0.87685150  1  0.899318  0.002413  0.159886  0.352433  0.001208  4.010014  0.001
C  C96  1  0.27542379  0.06282318  0.58623823  1  0.00098  0.002864  -0.005599  -0.051274  0.001404  3.952746  0.001
C  C97  1  0.22458782  0.93717605  0.08623818  1  0.001463  0.002863  -0.005622  -0.051397  0.001404  3.952729  0.001
C  C98  1  0.72457689  0.93717917  0.41376029  1  0.001464  0.002863  -0.005564  -0.051326  0.001404  3.952672  0.001
C  C99  1  0.77541586  0.06282245  0.91376094  1  0.001663  0.002863  -0.005626  -0.051309  0.001404  3.952764  0.001
C  C100  1  0.33936750  0.11709871  0.54935079  1  -0.016233  0.004945  0.003894  -0.02968  0.002471  3.925688  0.003
C  C101  1  0.16064352  0.88290038  0.04935028  1  -0.016181  0.004946  0.003876  -0.029665  0.002472  3.925838  0.003
C  C102  1  0.66061960  0.88289580  0.45064623  1  -0.016078  0.004945  0.003778  -0.029821  0.002472  3.92575  0.003
C  C103  1  0.83936545  0.11710397  0.95064763  1  -0.016198  0.004945  0.003856  -0.029779  0.002471  3.925897  0.003
C  C104  1  0.29960527  0.04513622  0.51403859  1  -0.041069  0.001841  -0.071931  -0.081264  0.000842  3.951139  0.001
C  C105  1  0.20040155  0.95486367  0.01403908  1  -0.041078  0.00184  -0.071918  -0.081257  0.000842  3.951247  0.001
C  C106  1  0.70037371  0.95485145  0.48595962  1  -0.04138  0.001841  -0.071786  -0.081099  0.000842  3.950875  0.001
C  C107  1  0.79962446  0.04514661  0.98596004  1  -0.041362  0.001841  -0.071753  -0.081043  0.000842  3.950872  0.001
C  C108  1  0.19888790  0.92039356  0.51513454  1  0.021472  0.002091  -0.071273  -0.083979  0.000999  3.929631  0.001
C  C109  1  0.30111852  0.07960440  0.01513254  1  0.021881  0.002092  -0.071236  -0.083963  0.000999  3.929686  0.001
C  C110  1  0.80110022  0.07959419  0.48486698  1  0.021627  0.002092  -0.071245  -0.083929  0.000999  3.929507  0.001
C  C111  1  0.69889982  0.92040099  0.98486687  1  0.021741  0.002092  -0.071235  -0.083953  0.000999  3.929702  0.001
C  C112  1  0.13790417  0.86442789  0.55188260  1  -0.011833  0.004008  0.001604  -0.032388  0.001979  3.926822  0.003
C  C113  1  0.36210392  0.13556925  0.05188165  1  -0.012367  0.004008  0.001482  -0.032558  0.001979  3.926932  0.003
C  C114  1  0.86208839  0.13556763  0.44811892  1  -0.012052  0.004008  0.001464  -0.032762  0.001979  3.927212  0.003
C  C115  1  0.63791090  0.86443224  0.94811927  1  -0.012116  0.004008  0.001458  -0.032695  0.001979  3.927227  0.003
C  C116  1  0.17992677  0.93453052  0.58757572  1  -0.077239  0.003075  -0.006522  -0.05366  0.001507  3.961904  0.002
C  C117  1  0.32007208  0.06546959  0.08757498  1  -0.077274  0.003074  -0.006597  -0.053736  0.001507  3.962121  0.002
C  C118  1  0.82007430  0.06546797  0.41242490  1  -0.077271  0.003075  -0.006606  -0.053689  0.001507  3.962147  0.002
C  C119  1  0.67993092  0.93452600  0.91242414  1  -0.077163  0.003075  -0.006564  -0.053736  0.001507  3.962027  0.002
C  C120  1  0.13412104  0.86992050  0.62670247  1  0.89382  0.002623  0.159635  0.352132  0.001346  4.015705  0.001
C  C121  1  0.36588528  0.13008078  0.12670213  1  0.893936  0.002623  0.159672  0.352188  0.001346  4.015486  0.001
C  C122  1  0.86588526  0.13007802  0.37329845  1  0.893841  0.002623  0.159686  0.352267  0.001346  4.015578  0.001
C  C123  1  0.63411341  0.86991865  0.87329788  1  0.893855  0.002624  0.159689  0.352317  0.001346  4.0155  0.001
C  C124  1  0.15740782  0.94970087  0.66361284  1  -0.00714  0.003078  -0.006792  -0.057944  0.001525  3.963299  0.002
C  C125  1  0.34260425  0.05029479  0.16361337  1  -0.007224  0.003078  -0.00682  -0.057966  0.001525  3.963345  0.002
C  C126  1  0.84259586  0.05029763  0.33638778  1  -0.007267  0.003078  -0.006781  -0.057943  0.001525  3.963212  0.002
C  C127  1  0.65740136  0.94970082  0.83638695  1  -0.00708  0.003078  -0.006855  -0.058136  0.001525  3.963435  0.002
C  C128  1  0.98021622  0.76125703  0.70275190  1  1.601967  0.003825  0.228043  0.60533  0.002092  4.177692  0.002
C  C129  1  0.51978542  0.23873902  0.20275511  1  1.601947  0.003823  0.228075  0.605453  0.002091  4.1777  0.002
C  C130  1  0.01978939  0.23873859  0.29724631  1  1.60169  0.003825  0.228034  0.605327  0.002092  4.177711  0.002
C  C131  1  0.48020521  0.76125939  0.79724671  1  1.602098  0.003825  0.228149  0.605551  0.002092  4.177475  0.002
C  C132  1  0.40808046  0.27986677  0.69963501  1  1.631255  0.004492  0.225712  0.60378  0.002532  4.177534  0.002
C  C133  1  0.09192286  0.72013381  0.19963796  1  1.631443  0.004493  0.225814  0.604039  0.002533  4.17731  0.002
C  C134  1  0.59191569  0.72013846  0.30036381  1  1.631449  0.004492  0.225741  0.603943  0.002532  4.177316  0.002
C  C135  1  0.90807651  0.27986854  0.80036356  1  1.631486  0.004493  0.225823  0.603914  0.002533  4.17762  0.002
C  C136  1  0.45396390  0.24914230  0.54570240  1  1.611537  0.00201  0.221965  0.591746  0.000648  4.198934  0.001
C  C137  1  0.04605131  0.75085874  0.04570102  1  1.612049  0.00201  0.222009  0.591873  0.000648  4.199221  0.001
C  C138  1  0.54602496  0.75085416  0.45429522  1  1.60957  0.00201  0.222015  0.591823  0.000647  4.19891  0.001
C  C139  1  0.95396204  0.24914757  0.95429600  1  1.611387  0.00201  0.221954  0.591817  0.000647  4.198875  0.001
C  C140  1  0.02511896  0.73126343  0.55096890  1  1.620111  0.005208  0.227303  0.610778  0.003034  4.176243  0.003
C  C141  1  0.47490174  0.26873767  0.05096762  1  1.620744  0.005212  0.227362  0.610814  0.003034  4.175989  0.003
C  C142  1  0.97488534  0.26873218  0.44903562  1  1.620662  0.00521  0.227391  0.611063  0.003035  4.175832  0.003
C  C143  1  0.52511592  0.73126481  0.94903300  1  1.620207  0.00521  0.227333  0.610921  0.003035  4.175928  0.003
O  O144  1  0.33187930  0.26328635  0.62076845  1  -1.023218  0.004883  -0.243477  -0.37217  0.002298  2.100838  0.004
O  O145  1  0.16811242  0.73672061  0.12076891  1  -1.023853  0.004879  -0.243411  -0.371981  0.002296  2.101622  0.004
O  O146  1  0.66811201  0.73671497  0.37923307  1  -1.02346  0.004881  -0.243432  -0.372173  0.002298  2.100942  0.004
O  O147  1  0.83187726  0.26329037  0.87922871  1  -1.02324  0.004883  -0.243399  -0.372001  0.002298  2.100862  0.004
O  O148  1  0.09016725  0.75038779  0.62855568  1  -1.024968  0.005723  -0.241488  -0.370334  0.002745  2.116316  0.004
O  O149  1  0.40983378  0.24961830  0.12855453  1  -1.02508  0.005722  -0.241476  -0.370308  0.002745  2.116137  0.004
O  O150  1  0.90982468  0.24961063  0.37144494  1  -1.024948  0.005723  -0.24153  -0.370373  0.002745  2.116142  0.004
O  O151  1  0.59015907  0.75038399  0.87144489  1  -1.025074  0.005724  -0.24152  -0.370367  0.002746  2.116181  0.004
O  O152  1  0.05809886  0.67128386  0.71696385  1  -1.176014  0.059525  -0.320056  -0.600966  0.0302  2.436506  0.048
O  O153  1  0.44190199  0.32870805  0.21696817  1  -1.176008  0.059527  -0.320108  -0.601052  0.030203  2.43637  0.048
O  O154  1  0.94190828  0.32871274  0.28303557  1  -1.175951  0.059527  -0.320085  -0.600947  0.030201  2.436361  0.048
O  O155  1  0.55808227  0.67128547  0.78303726  1  -1.175999  0.059518  -0.320088  -0.601018  0.030197  2.436399  0.048
O  O156  1  0.81882026  0.74730518  0.69435512  1  -1.133349  0.010716  -0.297938  -0.502787  0.00475  2.132264  0.009
O  O157  1  0.68117487  0.25269272  0.19435845  1  -1.133308  0.010716  -0.297887  -0.502784  0.00475  2.132286  0.009
O  O158  1  0.18118620  0.25268850  0.30564189  1  -1.133226  0.010716  -0.297898  -0.502796  0.00475  2.132266  0.009
O  O159  1  0.31881115  0.74730275  0.80564367  1  -1.133525  0.010716  -0.297996  -0.502925  0.00475  2.132075  0.009
O  O160  1  0.32873508  0.37183127  0.71183049  1  -1.174222  0.055708  -0.318459  -0.604227  0.028181  2.419824  0.044
O  O161  1  0.17126511  0.62816448  0.21183249  1  -1.174251  0.055704  -0.318483  -0.604356  0.028178  2.419709  0.044
O  O162  1  0.67126321  0.62817203  0.28817043  1  -1.174106  0.055701  -0.318407  -0.604226  0.028178  2.419635  0.044
O  O163  1  0.82873449  0.37183883  0.78817024  1  -1.174211  0.055704  -0.318493  -0.604324  0.028179  2.419847  0.044
O  O164  1  0.57076861  0.29308003  0.69258030  1  -1.164071  0.010414  -0.299255  -0.507769  0.0046  2.136762  0.008
O  O165  1  0.92923325  0.70692469  0.19258418  1  -1.164103  0.010414  -0.299364  -0.507942  0.0046  2.136742  0.008
O  O166  1  0.42922668  0.70692712  0.30741791  1  -1.164171  0.010412  -0.29934  -0.507908  0.004599  2.136704  0.008
O  O167  1  0.07076858  0.29308251  0.80741794  1  -1.16411  0.010415  -0.299316  -0.507873  0.004601  2.136938  0.009
O  O168  1  0.61345101  0.26556055  0.55615161  1  -1.154628  0.006468  -0.298592  -0.505091  0.00273  2.14116  0.005
O  O169  1  0.88656948  0.73444186  0.05614695  1  -1.155075  0.006468  -0.298515  -0.505061  0.002729  2.141708  0.005
O  O170  1  0.38653478  0.73443395  0.44384781  1  -1.15295  0.006468  -0.298619  -0.505123  0.00273  2.140998  0.005
O  O171  1  0.11345323  0.26556550  0.94385007  1  -1.154545  0.006467  -0.29856  -0.505118  0.002729  2.141215  0.005
O  O172  1  0.37829204  0.33402621  0.52779581  1  -1.16963  0.052833  -0.314297  -0.595221  0.026784  2.443743  0.043
O  O173  1  0.12171151  0.66596790  0.02779436  1  -1.1698  0.052833  -0.314447  -0.595443  0.026785  2.44356  0.043
O  O174  1  0.62169597  0.66597218  0.47220240  1  -1.169413  0.052834  -0.314349  -0.595277  0.026785  2.443947  0.043
O  O175  1  0.87829525  0.33403256  0.97220385  1  -1.169686  0.052839  -0.314389  -0.595324  0.026788  2.443801  0.043
O  O176  1  0.86072187  0.71760033  0.55621947  1  -1.167508  0.010776  -0.304755  -0.523088  0.00466  2.141284  0.009
O  O177  1  0.63930163  0.28239823  0.05621547  1  -1.167811  0.010773  -0.304755  -0.522962  0.004659  2.141363  0.009
O  O178  1  0.13928135  0.28239623  0.44378536  1  -1.167508  0.010777  -0.304812  -0.523117  0.004661  2.141293  0.009
O  O179  1  0.36071818  0.71760233  0.94378184  1  -1.167514  0.010776  -0.30478  -0.523058  0.00466  2.141223  0.009
O  O180  1  0.10786997  0.63930678  0.54044343  1  -1.173265  0.057623  -0.320343  -0.605764  0.02895  2.386727  0.046
O  O181  1  0.39213276  0.36069221  0.04044250  1  -1.173394  0.057622  -0.320372  -0.605836  0.028952  2.386496  0.046
O  O182  1  0.89212917  0.36069459  0.45955599  1  -1.173527  0.057612  -0.320353  -0.605859  0.028952  2.386421  0.046
O  O183  1  0.60787093  0.63930629  0.95955632  1  -1.173161  0.057609  -0.320347  -0.605821  0.028949  2.386558  0.046
O  O184  1  0.19438016  0.51949124  0.77878473  1  -1.244471  0.091014  -0.557886  -0.817748  0.047792  2.358274  0.078
O  O185  1  0.30561894  0.48050766  0.27878653  1  -1.244842  0.091012  -0.557826  -0.817731  0.04779  2.358196  0.078
O  O186  1  0.80562574  0.48051115  0.22121589  1  -1.24447  0.091007  -0.557852  -0.817744  0.047788  2.358284  0.078
O  O187  1  0.69437498  0.51949367  0.72121319  1  -1.244797  0.091008  -0.557839  -0.81774  0.047789  2.358258  0.078
O  O188  1  0.88515313  0.65374128  0.79410435  1  -1.249497  0.060327  -0.567277  -0.763714  0.030704  2.10316  0.048
O  O189  1  0.61483947  0.34625215  0.29410627  1  -1.249448  0.06033  -0.567317  -0.763617  0.030705  2.10329  0.048
O  O190  1  0.11484204  0.34625426  0.20589567  1  -1.249478  0.060326  -0.567377  -0.763766  0.030704  2.103153  0.048
O  O191  1  0.38516359  0.65374925  0.70589314  1  -1.249522  0.060329  -0.567394  -0.763718  0.030705  2.103301  0.048
O  O192  1  0.99486116  0.38071931  0.70964738  1  -1.198739  0.058074  -0.565824  -0.766162  0.029666  2.114469  0.046
O  O193  1  0.50513436  0.61928253  0.20964713  1  -1.198735  0.058076  -0.565893  -0.76615  0.029668  2.114468  0.046
O  O194  1  0.00512293  0.61927905  0.29035534  1  -1.198502  0.058073  -0.565832  -0.766202  0.029667  2.114525  0.046
O  O195  1  0.49486462  0.38072368  0.79035349  1  -1.198654  0.058076  -0.56584  -0.766112  0.029667  2.11456  0.046
O  O196  1  0.44130748  0.61312349  0.54852081  1  -1.244695  0.060794  -0.567627  -0.765829  0.030848  2.096726  0.048
O  O197  1  0.05869590  0.38687651  0.04852167  1  -1.244712  0.060789  -0.567633  -0.765805  0.030846  2.096764  0.048
O  O198  1  0.55868707  0.38687495  0.45147801  1  -1.244687  0.06079  -0.567614  -0.76583  0.030846  2.096709  0.048
O  O199  1  0.94130609  0.61312585  0.95147805  1  -1.244682  0.060795  -0.567612  -0.765893  0.030848  2.096675  0.048
O  O200  1  0.74604164  0.48971020  0.52817211  1  -1.285714  0.09556  -0.558357  -0.815627  0.050246  2.360436  0.081
O  O201  1  0.75397190  0.51028527  0.02817196  1  -1.285734  0.095565  -0.558384  -0.815637  0.050249  2.360454  0.081
O  O202  1  0.25396414  0.51028058  0.47182821  1  -1.28561  0.095563  -0.558465  -0.815875  0.05025  2.360324  0.081
O  O203  1  0.24604422  0.48971623  0.97182626  1  -1.28557  0.095555  -0.558427  -0.815689  0.050249  2.36046  0.081
O  O204  1  0.05258640  0.35465733  0.53921981  1  -1.214866  0.058768  -0.564405  -0.760171  0.029971  2.105068  0.047
O  O205  1  0.44741995  0.64534072  0.03921955  1  -1.214803  0.058763  -0.564392  -0.760145  0.02997  2.10508  0.047
O  O206  1  0.94740400  0.64534011  0.46078051  1  -1.214898  0.058761  -0.56448  -0.760242  0.029968  2.105039  0.047
O  O207  1  0.55259294  0.35466366  0.96078288  1  -1.214968  0.058774  -0.564453  -0.760116  0.029975  2.10513  0.047
