# generated using pymatgen
data_Cd2H40C30N2O11
_symmetry_space_group_name_H-M   'P 1'
_cell_length_a   7.55976221
_cell_length_b   20.75710748
_cell_length_c   21.74905351
_cell_angle_alpha   89.99953469
_cell_angle_beta   89.99983442
_cell_angle_gamma   89.99980521
_symmetry_Int_Tables_number   1
_chemical_formula_structural   Cd2H40C30N2O11
_chemical_formula_sum   'Cd8 H160 C120 N8 O44'
_cell_volume   3412.83530401
_cell_formula_units_Z   4
loop_
 _symmetry_equiv_pos_site_id
 _symmetry_equiv_pos_as_xyz
  1  'x, y, z'
loop_
 _atom_site_type_symbol
 _atom_site_label
 _atom_site_symmetry_multiplicity
 _atom_site_fract_x
 _atom_site_fract_y
 _atom_site_fract_z
 _atom_site_occupancy
 _atom_site_pbe_bader_charge
 _atom_site_pbe_bader_spin_density
 _atom_site_pbe_cm5_charge
 _atom_site_pbe_ddec_charge
 _atom_site_pbe_ddec_spin_density
 _atom_site_pbe_ddec_sum_bond_order
 _atom_site_pbe_magmom
Cd  Cd0  1  0.67157074  0.12369628  0.95491799  1  1.39263  0  0.800126  1.113704  0  2.093748  0
Cd  Cd1  1  0.32843451  0.62370211  0.04508122  1  1.392665  0  0.800095  1.113702  0  2.093802  0
Cd  Cd2  1  0.32842714  0.12369477  0.45491755  1  1.392631  0  0.800137  1.113802  0  2.093465  0
Cd  Cd3  1  0.67157017  0.62370170  0.54508212  1  1.392686  0  0.800073  1.113714  0  2.093703  0
Cd  Cd4  1  0.80550525  0.16504155  0.50118951  1  1.29026  0  0.757519  0.964458  0  2.121849  0
Cd  Cd5  1  0.19449962  0.66504080  0.49880386  1  1.29007  0  0.757527  0.964453  0  2.121767  0
Cd  Cd6  1  0.19450271  0.16504503  0.00119426  1  1.290083  0  0.757554  0.964565  0  2.121666  0
Cd  Cd7  1  0.80551010  0.66504407  0.99880693  1  1.290104  0  0.757572  0.964598  0  2.121464  0
H  H8  1  0.61419950  0.14929463  0.08301101  1  0.623871  0  0.311446  0.404655  0  0.901487  0
H  H9  1  0.38580420  0.64929442  0.91698708  1  0.624441  0  0.311419  0.404608  0  0.901548  0
H  H10  1  0.38580924  0.14929650  0.58300805  1  0.624152  0  0.311451  0.404599  0  0.901556  0
H  H11  1  0.61418784  0.64929544  0.41699096  1  0.624131  0  0.311417  0.40454  0  0.901637  0
H  H12  1  0.82534370  0.15412707  0.07945625  1  0.639923  0  0.291787  0.399846  0  0.9284  0
H  H13  1  0.17465598  0.65413191  0.92053997  1  0.639788  0  0.291785  0.399736  0  0.928548  0
H  H14  1  0.17466238  0.15412776  0.57945902  1  0.639876  0  0.291827  0.399844  0  0.928408  0
H  H15  1  0.82533333  0.65412882  0.42053766  1  0.639887  0  0.291834  0.399822  0  0.928443  0
H  H16  1  0.73134650  0.31422591  0.10657639  1  0.048632  0  0.090051  0.126762  0  1.000367  0
H  H17  1  0.26865699  0.81422460  0.89342456  1  0.048634  0  0.090038  0.126742  0  1.000438  0
H  H18  1  0.26866581  0.31422745  0.60657263  1  0.0489  0  0.090042  0.126782  0  1.000515  0
H  H19  1  0.73134298  0.81422837  0.39342740  1  0.048888  0  0.090049  0.126748  0  1.000439  0
H  H20  1  0.52781258  0.27753219  0.08647001  1  0.082145  0  0.090896  0.129022  0  1.040048  0
H  H21  1  0.47218993  0.77753142  0.91353306  1  0.082887  0  0.090891  0.128977  0  1.040087  0
H  H22  1  0.47219759  0.27753058  0.58647203  1  0.082071  0  0.090946  0.129057  0  1.039992  0
H  H23  1  0.52781814  0.77753303  0.41353150  1  0.082608  0  0.090884  0.12897  0  1.040054  0
H  H24  1  0.52917189  0.34608393  0.13448379  1  0.049367  0  0.088584  0.121246  0  1.012689  0
H  H25  1  0.47083131  0.84608308  0.86551829  1  0.049469  0  0.088581  0.12121  0  1.012638  0
H  H26  1  0.47083328  0.34608376  0.63448627  1  0.049586  0  0.088594  0.121281  0  1.012639  0
H  H27  1  0.52917522  0.84608373  0.36551581  1  0.049378  0  0.088571  0.121223  0  1.012735  0
H  H28  1  0.70159093  0.42920280  0.13830792  1  0.005906  0  0.086245  0.116933  0  1.027744  0
H  H29  1  0.29840224  0.92920220  0.86168984  1  0.005875  0  0.086243  0.11692  0  1.027708  0
H  H30  1  0.29840814  0.42920093  0.63830964  1  0.00576  0  0.086254  0.116923  0  1.027663  0
H  H31  1  0.70159165  0.92920119  0.36168995  1  0.005779  0  0.086256  0.116926  0  1.027661  0
H  H32  1  0.58742044  0.50058623  0.11615869  1  0.089692  0  0.095994  0.14681  0  1.001477  0
H  H33  1  0.41258065  0.00058710  0.88384010  1  0.089716  0  0.095955  0.14675  0  1.001439  0
H  H34  1  0.41257023  0.50058806  0.61616398  1  0.089637  0  0.095982  0.146816  0  1.001498  0
H  H35  1  0.58741632  0.00059201  0.38383756  1  0.089565  0  0.09597  0.146795  0  1.001382  0
H  H36  1  0.80981250  0.48909855  0.09435813  1  0.043177  0  0.093117  0.131787  0  1.028714  0
H  H37  1  0.19018541  0.98909916  0.90564100  1  0.043066  0  0.093119  0.131797  0  1.028712  0
H  H38  1  0.19019301  0.48909247  0.59435399  1  0.043305  0  0.093106  0.131741  0  1.028792  0
H  H39  1  0.80981285  0.98909801  0.40564193  1  0.043181  0  0.093084  0.131684  0  1.028824  0
H  H40  1  0.58224621  0.53762714  0.88562697  1  0.058642  0  0.093499  0.130872  0  1.033855  0
H  H41  1  0.41776248  0.03763022  0.11437428  1  0.058629  0  0.093546  0.130912  0  1.033821  0
H  H42  1  0.41777358  0.53762503  0.38563288  1  0.058837  0  0.093564  0.130882  0  1.033781  0
H  H43  1  0.58224305  0.03762799  0.61436837  1  0.058624  0  0.093534  0.130889  0  1.033946  0
H  H44  1  0.38789117  0.49499616  0.86576890  1  0.014762  0  0.088362  0.117593  0  1.012289  0
H  H45  1  0.61210802  0.99499751  0.13422835  1  0.014757  0  0.08841  0.11762  0  1.012245  0
H  H46  1  0.61213182  0.49499670  0.36577048  1  0.015015  0  0.08833  0.117466  0  1.012204  0
H  H47  1  0.38789382  0.99499841  0.63422539  1  0.014818  0  0.088377  0.117589  0  1.01228  0
H  H48  1  0.59441246  0.46938276  0.83658280  1  0.010486  0  0.088321  0.119536  0  1.006079  0
H  H49  1  0.40559755  0.96938412  0.16341603  1  0.010544  0  0.088271  0.119441  0  1.006085  0
H  H50  1  0.40560308  0.46938260  0.33658366  1  0.010555  0  0.088284  0.119439  0  1.00597  0
H  H51  1  0.59440824  0.96938621  0.66341700  1  0.010489  0  0.088257  0.11946  0  1.005998  0
H  H52  1  0.38364187  0.30427013  0.87525695  1  0.079205  0  0.09303  0.129946  0  1.02936  0
H  H53  1  0.61634716  0.80427444  0.12474638  1  0.079044  0  0.09296  0.129812  0  1.029511  0
H  H54  1  0.61636031  0.30426584  0.37525117  1  0.079074  0  0.093038  0.129842  0  1.029447  0
H  H55  1  0.38364328  0.80427342  0.62474986  1  0.079275  0  0.093025  0.129924  0  1.029451  0
H  H56  1  0.52909878  0.35501428  0.83290771  1  0.008509  0  0.084388  0.109111  0  1.031598  0
H  H57  1  0.47088847  0.85501841  0.16709384  1  0.008369  0  0.084366  0.109031  0  1.031562  0
H  H58  1  0.47090198  0.35501307  0.33290851  1  0.008475  0  0.084384  0.109065  0  1.03166  0
H  H59  1  0.52910908  0.85501721  0.66709442  1  0.008367  0  0.084367  0.109072  0  1.031568  0
H  H60  1  0.31719375  0.38297005  0.85354263  1  0.032808  0  0.087401  0.116433  0  1.017529  0
H  H61  1  0.68279853  0.88297024  0.14646055  1  0.032804  0  0.087432  0.116501  0  1.017541  0
H  H62  1  0.68280657  0.38296520  0.35353954  1  0.032803  0  0.087395  0.116434  0  1.017581  0
H  H63  1  0.31719761  0.88297027  0.64645950  1  0.03277  0  0.087425  0.116509  0  1.017579  0
H  H64  1  0.02666754  0.05557003  0.86632621  1  0.087159  0  0.092903  0.130806  0  1.033004  0
H  H65  1  0.97331982  0.55556756  0.13368043  1  0.087116  0  0.092925  0.130824  0  1.032948  0
H  H66  1  0.97331320  0.05557205  0.36632283  1  0.087058  0  0.092925  0.13081  0  1.032947  0
H  H67  1  0.02667416  0.55557422  0.63367782  1  0.086527  0  0.092954  0.13088  0  1.033  0
H  H68  1  0.12909579  0.02843064  0.79745292  1  0.041299  0  0.089479  0.121635  0  1.010946  0
H  H69  1  0.87088918  0.52842675  0.20255392  1  0.041037  0  0.089438  0.12157  0  1.010858  0
H  H70  1  0.87088843  0.02843230  0.29744781  1  0.041087  0  0.089438  0.12158  0  1.010891  0
H  H71  1  0.12910182  0.52842942  0.70254938  1  0.041203  0  0.089483  0.121635  0  1.010914  0
H  H72  1  0.89992427  0.01600448  0.80991934  1  0.031303  0  0.09253  0.129253  0  0.993475  0
H  H73  1  0.10006346  0.51600166  0.19008530  1  0.031376  0  0.092493  0.129165  0  0.993522  0
H  H74  1  0.10005864  0.01600326  0.30991820  1  0.031465  0  0.092493  0.129158  0  0.993414  0
H  H75  1  0.89992644  0.51600674  0.69008046  1  0.031422  0  0.09252  0.129218  0  0.993424  0
H  H76  1  0.89855834  0.06204920  0.63789190  1  0.066497  0  0.092184  0.138098  0  1.037321  0
H  H77  1  0.10144086  0.56204251  0.36211146  1  0.066534  0  0.092164  0.138055  0  1.037333  0
H  H78  1  0.10143883  0.06204749  0.13788939  1  0.066502  0  0.092194  0.138156  0  1.037296  0
H  H79  1  0.89855376  0.56204422  0.86211030  1  0.066543  0  0.092172  0.138128  0  1.037257  0
H  H80  1  0.84695611  0.01773401  0.70534607  1  0.054873  0  0.088365  0.118742  0  1.01482  0
H  H81  1  0.15303689  0.51773119  0.29465902  1  0.054841  0  0.088338  0.118696  0  1.014984  0
H  H82  1  0.15304090  0.01773368  0.20534534  1  0.054874  0  0.088369  0.11877  0  1.014866  0
H  H83  1  0.84695872  0.51773393  0.79465469  1  0.054868  0  0.088366  0.118744  0  1.014888  0
H  H84  1  0.06905862  0.03436406  0.68698191  1  0.030421  0  0.084894  0.111525  0  1.023565  0
H  H85  1  0.93094216  0.53435674  0.31302351  1  0.030168  0  0.084907  0.111515  0  1.02359  0
H  H86  1  0.93093971  0.03436275  0.18698180  1  0.03041  0  0.084892  0.11153  0  1.023523  0
H  H87  1  0.06904917  0.53436431  0.81301764  1  0.030032  0  0.084936  0.111581  0  1.02352  0
H  H88  1  0.78511847  0.28973122  0.65396442  1  0.052013  0  0.094698  0.133176  0  1.024234  0
H  H89  1  0.21488922  0.78972066  0.34603350  1  0.052198  0  0.094692  0.133099  0  1.024247  0
H  H90  1  0.21488440  0.28973322  0.15396409  1  0.051948  0  0.094672  0.133087  0  1.024343  0
H  H91  1  0.78511138  0.78972589  0.84603567  1  0.051991  0  0.094654  0.133097  0  1.024288  0
H  H92  1  0.93113853  0.33061715  0.70472732  1  0.02417  0  0.090383  0.123569  0  0.992339  0
H  H93  1  0.06886746  0.83061250  0.29527304  1  0.024337  0  0.090378  0.123547  0  0.992318  0
H  H94  1  0.06886353  0.33061596  0.20472759  1  0.024203  0  0.090387  0.123585  0  0.992317  0
H  H95  1  0.93113055  0.83061947  0.79527507  1  0.023703  0  0.090362  0.123553  0  0.992372  0
H  H96  1  0.70895426  0.31776858  0.72629393  1  0.01935  0  0.086522  0.112436  0  1.018709  0
H  H97  1  0.29105052  0.81775662  0.27370423  1  0.018768  0  0.086577  0.112455  0  1.018693  0
H  H98  1  0.29104641  0.31776712  0.22629307  1  0.019332  0  0.086514  0.112458  0  1.018751  0
H  H99  1  0.70894250  0.81776820  0.77370647  1  0.019248  0  0.086596  0.112473  0  1.018659  0
H  H100  1  0.94709486  0.28174638  0.88055124  1  0.049884  0  0.096089  0.138885  0  1.010808  0
H  H101  1  0.05290496  0.78174036  0.11944674  1  0.050175  0  0.09611  0.138923  0  1.010878  0
H  H102  1  0.05291145  0.28174088  0.38055475  1  0.050302  0  0.096069  0.138847  0  1.010611  0
H  H103  1  0.94708970  0.78174924  0.61944461  1  0.04983  0  0.096098  0.138896  0  1.010629  0
H  H104  1  0.79202390  0.31628812  0.82966345  1  0.049637  0  0.088688  0.122217  0  1.024825  0
H  H105  1  0.20797693  0.81628147  0.17033334  1  0.049652  0  0.088723  0.12224  0  1.024838  0
H  H106  1  0.20798649  0.31628676  0.32966635  1  0.049567  0  0.088706  0.122224  0  1.024734  0
H  H107  1  0.79201434  0.81628572  0.67033734  1  0.049516  0  0.088668  0.122187  0  1.024786  0
H  H108  1  0.02036738  0.32561318  0.81503236  1  0.038497  0  0.088394  0.119311  0  1.003536  0
H  H109  1  0.97962940  0.82561026  0.18496207  1  0.038633  0  0.088243  0.119155  0  1.003476  0
H  H110  1  0.97964041  0.32561326  0.31503587  1  0.038583  0  0.088354  0.119276  0  1.003475  0
H  H111  1  0.02035636  0.82561982  0.68496361  1  0.038382  0  0.088336  0.119281  0  1.003481  0
H  H112  1  0.51736225  0.20837097  0.84655532  1  0.110628  0  0.121132  0.046534  0  1.023008  0
H  H113  1  0.48262370  0.70836219  0.15343956  1  0.110857  0  0.121188  0.046672  0  1.023137  0
H  H114  1  0.48264370  0.20835914  0.34655151  1  0.110894  0  0.121155  0.046602  0  1.023136  0
H  H115  1  0.51736738  0.70836823  0.65344658  1  0.110686  0  0.121166  0.046557  0  1.023172  0
H  H116  1  0.51410525  0.05870307  0.76373252  1  0.101128  0  0.110859  0.130134  0  0.99499  0
H  H117  1  0.48589266  0.55869744  0.23627179  1  0.101006  0  0.110802  0.130076  0  0.995042  0
H  H118  1  0.48591337  0.05869558  0.26372043  1  0.100974  0  0.110869  0.130143  0  0.995121  0
H  H119  1  0.51410042  0.55870011  0.73627284  1  0.10108  0  0.110858  0.130128  0  0.995077  0
H  H120  1  0.52428028  0.10192374  0.69212648  1  0.073622  0  0.102907  0.119438  0  1.03731  0
H  H121  1  0.47571459  0.60192137  0.30787520  1  0.073576  0  0.102888  0.119436  0  1.037294  0
H  H122  1  0.47573326  0.10192205  0.19211900  1  0.073224  0  0.10288  0.119393  0  1.037393  0
H  H123  1  0.52427484  0.60192307  0.80787578  1  0.073547  0  0.102911  0.119459  0  1.037225  0
H  H124  1  0.31439267  0.08281558  0.72533822  1  0.010769  0  0.099301  0.106545  0  1.024543  0
H  H125  1  0.68560105  0.58281371  0.27466269  1  0.010797  0  0.099305  0.106551  0  1.024519  0
H  H126  1  0.68562076  0.08281266  0.22532869  1  0.010583  0  0.099325  0.106531  0  1.024507  0
H  H127  1  0.31439016  0.58281760  0.77466440  1  0.010695  0  0.099304  0.106518  0  1.024565  0
H  H128  1  0.39600141  0.25471357  0.76826857  1  0.056455  0  0.107382  0.11871  0  1.005242  0
H  H129  1  0.60399205  0.75470543  0.23172732  1  0.056488  0  0.107461  0.118813  0  1.005265  0
H  H130  1  0.60400214  0.25470545  0.26827154  1  0.056532  0  0.107377  0.118734  0  1.005257  0
H  H131  1  0.39599397  0.75471018  0.73172665  1  0.056355  0  0.107378  0.118734  0  1.005271  0
H  H132  1  0.24469018  0.20489525  0.72700819  1  0.09324  0  0.100617  0.112837  0  1.027101  0
H  H133  1  0.75530507  0.70488897  0.27298855  1  0.093294  0  0.100636  0.112829  0  1.027156  0
H  H134  1  0.75532079  0.20489320  0.22700687  1  0.093196  0  0.100641  0.112895  0  1.02704  0
H  H135  1  0.24468106  0.70489342  0.77298803  1  0.093176  0  0.10065  0.112904  0  1.027002  0
H  H136  1  0.45923667  0.22151028  0.69526641  1  0.070923  0  0.101851  0.120246  0  1.012677  0
H  H137  1  0.54075842  0.72150496  0.30472882  1  0.07103  0  0.101826  0.120238  0  1.012814  0
H  H138  1  0.54076781  0.22150850  0.19526714  1  0.070941  0  0.101824  0.120293  0  1.012668  0
H  H139  1  0.45922728  0.72151011  0.80473177  1  0.071025  0  0.101861  0.120299  0  1.012691  0
H  H140  1  0.84127757  0.00996746  0.03948494  1  0.10025  0  0.1232  0.055697  0  1.001513  0
H  H141  1  0.15871815  0.50997294  0.96051331  1  0.100434  0  0.123169  0.055629  0  1.001499  0
H  H142  1  0.15871430  0.00996239  0.53948589  1  0.100226  0  0.123215  0.055681  0  1.001559  0
H  H143  1  0.84129068  0.50997030  0.46051420  1  0.100202  0  0.123206  0.055675  0  1.001455  0
H  H144  1  0.80905708  0.91953853  0.89870825  1  0.08689  0  0.109644  0.129554  0  0.997355  0
H  H145  1  0.19092825  0.41954008  0.10128958  1  0.086801  0  0.109682  0.129565  0  0.997409  0
H  H146  1  0.19092600  0.91953864  0.39870473  1  0.086776  0  0.109648  0.129531  0  0.997463  0
H  H147  1  0.80907520  0.41954190  0.60129357  1  0.086728  0  0.109654  0.129508  0  0.997383  0
H  H148  1  0.81984594  0.84503230  0.94125567  1  0.103302  0  0.105423  0.129633  0  1.023609  0
H  H149  1  0.18014404  0.34503856  0.05874274  1  0.103207  0  0.105428  0.129639  0  1.023681  0
H  H150  1  0.18013614  0.84503290  0.44124664  1  0.103218  0  0.105419  0.129709  0  1.023598  0
H  H151  1  0.81985913  0.34503748  0.55874993  1  0.103177  0  0.105445  0.129684  0  1.023605  0
H  H152  1  0.01869237  0.88318659  0.91543778  1  0.063118  0  0.100056  0.11042  0  1.015644  0
H  H153  1  0.98129858  0.38319114  0.08455757  1  0.063588  0  0.100039  0.110357  0  1.015634  0
H  H154  1  0.98129355  0.88318907  0.41543624  1  0.063012  0  0.100038  0.110351  0  1.01563  0
H  H155  1  0.01870666  0.38319155  0.58456371  1  0.063052  0  0.100013  0.110287  0  1.015664  0
H  H156  1  0.95928084  0.92717399  0.08289196  1  0.065428  0  0.107459  0.119695  0  0.994416  0
H  H157  1  0.04071368  0.42717361  0.91710582  1  0.065383  0  0.107437  0.119718  0  0.994493  0
H  H158  1  0.04072734  0.92716907  0.58289118  1  0.065548  0  0.107458  0.119752  0  0.994336  0
H  H159  1  0.95927644  0.42717564  0.41710936  1  0.065422  0  0.107442  0.119697  0  0.994463  0
H  H160  1  0.10204530  0.88175463  0.03422791  1  0.100712  0  0.102149  0.115084  0  1.026172  0
H  H161  1  0.89795625  0.38175806  0.96577298  1  0.100735  0  0.102121  0.115061  0  1.026239  0
H  H162  1  0.89795842  0.88174863  0.53422720  1  0.100344  0  0.102105  0.115031  0  1.026238  0
H  H163  1  0.10204974  0.38175635  0.46577184  1  0.100673  0  0.102132  0.115078  0  1.02616  0
H  H164  1  0.88695497  0.85097954  0.05225463  1  0.065443  0  0.103178  0.121572  0  1.01786  0
H  H165  1  0.11304157  0.35098603  0.94774787  1  0.065605  0  0.103099  0.121564  0  1.017877  0
H  H166  1  0.11305682  0.85097646  0.55225194  1  0.065277  0  0.1031  0.121511  0  1.017962  0
H  H167  1  0.88695295  0.35098479  0.44774918  1  0.065556  0  0.103133  0.121581  0  1.017839  0
C  C168  1  0.46695505  0.27279319  0.97890844  1  1.588949  0  0.211269  0.613695  0  4.220358  0
C  C169  1  0.53305148  0.77279367  0.02109697  1  1.589431  0  0.2113  0.613798  0  4.220275  0
C  C170  1  0.53305713  0.27279045  0.47891193  1  1.589066  0  0.211295  0.613834  0  4.220217  0
C  C171  1  0.46696527  0.77279110  0.52109531  1  1.588444  0  0.211346  0.613757  0  4.220583  0
C  C172  1  0.52250276  0.34233896  0.98160113  1  -0.034221  0  -0.020038  -0.138732  0  3.944561  0
C  C173  1  0.47748857  0.84233953  0.01840190  1  -0.034098  0  -0.020082  -0.13898  0  3.944591  0
C  C174  1  0.47750346  0.34233533  0.48160284  1  -0.034277  0  -0.020013  -0.13868  0  3.944484  0
C  C175  1  0.52251432  0.84233978  0.51840019  1  -0.034155  0  -0.020049  -0.138765  0  3.944636  0
C  C176  1  0.57974125  0.36730788  0.03845146  1  -0.01669  0  -0.013926  0.075648  0  3.942691  0
C  C177  1  0.42024456  0.86730917  0.96154954  1  -0.016643  0  -0.013885  0.075755  0  3.942837  0
C  C178  1  0.42028041  0.36730489  0.53845307  1  -0.016858  0  -0.013953  0.075594  0  3.942978  0
C  C179  1  0.57974641  0.86730638  0.46154931  1  -0.016442  0  -0.014001  0.075565  0  3.942762  0
C  C180  1  0.59260669  0.32407087  0.09417221  1  -0.139409  0  -0.242129  -0.407998  0  3.972204  0
C  C181  1  0.40738877  0.82406880  0.90583281  1  -0.14016  0  -0.242126  -0.407917  0  3.972317  0
C  C182  1  0.40740430  0.32406983  0.59417383  1  -0.13991  0  -0.24213  -0.408067  0  3.972431  0
C  C183  1  0.59261101  0.82407178  0.40582751  1  -0.140353  0  -0.242091  -0.407872  0  3.972312  0
C  C184  1  0.62485875  0.43288296  0.04196950  1  0.028592  0  -0.012498  0.084831  0  3.952178  0
C  C185  1  0.37513307  0.93288338  0.95803237  1  0.029144  0  -0.012528  0.084781  0  3.952295  0
C  C186  1  0.37516095  0.43288099  0.54197115  1  0.028676  0  -0.012538  0.084842  0  3.952184  0
C  C187  1  0.62485071  0.93288487  0.45803440  1  0.028393  0  -0.012537  0.084747  0  3.952287  0
C  C188  1  0.68353613  0.46402911  0.10099169  1  -0.071731  0  -0.24578  -0.417538  0  3.966464  0
C  C189  1  0.31645937  0.96402770  0.89900902  1  -0.072229  0  -0.24573  -0.417476  0  3.966353  0
C  C190  1  0.31646955  0.46402914  0.60099293  1  -0.071639  0  -0.245771  -0.41749  0  3.966444  0
C  C191  1  0.68353124  0.96403104  0.39900731  1  -0.071448  0  -0.245705  -0.417376  0  3.966121  0
C  C192  1  0.61511484  0.47075513  0.98837422  1  -0.005096  0  -0.021921  -0.149885  0  3.954863  0
C  C193  1  0.38488192  0.97075298  0.01162644  1  -0.005193  0  -0.02186  -0.149722  0  3.954676  0
C  C194  1  0.38490601  0.47075258  0.48837648  1  -0.004986  0  -0.021809  -0.149777  0  3.954679  0
C  C195  1  0.61511323  0.97075312  0.51162601  1  -0.004917  0  -0.021818  -0.149651  0  3.955175  0
C  C196  1  0.68811814  0.53792676  0.99041861  1  1.530127  0  0.21215  0.613949  0  4.165794  0
C  C197  1  0.31186674  0.03792364  0.00957805  1  1.530085  0  0.212117  0.613982  0  4.166061  0
C  C198  1  0.31188885  0.53792334  0.49041956  1  1.530293  0  0.212137  0.614027  0  4.166155  0
C  C199  1  0.68812645  0.03792176  0.50957525  1  1.52999  0  0.212064  0.613845  0  4.166124  0
C  C200  1  0.55116212  0.44638544  0.93255030  1  -0.00579  0  -0.016708  0.074683  0  3.971958  0
C  C201  1  0.44883487  0.94638466  0.06745192  1  -0.006125  0  -0.016771  0.074513  0  3.972076  0
C  C202  1  0.44884621  0.44638088  0.43254975  1  -0.006716  0  -0.016717  0.074525  0  3.972236  0
C  C203  1  0.55117062  0.94638392  0.56745340  1  -0.005937  0  -0.016777  0.074477  0  3.972141  0
C  C204  1  0.52889293  0.48932905  0.87753212  1  -0.046781  0  -0.239387  -0.396483  0  3.971432  0
C  C205  1  0.47110895  0.98933067  0.12246517  1  -0.046769  0  -0.239437  -0.396445  0  3.971378  0
C  C206  1  0.47112340  0.48932639  0.37753614  1  -0.04724  0  -0.239404  -0.396193  0  3.971226  0
C  C207  1  0.52889700  0.98933092  0.62246483  1  -0.046771  0  -0.239365  -0.396369  0  3.971435  0
C  C208  1  0.50323103  0.38096018  0.92914492  1  -0.018248  0  -0.018637  0.071157  0  3.96129  0
C  C209  1  0.49675994  0.88096028  0.07085782  1  -0.017966  0  -0.018664  0.07123  0  3.961317  0
C  C210  1  0.49678189  0.38095749  0.42914615  1  -0.017104  0  -0.018737  0.071046  0  3.961258  0
C  C211  1  0.50324480  0.88095960  0.57085566  1  -0.018134  0  -0.018583  0.071299  0  3.961095  0
C  C212  1  0.42976878  0.35407523  0.87001191  1  -0.097016  0  -0.239593  -0.401921  0  3.982873  0
C  C213  1  0.57022641  0.85407859  0.12999103  1  -0.096802  0  -0.239477  -0.401673  0  3.982811  0
C  C214  1  0.57023431  0.35407197  0.37000801  1  -0.097005  0  -0.239517  -0.401669  0  3.982854  0
C  C215  1  0.42977014  0.85407752  0.62999217  1  -0.096994  0  -0.239594  -0.401924  0  3.982782  0
C  C216  1  0.04228118  0.17035858  0.88457069  1  1.536743  0  0.209826  0.601417  0  4.188295  0
C  C217  1  0.95771835  0.67035435  0.11543230  1  1.536489  0  0.209861  0.601336  0  4.188348  0
C  C218  1  0.95770628  0.17035724  0.38456503  1  1.536807  0  0.20985  0.601347  0  4.188392  0
C  C219  1  0.04229193  0.67035425  0.61543152  1  1.536952  0  0.209763  0.601237  0  4.188452  0
C  C220  1  0.96683302  0.17129626  0.82068975  1  -0.059543  0  -0.021326  -0.149775  0  3.963607  0
C  C221  1  0.03315989  0.67129217  0.17931369  1  -0.059414  0  -0.021259  -0.149739  0  3.963636  0
C  C222  1  0.03316424  0.17129801  0.32068868  1  -0.059295  0  -0.021209  -0.149653  0  3.963537  0
C  C223  1  0.96684454  0.67129765  0.67931154  1  -0.059477  0  -0.02124  -0.149658  0  3.963704  0
C  C224  1  0.96684666  0.11377780  0.78666182  1  0.019962  0  -0.011994  0.08768  0  3.954791  0
C  C225  1  0.03314149  0.61377631  0.21334482  1  0.019838  0  -0.012079  0.087591  0  3.954499  0
C  C226  1  0.03314348  0.11377762  0.28665707  1  0.020064  0  -0.01203  0.087593  0  3.954618  0
C  C227  1  0.96684995  0.61377889  0.71334175  1  0.019996  0  -0.011995  0.087598  0  3.954667  0
C  C228  1  0.00876245  0.05049296  0.81667304  1  -0.106584  0  -0.239068  -0.399263  0  3.960619  0
C  C229  1  0.99122099  0.55048956  0.18333225  1  -0.106252  0  -0.238971  -0.39904  0  3.960216  0
C  C230  1  0.99121876  0.05049495  0.31666919  1  -0.10643  0  -0.238971  -0.399021  0  3.960215  0
C  C231  1  0.00877526  0.55049624  0.68333013  1  -0.105927  0  -0.239109  -0.399266  0  3.960502  0
C  C232  1  0.92614325  0.11591423  0.72361909  1  0.067007  0  -0.015584  0.074506  0  3.953012  0
C  C233  1  0.07385281  0.61590926  0.27638662  1  0.067209  0  -0.015709  0.074262  0  3.953124  0
C  C234  1  0.07386327  0.11591400  0.22361706  1  0.067059  0  -0.015646  0.074464  0  3.952986  0
C  C235  1  0.92613411  0.61591382  0.77638451  1  0.067177  0  -0.015611  0.07448  0  3.952893  0
C  C236  1  0.93465719  0.05495357  0.68617723  1  -0.107575  0  -0.241802  -0.401369  0  3.964611  0
C  C237  1  0.06534208  0.55494396  0.31382803  1  -0.107712  0  -0.241765  -0.401178  0  3.964489  0
C  C238  1  0.06534757  0.05495191  0.18617383  1  -0.107684  0  -0.241823  -0.401464  0  3.964558  0
C  C239  1  0.93465302  0.55495044  0.81382591  1  -0.107344  0  -0.241845  -0.401436  0  3.964479  0
C  C240  1  0.87964163  0.17530174  0.69694968  1  -0.083204  0  -0.0221  -0.150407  0  3.963397  0
C  C241  1  0.12034859  0.67529504  0.30305051  1  -0.083344  0  -0.022148  -0.15041  0  3.963595  0
C  C242  1  0.12036458  0.17530241  0.19695174  1  -0.082725  0  -0.022145  -0.150462  0  3.9635  0
C  C243  1  0.87963358  0.67530014  0.80305121  1  -0.083155  0  -0.022102  -0.150252  0  3.963484  0
C  C244  1  0.83351215  0.17617742  0.62964884  1  1.538276  0  0.204072  0.597399  0  4.210862  0
C  C245  1  0.16647409  0.67617538  0.37035364  1  1.537946  0  0.204169  0.59745  0  4.210617  0
C  C246  1  0.16647345  0.17617948  0.12964764  1  1.537411  0  0.204123  0.597551  0  4.210449  0
C  C247  1  0.83350883  0.67618151  0.87035209  1  1.538339  0  0.203959  0.597137  0  4.210901  0
C  C248  1  0.87276137  0.23239192  0.73158085  1  -0.021752  0  -0.018739  0.069465  0  3.968243  0
C  C249  1  0.12723626  0.73238454  0.26841843  1  -0.021948  0  -0.018723  0.069475  0  3.968213  0
C  C250  1  0.12724798  0.23239451  0.23158107  1  -0.021652  0  -0.018736  0.069411  0  3.968293  0
C  C251  1  0.87275759  0.73239062  0.76841960  1  -0.021993  0  -0.018729  0.069397  0  3.968226  0
C  C252  1  0.82196199  0.29550732  0.70236741  1  -0.058569  0  -0.238256  -0.397105  0  3.975169  0
C  C253  1  0.17804565  0.79550108  0.29763139  1  -0.058102  0  -0.238298  -0.397001  0  3.97493  0
C  C254  1  0.17804571  0.29550937  0.20236573  1  -0.05865  0  -0.238208  -0.39699  0  3.975151  0
C  C255  1  0.82195531  0.79550674  0.79763122  1  -0.057953  0  -0.238261  -0.397033  0  3.975178  0
C  C256  1  0.91882738  0.23050552  0.79434403  1  0.011893  0  -0.016451  0.072622  0  3.966906  0
C  C257  1  0.08116763  0.73049970  0.20565665  1  0.011943  0  -0.016377  0.072767  0  3.966946  0
C  C258  1  0.08117749  0.23050577  0.29434245  1  0.011466  0  -0.016476  0.072562  0  3.967174  0
C  C259  1  0.91882942  0.73050427  0.70565593  1  0.012066  0  -0.016437  0.072651  0  3.966951  0
C  C260  1  0.92016428  0.29138475  0.83194359  1  -0.087571  0  -0.238792  -0.3921  0  3.956163  0
C  C261  1  0.07983678  0.79137732  0.16805432  1  -0.087818  0  -0.238727  -0.392045  0  3.956199  0
C  C262  1  0.07984368  0.29138162  0.33194155  1  -0.087922  0  -0.238757  -0.392004  0  3.955982  0
C  C263  1  0.92016267  0.79138575  0.66805728  1  -0.087271  0  -0.238764  -0.392069  0  3.955939  0
C  C264  1  0.51906764  0.15986285  0.82629347  1  1.390789  0  0.175672  0.317069  0  4.113175  0
C  C265  1  0.48094124  0.65986258  0.17370637  1  1.389605  0  0.175443  0.316643  0  4.113122  0
C  C266  1  0.48094819  0.15985922  0.32629058  1  1.389615  0  0.175517  0.317048  0  4.113094  0
C  C267  1  0.51905672  0.65986476  0.67370650  1  1.390735  0  0.175543  0.316929  0  4.113167  0
C  C268  1  0.45216674  0.09608994  0.73553164  1  0.276689  0  -0.135368  -0.270018  0  3.880749  0
C  C269  1  0.54782553  0.59608688  0.26446778  1  0.276926  0  -0.135283  -0.270008  0  3.880762  0
C  C270  1  0.54784516  0.09608526  0.23552593  1  0.278762  0  -0.135336  -0.269931  0  3.880828  0
C  C271  1  0.45216167  0.59608867  0.76446890  1  0.277096  0  -0.135385  -0.270078  0  3.880829  0
C  C272  1  0.38523684  0.21267461  0.73799110  1  0.244959  0  -0.129972  -0.267896  0  3.891611  0
C  C273  1  0.61475833  0.71266764  0.26200512  1  0.244938  0  -0.130122  -0.268135  0  3.892133  0
C  C274  1  0.61476602  0.21266985  0.23798946  1  0.244904  0  -0.129986  -0.268079  0  3.89169  0
C  C275  1  0.38523179  0.71267241  0.76200584  1  0.245083  0  -0.130028  -0.268152  0  3.891823  0
C  C276  1  0.83421985  0.98867299  0.99325875  1  1.395822  0  0.173354  0.306587  0  4.110682  0
C  C277  1  0.16578071  0.48867826  0.00674039  1  1.395901  0  0.173346  0.30671  0  4.111124  0
C  C278  1  0.16577105  0.98867361  0.49326031  1  1.396117  0  0.173255  0.306623  0  4.110878  0
C  C279  1  0.83422951  0.48867765  0.50674389  1  1.396266  0  0.173305  0.306657  0  4.110871  0
C  C280  1  0.88383058  0.89165151  0.93260221  1  0.2181  0  -0.135125  -0.274869  0  3.87818  0
C  C281  1  0.11616162  0.39165488  0.06739630  1  0.217918  0  -0.135181  -0.274762  0  3.87824  0
C  C282  1  0.11615909  0.89165122  0.43259554  1  0.218234  0  -0.135183  -0.274887  0  3.878265  0
C  C283  1  0.88384502  0.39165420  0.56740021  1  0.218414  0  -0.135186  -0.274705  0  3.878111  0
C  C284  1  0.96336330  0.89489847  0.04302000  1  0.229499  0  -0.131406  -0.275117  0  3.901929  0
C  C285  1  0.03663681  0.39490305  0.95698079  1  0.229377  0  -0.131362  -0.275154  0  3.902103  0
C  C286  1  0.03663891  0.89489355  0.54301922  1  0.229815  0  -0.131335  -0.275119  0  3.902104  0
C  C287  1  0.96336517  0.39490026  0.45698156  1  0.229458  0  -0.131348  -0.275114  0  3.902035  0
N  N288  1  0.88971396  0.92775696  0.98986617  1  -1.200488  0  -0.281269  0.034071  0  3.721104  0
N  N289  1  0.11027659  0.42776084  0.01013252  1  -1.200486  0  -0.2812  0.033954  0  3.721145  0
N  N290  1  0.11028151  0.92775428  0.48986502  1  -1.20026  0  -0.281141  0.034142  0  3.720988  0
N  N291  1  0.88972491  0.42775919  0.51013505  1  -1.200404  0  -0.281183  0.033986  0  3.721082  0
N  N292  1  0.45676303  0.15650380  0.76904551  1  -1.210978  0  -0.283185  0.030744  0  3.728495  0
N  N293  1  0.54323530  0.65649766  0.23095115  1  -1.211303  0  -0.283028  0.031111  0  3.728509  0
N  N294  1  0.54324803  0.15649672  0.26904118  1  -1.212503  0  -0.283141  0.030773  0  3.728507  0
N  N295  1  0.45675824  0.65650185  0.73095548  1  -1.211188  0  -0.283119  0.031009  0  3.728512  0
O  O296  1  0.57566773  0.23140208  0.95910033  1  -1.187338  0  -0.330558  -0.590265  0  2.251224  0
O  O297  1  0.42435107  0.73140108  0.04091092  1  -1.187442  0  -0.330601  -0.590392  0  2.251167  0
O  O298  1  0.42434234  0.23140286  0.45909933  1  -1.187296  0  -0.330547  -0.59033  0  2.251075  0
O  O299  1  0.57568572  0.73140705  0.54090962  1  -1.18656  0  -0.330613  -0.590419  0  2.251481  0
O  O300  1  0.71937890  0.13054974  0.06401848  1  -1.225026  0  -0.575369  -0.760868  0  2.00056  0
O  O301  1  0.28062100  0.63055624  0.93598252  1  -1.225482  0  -0.575327  -0.760712  0  2.000801  0
O  O302  1  0.28062885  0.13055560  0.56401562  1  -1.225281  0  -0.575407  -0.760823  0  2.000732  0
O  O303  1  0.71937237  0.63055424  0.43598215  1  -1.225284  0  -0.575395  -0.760752  0  2.000781  0
O  O304  1  0.30956514  0.26307701  0.99805651  1  -1.1563  0  -0.324455  -0.556316  0  2.305826  0
O  O305  1  0.69043089  0.76307842  0.00194575  1  -1.156631  0  -0.324412  -0.556222  0  2.305894  0
O  O306  1  0.69043903  0.26307457  0.49806353  1  -1.156496  0  -0.324479  -0.556366  0  2.305979  0
O  O307  1  0.30958478  0.76307220  0.50194241  1  -1.156373  0  -0.32439  -0.556187  0  2.305957  0
O  O308  1  0.84377915  0.54748973  0.97182734  1  -1.148975  0  -0.305792  -0.537461  0  2.168428  0
O  O309  1  0.15620960  0.04748809  0.02817200  1  -1.149126  0  -0.305858  -0.537584  0  2.168632  0
O  O310  1  0.15623055  0.54748603  0.47183075  1  -1.148881  0  -0.305751  -0.537497  0  2.168707  0
O  O311  1  0.84377937  0.04748795  0.52817595  1  -1.148603  0  -0.305846  -0.537557  0  2.168416  0
O  O312  1  0.59452918  0.58483636  0.01173910  1  -1.169659  0  -0.334945  -0.597047  0  2.411261  0
O  O313  1  0.40545923  0.08483443  0.98826271  1  -1.169602  0  -0.334852  -0.596928  0  2.411385  0
O  O314  1  0.40548011  0.58483146  0.51173934  1  -1.169996  0  -0.334998  -0.597069  0  2.411315  0
O  O315  1  0.59454534  0.08482922  0.48824637  1  -1.17001  0  -0.334823  -0.59687  0  2.411426  0
O  O316  1  0.57736851  0.11211952  0.85554134  1  -1.152374  0  -0.31079  -0.477124  0  2.345418  0
O  O317  1  0.42261171  0.61211524  0.14446118  1  -1.151388  0  -0.310669  -0.476995  0  2.345055  0
O  O318  1  0.42264487  0.11211307  0.35553759  1  -1.151325  0  -0.310721  -0.477224  0  2.345219  0
O  O319  1  0.57736710  0.61212024  0.64445941  1  -1.152445  0  -0.310722  -0.477093  0  2.345244  0
O  O320  1  0.77812354  0.02009799  0.94777550  1  -1.162422  0  -0.312984  -0.482725  0  2.349668  0
O  O321  1  0.22184563  0.52010390  0.05221854  1  -1.1629  0  -0.312945  -0.482662  0  2.35014  0
O  O322  1  0.22184361  0.02009950  0.44777700  1  -1.162735  0  -0.312893  -0.482707  0  2.349899  0
O  O323  1  0.77816259  0.52010431  0.55222393  1  -1.162982  0  -0.312934  -0.482699  0  2.349968  0
O  O324  1  0.20703499  0.17667388  0.88950919  1  -1.112564  0  -0.300492  -0.515689  0  2.201114  0
O  O325  1  0.79296712  0.67666220  0.11049145  1  -1.11246  0  -0.300542  -0.51567  0  2.201247  0
O  O326  1  0.79295766  0.17667901  0.38950415  1  -1.112924  0  -0.300493  -0.515638  0  2.201313  0
O  O327  1  0.20704049  0.67667152  0.61049327  1  -1.112846  0  -0.300497  -0.515601  0  2.201197  0
O  O328  1  0.67446625  0.16884708  0.61327122  1  -1.179088  0  -0.320791  -0.568577  0  2.154499  0
O  O329  1  0.32550684  0.66884423  0.38673362  1  -1.178799  0  -0.320768  -0.568504  0  2.154731  0
O  O330  1  0.32551030  0.16885088  0.11326296  1  -1.178334  0  -0.320786  -0.568622  0  2.154596  0
O  O331  1  0.67446940  0.66885200  0.88673451  1  -1.179129  0  -0.32076  -0.568513  0  2.154607  0
O  O332  1  0.96164991  0.18329265  0.59101718  1  -1.160516  0  -0.326727  -0.569065  0  2.219788  0
O  O333  1  0.03831907  0.68330298  0.40897835  1  -1.160324  0  -0.326793  -0.569167  0  2.219406  0
O  O334  1  0.03832537  0.18330403  0.09102024  1  -1.160507  0  -0.326757  -0.569166  0  2.219303  0
O  O335  1  0.96165817  0.68330124  0.90897850  1  -1.160477  0  -0.326659  -0.568985  0  2.219623  0
O  O336  1  0.94468241  0.16367865  0.93308824  1  -1.16875  0  -0.333477  -0.594539  0  2.348346  0
O  O337  1  0.05532776  0.66368560  0.06691434  1  -1.168754  0  -0.333452  -0.594512  0  2.348093  0
O  O338  1  0.05529941  0.16367700  0.43308347  1  -1.168682  0  -0.333525  -0.594523  0  2.348029  0
O  O339  1  0.94469224  0.66367617  0.56691221  1  -1.168895  0  -0.333436  -0.594487  0  2.348219  0
