# generated using pymatgen
data_MnH15C22N2O5
_symmetry_space_group_name_H-M   'P 1'
_cell_length_a   9.09583980
_cell_length_b   9.91861881
_cell_length_c   12.50848918
_cell_angle_alpha   95.52028087
_cell_angle_beta   106.76143763
_cell_angle_gamma   109.94467011
_symmetry_Int_Tables_number   1
_chemical_formula_structural   MnH15C22N2O5
_chemical_formula_sum   'Mn2 H30 C44 N4 O10'
_cell_volume   991.72278647
_cell_formula_units_Z   2
loop_
 _symmetry_equiv_pos_site_id
 _symmetry_equiv_pos_as_xyz
  1  'x, y, z'
loop_
 _atom_site_type_symbol
 _atom_site_label
 _atom_site_symmetry_multiplicity
 _atom_site_fract_x
 _atom_site_fract_y
 _atom_site_fract_z
 _atom_site_occupancy
 _atom_site_hle17_ddec_charge
 _atom_site_hle17_ddec_spin_density
 _atom_site_hle17_ddec_sum_bond_order
 _atom_site_hle17_magmom
 _atom_site_hse06_10hf_ddec_charge
 _atom_site_hse06_10hf_ddec_spin_density
 _atom_site_hse06_10hf_ddec_sum_bond_order
 _atom_site_hse06_10hf_magmom
 _atom_site_hse06_ddec_charge
 _atom_site_hse06_ddec_spin_density
 _atom_site_hse06_ddec_sum_bond_order
 _atom_site_hse06_magmom
 _atom_site_pbe_cm5_charge
 _atom_site_pbe_ddec_charge
 _atom_site_pbe_ddec_spin_density
 _atom_site_pbe_ddec_sum_bond_order
 _atom_site_pbe_magmom
Mn  Mn0  1  0.54811237  0.94093304  0.61119018  1  1.147927  4.794134  1.824493  4.642  0.985811  4.720759  2.348471  4.49  1.053129  4.767791  2.265115  4.563  0.615309  0.933409  4.670325  2.410708  4.417
Mn  Mn1  1  0.45188781  0.05906918  0.38881067  1  1.147903  4.794126  1.824584  4.642  0.985773  4.720742  2.348584  4.49  1.053094  4.767778  2.265224  4.563  0.615293  0.933384  4.670303  2.410808  4.417
H  H2  1  0.19683673  0.29924953  0.52332738  1  0.099006  -0.000238  0.968773  0.0  0.10793  -0.000158  1.032467  0.0  0.110769  -0.000188  1.031113  0.0  0.103271  0.105653  -0.000109  1.033764  0.0
H  H3  1  0.80315277  0.70074383  0.47666815  1  0.099013  -0.000246  0.968848  0.0  0.107906  -0.000158  1.032586  0.0  0.110742  -0.000188  1.031239  0.0  0.103279  0.105629  -0.000109  1.03388  0.0
H  H4  1  0.06970621  0.41873263  0.63444771  1  0.095477  1.9e-05  0.947841  0.0  0.106351  1.1e-05  1.005013  0.0  0.10914  -5e-06  1.004434  0.0  0.104127  0.104288  4.2e-05  1.005617  0.0
H  H5  1  0.93028632  0.58126514  0.36554880  1  0.095485  2.2e-05  0.947888  0.0  0.106367  1e-05  1.005041  0.0  0.109149  -5e-06  1.004469  0.0  0.104115  0.104304  4.2e-05  1.005643  0.0
H  H6  1  0.00512615  0.07411465  0.82198569  1  0.082807  6.9e-05  0.973721  0.0  0.090516  0.000124  1.044082  0.0  0.093571  9e-05  1.042039  0.0  0.101319  0.088171  0.000165  1.045877  0.0
H  H7  1  0.99487241  0.92588646  0.17801313  1  0.082835  6.5e-05  0.973606  0.0  0.090537  0.000124  1.043971  0.0  0.093592  9e-05  1.041928  0.0  0.101319  0.088193  0.000165  1.045765  0.0
H  H8  1  0.14090588  0.95808875  0.71290802  1  0.10084  -0.000269  0.947194  0.0  0.110256  -0.000175  1.008522  0.0  0.113672  -0.000222  1.006498  0.0  0.10554  0.107515  -0.00012  1.010457  0.0
H  H9  1  0.85908990  0.04191123  0.28709094  1  0.100823  -0.000262  0.947089  0.0  0.11024  -0.000175  1.008426  0.0  0.113658  -0.000222  1.006401  0.0  0.105528  0.107504  -0.00012  1.010359  0.0
H  H10  1  0.81374294  0.78466324  0.69441699  1  0.100649  -0.000257  0.970053  0.0  0.107322  -8.8e-05  1.038268  0.0  0.110445  -0.000182  1.036907  0.0  0.103836  0.105063  5.4e-05  1.039364  0.0
H  H11  1  0.18626510  0.21534125  0.30558646  1  0.100716  -0.000258  0.97001  0.0  0.107378  -8.8e-05  1.038229  0.0  0.110507  -0.000182  1.036864  0.0  0.103858  0.10512  5.4e-05  1.039329  0.0
H  H12  1  0.09410086  0.59967390  0.93324536  1  0.106763  4.3e-05  0.958106  0.0  0.114042  3.4e-05  1.023728  0.0  0.117678  2.7e-05  1.021602  0.0  0.103982  0.111469  4e-05  1.025321  0.0
H  H13  1  0.90589653  0.40032171  0.06675677  1  0.106708  4.2e-05  0.958146  0.0  0.114022  3.4e-05  1.023731  0.0  0.117659  2.8e-05  1.021605  0.0  0.103979  0.111449  4e-05  1.025324  0.0
H  H14  1  0.65522239  0.53733013  0.56518408  1  0.101467  -0.000236  0.947398  0.0  0.111282  -0.000164  1.009083  0.0  0.115181  -0.000198  1.005946  0.0  0.105683  0.108439  -0.000124  1.011488  0.0
H  H15  1  0.34478379  0.46267545  0.43481507  1  0.101449  -0.000238  0.947298  0.0  0.11128  -0.000164  1.008979  0.0  0.115179  -0.000198  1.005842  0.0  0.105672  0.108435  -0.000124  1.011389  0.0
H  H16  1  0.02956116  0.81370648  0.88285532  1  0.086573  -9.6e-05  0.947982  0.0  0.101407  -6.9e-05  1.003138  0.0  0.103772  -6.8e-05  1.0026  0.0  0.101191  0.099831  -5.8e-05  1.003582  0.0
H  H17  1  0.97043902  0.18629025  0.11715068  1  0.086589  -9.4e-05  0.947911  0.0  0.101408  -6.9e-05  1.003113  0.0  0.10377  -6.8e-05  1.002577  0.0  0.101171  0.09984  -5.8e-05  1.003535  0.0
H  H18  1  0.43015018  0.65222188  0.72334600  1  0.106733  -0.000526  0.920689  0.0  0.116322  -1.6e-05  0.982031  0.0  0.119306  -9.9e-05  0.97826  0.0  0.145646  0.114013  8.5e-05  0.985029  0.0
H  H19  1  0.56985320  0.34777712  0.27665125  1  0.106683  -0.000523  0.920714  0.0  0.116284  -1.6e-05  0.982053  0.0  0.119267  -9.9e-05  0.978283  0.0  0.145618  0.113975  8.5e-05  0.985051  0.0
H  H20  1  0.79092599  0.07956195  0.88615405  1  0.116929  2.9e-05  0.999807  0.0  0.12491  0.000368  1.059769  0.0  0.127642  0.000267  1.058485  0.0  0.121405  0.123033  0.000473  1.060755  0.0
H  H21  1  0.20907303  0.92044026  0.11384575  1  0.116916  2.8e-05  0.999825  0.0  0.12489  0.000368  1.05981  0.0  0.127622  0.000267  1.058526  0.0  0.121395  0.123013  0.000473  1.060796  0.0
H  H22  1  0.76992501  0.90623490  0.04861201  1  0.110962  0.00025  0.983235  0.0  0.120984  0.000275  1.046222  0.0  0.123195  0.000211  1.045462  0.0  0.123122  0.119397  0.00035  1.046755  0.0
H  H23  1  0.23007354  0.09376621  0.95138681  1  0.11102  0.000248  0.983161  0.0  0.121008  0.000275  1.046186  0.0  0.123219  0.000211  1.045425  0.0  0.123136  0.11942  0.00035  1.046724  0.0
H  H24  1  0.62132503  0.49960855  0.84628437  1  0.116221  -6e-06  0.949697  0.0  0.125278  -2e-06  1.013109  0.0  0.1271  -7e-06  1.014214  0.0  0.109421  0.123777  8e-06  1.012614  0.0
H  H25  1  0.37867813  0.50039262  0.15371461  1  0.116153  -8e-06  0.949594  0.0  0.125205  -2e-06  1.013027  0.0  0.127025  -7e-06  1.014128  0.0  0.109406  0.123704  8e-06  1.012532  0.0
H  H26  1  0.55249678  0.83856551  0.15213031  1  0.118055  -0.000148  0.951174  0.0  0.138435  -0.000146  1.01456  0.0  0.139274  -0.000171  1.015307  0.0  0.09438  0.137845  -0.000103  1.013874  0.0
H  H27  1  0.44750593  0.16143456  0.84787008  1  0.118065  -0.000146  0.951157  0.0  0.138441  -0.000146  1.014536  0.0  0.139281  -0.00017  1.015281  0.0  0.094391  0.137853  -0.000103  1.013847  0.0
H  H28  1  0.34036677  0.72496328  0.11707917  1  0.125639  -0.000152  0.952533  0.0  0.144418  -0.000178  1.015425  0.0  0.146006  -0.000185  1.015023  0.0  0.096632  0.143244  -0.000163  1.015667  0.0
H  H29  1  0.65963708  0.27503679  0.88292146  1  0.125599  -0.000144  0.952539  0.0  0.144373  -0.000178  1.015431  0.0  0.145961  -0.000185  1.01503  0.0  0.096609  0.1432  -0.000163  1.015671  0.0
H  H30  1  0.40999452  0.81595611  0.01444300  1  0.10658  -3.9e-05  0.952675  0.0  0.125069  -4.7e-05  1.015588  0.0  0.12612  -5.2e-05  1.016239  0.0  0.090422  0.124296  -4e-05  1.015124  0.0
H  H31  1  0.59000728  0.18404721  0.98555906  1  0.106585  -3.7e-05  0.95269  0.0  0.125087  -4.7e-05  1.015583  0.0  0.126139  -5.2e-05  1.016234  0.0  0.090443  0.124313  -4e-05  1.015122  0.0
C  C32  1  0.27003742  0.05934549  0.55516923  1  0.666184  0.010946  3.885364  0.01  0.614585  0.018431  4.175945  0.016  0.651262  0.014216  4.169521  0.013  0.224936  0.588877  0.02318  4.179124  0.02
C  C33  1  0.72995927  0.94065121  0.44483205  1  0.666029  0.010935  3.885469  0.01  0.614471  0.018432  4.176006  0.016  0.651148  0.014213  4.169587  0.013  0.224903  0.588762  0.023179  4.179184  0.02
C  C34  1  0.17961530  0.12387531  0.61369114  1  -0.040655  0.00026  3.720923  0.001  -0.020226  0.000479  3.9539  0.001  -0.026433  -0.00038  3.974567  0.0  -0.006769  -0.016936  0.001673  3.940925  0.002
C  C35  1  0.82038070  0.87612249  0.38630849  1  -0.040657  0.000296  3.720977  0.001  -0.020232  0.00048  3.953936  0.001  -0.026441  -0.00038  3.974606  0.0  -0.006774  -0.016941  0.001673  3.940961  0.002
C  C36  1  0.15637321  0.25165137  0.58984120  1  -0.064617  0.001766  3.715954  0.002  -0.084918  0.002411  3.958652  0.002  -0.085321  0.001936  3.978645  0.002  -0.079468  -0.084632  0.003157  3.946032  0.003
C  C37  1  0.84361978  0.74834201  0.41015904  1  -0.06463  0.001764  3.715944  0.002  -0.084911  0.002411  3.958672  0.002  -0.085313  0.001938  3.978665  0.002  -0.079537  -0.084623  0.003157  3.946049  0.003
C  C38  1  0.08481169  0.31770426  0.65191623  1  -0.078217  -0.001214  3.726656  -0.001  -0.100249  -0.000533  3.974154  0.0  -0.102289  -0.001027  3.995656  -0.001  -0.081769  -0.099401  0.000128  3.960525  0.0
C  C39  1  0.91517965  0.68228803  0.34807800  1  -0.078283  -0.001211  3.726419  -0.001  -0.100304  -0.000534  3.973888  0.0  -0.102337  -0.001028  3.99539  -0.001  -0.081723  -0.099454  0.000128  3.960257  0.0
C  C40  1  0.03328617  0.25518741  0.73752823  1  -0.02378  0.001016  3.759547  0.001  -0.008243  0.001544  3.994242  0.001  -0.013426  0.001184  4.01791  0.001  -0.015094  -0.005163  0.002401  3.979229  0.002
C  C41  1  0.96671029  0.74481149  0.26246838  1  -0.023704  0.000997  3.759323  0.001  -0.008134  0.001545  3.994006  0.001  -0.013314  0.001183  4.01768  0.001  -0.01507  -0.005068  0.0024  3.979016  0.002
C  C42  1  0.05152352  0.12401270  0.75815851  1  -0.068352  -0.001449  3.723085  -0.001  -0.093656  -0.000552  3.980587  0.0  -0.094509  -0.000978  3.999918  -0.001  -0.079766  -0.092987  -0.000107  3.967695  0.0
C  C43  1  0.94847086  0.87598397  0.24184229  1  -0.068364  -0.001388  3.723005  -0.001  -0.093671  -0.000552  3.980516  0.0  -0.094519  -0.000978  3.999845  -0.001  -0.079711  -0.093002  -0.000106  3.967631  0.0
C  C44  1  0.12486206  0.05939803  0.69754926  1  -0.070843  0.001518  3.73145  0.002  -0.09424  0.001975  3.983417  0.002  -0.094607  0.001567  4.002438  0.002  -0.080702  -0.093832  0.002671  3.971045  0.002
C  C45  1  0.87513417  0.94059757  0.30245264  1  -0.070806  0.00147  3.731465  0.002  -0.094203  0.001974  3.983434  0.002  -0.094565  0.001567  4.002446  0.002  -0.080703  -0.093798  0.002671  3.971064  0.002
C  C46  1  0.96410243  0.32552464  0.80989991  1  0.411219  -0.000327  3.717065  0.0  0.386987  0.000185  3.984618  0.0  0.410954  -0.000445  3.983239  0.0  0.168856  0.369997  0.001495  3.986112  0.001
C  C47  1  0.03589750  0.67447430  0.19009902  1  0.411273  -0.000347  3.717014  0.0  0.386971  0.000185  3.984672  0.0  0.410911  -0.000446  3.983332  0.0  0.168856  0.369995  0.001495  3.986138  0.001
C  C48  1  0.91590591  0.44973143  0.77652043  1  -0.042887  0.001191  3.75578  0.001  -0.032972  0.001694  3.989913  0.001  -0.036714  0.001374  4.011531  0.001  -0.012983  -0.030142  0.002121  3.975227  0.002
C  C49  1  0.08409611  0.55026971  0.22348071  1  -0.042932  0.001199  3.755796  0.001  -0.033007  0.001693  3.989963  0.001  -0.036739  0.001377  4.011584  0.001  -0.012985  -0.030179  0.002122  3.975278  0.002
C  C50  1  0.68607655  0.28262413  0.59715849  1  0.666282  0.006692  3.890782  0.006  0.614729  0.012593  4.182299  0.011  0.650706  0.009746  4.176313  0.009  0.222301  0.589814  0.015375  4.184758  0.013
C  C51  1  0.31391902  0.71737804  0.40284059  1  0.66628  0.006695  3.890739  0.006  0.614737  0.012595  4.182248  0.011  0.650714  0.009744  4.176262  0.009  0.222352  0.589822  0.015375  4.18471  0.013
C  C52  1  0.84203284  0.69139108  0.71875408  1  -0.073584  -0.001083  3.761229  -0.001  -0.090148  -0.000424  4.018986  0.0  -0.091967  -0.000739  4.039661  0.0  -0.089762  -0.088648  -0.000104  4.005019  0.0
C  C53  1  0.15797866  0.30861346  0.28124929  1  -0.073577  -0.001046  3.76108  -0.001  -0.090137  -0.000424  4.018839  0.0  -0.091961  -0.000739  4.039519  0.0  -0.089739  -0.088636  -0.000104  4.004873  0.0
C  C54  1  0.00074612  0.58738373  0.85152978  1  -0.080936  -0.000995  3.716859  -0.001  -0.103835  -0.000452  3.967926  0.0  -0.104912  -0.000701  3.986598  0.0  -0.083596  -0.103094  -0.000135  3.955033  0.0
C  C55  1  0.99925428  0.41261630  0.14847174  1  -0.080814  -0.000982  3.71681  -0.001  -0.103738  -0.000452  3.967871  0.0  -0.104813  -0.000703  3.986539  0.0  -0.083587  -0.102998  -0.000136  3.954982  0.0
C  C56  1  0.78979783  0.43195666  0.67302880  1  -0.089152  0.000722  3.750122  0.001  -0.072615  0.001035  3.982231  0.001  -0.078783  0.000338  4.003433  0.001  -0.014116  -0.06865  0.001754  3.968223  0.002
C  C57  1  0.21020627  0.56804672  0.32696895  1  -0.089178  0.000725  3.750185  0.001  -0.07263  0.001034  3.982273  0.001  -0.078799  0.000337  4.003472  0.001  -0.014109  -0.068666  0.001754  3.968269  0.002
C  C58  1  0.75450918  0.55343716  0.64497445  1  -0.080361  0.001417  3.747017  0.001  -0.103305  0.001871  3.996635  0.002  -0.103778  0.001483  4.015508  0.001  -0.085883  -0.103016  0.002501  3.984096  0.002
C  C59  1  0.24549747  0.44656951  0.35502569  1  -0.080341  0.001406  3.746886  0.001  -0.103297  0.001871  3.996496  0.002  -0.103771  0.001483  4.01537  0.001  -0.085896  -0.103008  0.002501  3.98396  0.002
C  C60  1  0.96385572  0.70763765  0.82271341  1  -0.052591  0.001418  3.747362  0.001  -0.068885  0.001821  3.999795  0.001  -0.069485  0.001471  4.019275  0.001  -0.087661  -0.068451  0.002266  3.986522  0.002
C  C61  1  0.03614768  0.29236131  0.17729104  1  -0.052739  0.001395  3.747262  0.001  -0.069035  0.001821  3.999715  0.001  -0.069636  0.001472  4.019198  0.001  -0.087689  -0.0686  0.002266  3.98645  0.002
C  C62  1  0.52545054  0.74624772  0.78827520  1  0.178914  0.008921  3.624649  0.009  0.11897  0.01194  3.887822  0.011  0.133718  0.010474  3.899387  0.01  0.159819  0.108623  0.013512  3.880446  0.012
C  C63  1  0.47455053  0.25375124  0.21172316  1  0.179065  0.008918  3.624563  0.009  0.119117  0.011939  3.887739  0.011  0.133866  0.010474  3.899303  0.01  0.159888  0.108772  0.013512  3.880368  0.012
C  C64  1  0.71234286  0.96543472  0.87634223  1  -0.008016  0.003692  3.736482  0.004  -0.037654  0.005959  3.998523  0.006  -0.036598  0.005044  4.019608  0.005  0.003175  -0.038339  0.006882  3.983331  0.007
C  C65  1  0.28766031  0.03456645  0.12365755  1  -0.008028  0.003698  3.736543  0.004  -0.037656  0.005958  3.998566  0.006  -0.036602  0.005045  4.019652  0.005  0.00318  -0.038338  0.006882  3.983378  0.007
C  C66  1  0.70364287  0.88269955  0.95766689  1  -0.05516  -0.001374  3.672265  -0.001  -0.094849  1.2e-05  3.92566  0.0  -0.09339  -0.00087  3.944681  0.0  0.005995  -0.095007  0.000673  3.912225  0.001
C  C67  1  0.29635568  0.11730156  0.04233192  1  -0.055213  -0.001373  3.672284  -0.001  -0.094874  1.3e-05  3.92568  0.0  -0.093417  -0.000871  3.944707  0.0  0.005982  -0.09503  0.000673  3.91224  0.001
C  C68  1  0.53951152  0.62047951  0.95219601  1  0.115139  0.000477  3.75693  0.0  0.099431  0.000712  4.009233  0.0  0.102666  0.000479  4.032661  0.0  0.09095  0.097329  0.000949  3.993368  0.001
C  C69  1  0.46048933  0.37952164  0.04780249  1  0.11514  0.000469  3.756842  0.0  0.099404  0.000713  4.009169  0.0  0.102649  0.000479  4.032582  0.0  0.090947  0.097281  0.000949  3.993333  0.001
C  C70  1  0.56522068  0.49693497  0.91270435  1  -0.175232  0.000166  3.709449  0.0  -0.203083  0.000359  3.959573  0.0  -0.206732  0.00024  3.981232  0.0  -0.083866  -0.200514  0.000481  3.94499  0.0
C  C71  1  0.43478086  0.50306510  0.08729180  1  -0.175155  0.000179  3.709321  0.0  -0.202984  0.000359  3.959472  0.0  -0.206631  0.000241  3.981125  0.0  -0.083872  -0.200409  0.000481  3.944897  0.0
C  C72  1  0.47389722  0.62764090  0.04058439  1  0.094409  0.000176  3.742959  0.0  0.114463  0.000378  3.985817  0.0  0.114071  0.00027  4.009807  0.0  -0.002775  0.114654  0.00051  3.96951  0.0
C  C73  1  0.52610479  0.37236026  0.95941515  1  0.094392  0.000181  3.742901  0.0  0.114474  0.000377  3.985741  0.0  0.11408  0.000272  4.009728  0.0  -0.002796  0.114669  0.00051  3.969444  0.0
C  C74  1  0.44234438  0.75845380  0.08272657  1  -0.338263  -6.8e-05  3.720048  0.0  -0.419589  -3.3e-05  3.958705  0.0  -0.421536  -7.9e-05  3.967929  0.0  -0.241738  -0.417638  2.8e-05  3.951673  0.0
C  C75  1  0.55765879  0.24154737  0.91727320  1  -0.33825  -8.8e-05  3.720032  0.0  -0.419574  -3.3e-05  3.958699  0.0  -0.421521  -7.9e-05  3.967922  0.0  -0.241754  -0.417626  2.8e-05  3.951665  0.0
N  N76  1  0.60036281  0.87920165  0.77111013  1  -0.377118  0.029159  3.232415  0.009  -0.308457  0.032683  3.536352  0.006  -0.330934  0.028186  3.547108  0.002  -0.352301  -0.292367  0.036992  3.528761  0.009
N  N77  1  0.39963805  0.12079949  0.22888996  1  -0.377167  0.029154  3.232396  0.009  -0.308524  0.032683  3.53635  0.006  -0.331001  0.028185  3.547104  0.002  -0.352341  -0.292441  0.036993  3.528772  0.009
N  N78  1  0.58493322  0.74405976  0.90094584  1  -0.087533  0.001822  3.623924  0.002  0.00437  0.003711  3.83348  0.004  -0.010174  0.002875  3.85951  0.003  -0.224708  0.013835  0.004525  3.816055  0.004
N  N79  1  0.41506901  0.25593921  0.09905277  1  -0.087587  0.001824  3.62392  0.002  0.004323  0.003711  3.833474  0.004  -0.010224  0.002875  3.859501  0.003  -0.224717  0.013796  0.004525  3.816054  0.004
O  O80  1  0.33160996  0.97508150  0.60521258  1  -0.651483  0.03622  2.067168  0.024  -0.58831  0.045944  2.334623  0.031  -0.621513  0.039298  2.320065  0.025  -0.311377  -0.563118  0.052784  2.343435  0.038
O  O81  1  0.66838280  0.02491406  0.39478700  1  -0.651427  0.03623  2.067146  0.024  -0.588247  0.045945  2.334577  0.031  -0.621451  0.039299  2.32002  0.025  -0.311355  -0.563055  0.052784  2.343387  0.038
O  O82  1  0.28398725  0.09596676  0.46260362  1  -0.642204  0.035735  2.06102  0.024  -0.577398  0.044419  2.331412  0.028  -0.611098  0.038416  2.319251  0.023  -0.30591  -0.552075  0.050702  2.338859  0.034
O  O83  1  0.71601174  0.90402999  0.53739494  1  -0.642107  0.035732  2.061108  0.024  -0.577374  0.044417  2.331545  0.028  -0.611062  0.038415  2.319365  0.023  -0.305911  -0.552049  0.050699  2.338992  0.034
O  O84  1  0.61572632  0.27464897  0.49190516  1  -0.627251  0.033116  2.009819  0.025  -0.564902  0.040322  2.262343  0.03  -0.596996  0.034832  2.250001  0.024  -0.306922  -0.540389  0.045663  2.269455  0.035
O  O85  1  0.38426578  0.72535316  0.50809320  1  -0.627262  0.033113  2.009812  0.025  -0.564915  0.040322  2.262323  0.03  -0.597009  0.03483  2.249983  0.024  -0.306989  -0.5404  0.045662  2.269435  0.035
O  O86  1  0.67362100  0.17369574  0.64622501  1  -0.655404  0.036791  2.061907  0.022  -0.586862  0.049465  2.333047  0.031  -0.621529  0.043789  2.320027  0.026  -0.296615  -0.560004  0.054533  2.340548  0.035
O  O87  1  0.32637643  0.82631081  0.35377642  1  -0.655368  0.03679  2.061882  0.022  -0.586852  0.049468  2.333035  0.031  -0.62152  0.043792  2.320015  0.026  -0.296594  -0.55999  0.054535  2.340535  0.035
O  O88  1  0.95814683  0.29068956  0.90155243  1  -0.471141  0.000698  1.966276  0.001  -0.429443  0.001526  2.184816  0.002  -0.446637  0.000998  2.180072  0.001  -0.257506  -0.418155  0.002577  2.188507  0.003
O  O89  1  0.04186122  0.70931493  0.09845182  1  -0.471127  0.000703  1.966252  0.001  -0.429424  0.001526  2.18486  0.002  -0.446607  0.000998  2.180128  0.001  -0.257501  -0.418137  0.002576  2.188543  0.003
