# generated using pymatgen
data_Zn4H16C40O13
_symmetry_space_group_name_H-M   'P 1'
_cell_length_a   25.70130114
_cell_length_b   25.70133921
_cell_length_c   26.96564003
_cell_angle_alpha   118.46282148
_cell_angle_beta   118.46315834
_cell_angle_gamma   89.99092272
_symmetry_Int_Tables_number   1
_chemical_formula_structural   Zn4H16C40O13
_chemical_formula_sum   'Zn8 H32 C80 O26'
_cell_volume   13159.39658261
_cell_formula_units_Z   2
loop_
 _symmetry_equiv_pos_site_id
 _symmetry_equiv_pos_as_xyz
  1  'x, y, z'
loop_
 _atom_site_type_symbol
 _atom_site_label
 _atom_site_symmetry_multiplicity
 _atom_site_fract_x
 _atom_site_fract_y
 _atom_site_fract_z
 _atom_site_occupancy
 _atom_site_pbe_bader_charge
 _atom_site_pbe_bader_spin_density
 _atom_site_pbe_cm5_charge
 _atom_site_pbe_ddec_charge
 _atom_site_pbe_ddec_spin_density
 _atom_site_pbe_ddec_sum_bond_order
 _atom_site_pbe_magmom
Zn  Zn0  1  0.15903230  0.72116345  0.44234720  1  1.308801  0  0.672536  0.965887  0  2.370426  0
Zn  Zn1  1  0.84096836  0.27883733  0.55765269  1  1.308745  0  0.672567  0.965942  0  2.37038  0
Zn  Zn2  1  0.72116333  0.15903241  0.44234764  1  1.308843  0  0.672593  0.965941  0  2.370257  0
Zn  Zn3  1  0.27883672  0.84096759  0.55765239  1  1.308835  0  0.672587  0.965935  0  2.3703  0
Zn  Zn4  1  0.28331059  0.72116841  0.44232746  1  1.311556  0  0.672383  0.965865  0  2.37053  0
Zn  Zn5  1  0.71668946  0.27883160  0.55767258  1  1.311553  0  0.672356  0.965813  0  2.370585  0
Zn  Zn6  1  0.72116786  0.28331022  0.44232706  1  1.311595  0  0.672314  0.965802  0  2.370701  0
Zn  Zn7  1  0.27883218  0.71668978  0.55767298  1  1.311594  0  0.672336  0.965852  0  2.370655  0
H  H8  1  0.79870610  0.38223715  0.76450288  1  0.087071  0  0.110962  0.117701  0  0.988863  0
H  H9  1  0.20129395  0.61776248  0.23549679  1  0.087068  0  0.110983  0.117728  0  0.988877  0
H  H10  1  0.38223836  0.79870547  0.76450354  1  0.087099  0  0.110958  0.117699  0  0.988829  0
H  H11  1  0.61776169  0.20129453  0.23549649  1  0.087099  0  0.110958  0.117697  0  0.988834  0
H  H12  1  0.96579338  0.38225475  0.76449796  1  0.093311  0  0.111087  0.117874  0  0.989615  0
H  H13  1  0.03420667  0.61774526  0.23550207  1  0.09332  0  0.111062  0.117822  0  0.98963  0
H  H14  1  0.38225509  0.96579228  0.76449722  1  0.09334  0  0.111103  0.117888  0  0.989631  0
H  H15  1  0.61774496  0.03420773  0.23550282  1  0.093335  0  0.111105  0.117892  0  0.989623  0
H  H16  1  0.11448075  0.53171532  0.57756370  1  0.105166  0  0.114859  0.118557  0  0.976256  0
H  H17  1  0.88551961  0.46828545  0.42243664  1  0.105167  0  0.114857  0.118544  0  0.976294  0
H  H18  1  0.04583824  0.11446952  0.57760872  1  0.05385  0  0.115053  0.118389  0  0.976517  0
H  H19  1  0.95416167  0.88553068  0.42239104  1  0.053939  0  0.115036  0.11835  0  0.976585  0
H  H20  1  0.46310302  0.04584985  0.57758986  1  0.073527  0  0.115055  0.119323  0  0.975873  0
H  H21  1  0.53689702  0.95415016  0.42241018  1  0.073522  0  0.115058  0.119336  0  0.975869  0
H  H22  1  0.53177457  0.46314005  0.57761425  1  0.074719  0  0.115173  0.119346  0  0.9764  0
H  H23  1  0.46822592  0.53686015  0.42238599  1  0.074721  0  0.115176  0.119329  0  0.976424  0
H  H24  1  0.88553036  0.95416170  0.42239104  1  0.053928  0  0.115056  0.118384  0  0.976535  0
H  H25  1  0.11446969  0.04583830  0.57760899  1  0.053929  0  0.115055  0.118381  0  0.976533  0
H  H26  1  0.95414777  0.53691934  0.42243228  1  0.073823  0  0.115022  0.119269  0  0.97607  0
H  H27  1  0.04585183  0.46308158  0.57756867  1  0.073915  0  0.115008  0.119239  0  0.976018  0
H  H28  1  0.53686098  0.46822584  0.42238641  1  0.074695  0  0.115163  0.119285  0  0.976361  0
H  H29  1  0.46313907  0.53177416  0.57761363  1  0.074722  0  0.115193  0.119339  0  0.976347  0
H  H30  1  0.46826250  0.88552172  0.42241490  1  0.105823  0  0.114891  0.118509  0  0.976225  0
H  H31  1  0.53173755  0.11447865  0.57758550  1  0.10582  0  0.114895  0.118515  0  0.976194  0
H  H32  1  0.86102680  0.44496447  0.88994318  1  0.054681  0  0.107798  0.110268  0  0.987303  0
H  H33  1  0.13897311  0.55503572  0.11005658  1  0.054675  0  0.107797  0.110254  0  0.987301  0
H  H34  1  0.44496468  0.86102707  0.88994419  1  0.055412  0  0.107827  0.110307  0  0.987286  0
H  H35  1  0.55503537  0.13897293  0.11005585  1  0.055413  0  0.107809  0.110261  0  0.987279  0
H  H36  1  0.02892068  0.44497985  0.88994210  1  0.035935  0  0.107962  0.110876  0  0.986212  0
H  H37  1  0.97107923  0.55502035  0.11005767  1  0.035933  0  0.107965  0.110877  0  0.986211  0
H  H38  1  0.44497890  0.02891995  0.88994102  1  0.035966  0  0.107944  0.110876  0  0.986136  0
H  H39  1  0.55502115  0.97108005  0.11005902  1  0.035965  0  0.107943  0.11088  0  0.986135  0
C  C40  1  0.92236771  0.42236560  0.49999718  1  -0.296202  0  -0.019707  -0.032897  0  4.087751  0
C  C41  1  0.92234360  0.07765617  0.49999990  1  -0.317617  0  -0.019226  -0.0323  0  4.086174  0
C  C42  1  0.51534700  0.01534365  0.03066114  1  -0.495766  0  -0.041336  -0.105288  0  4.1183  0
C  C43  1  0.98465643  0.48465297  0.96933894  1  0.022819  0  -0.041351  -0.105326  0  4.118303  0
C  C44  1  0.01534362  0.51534703  0.03066110  1  -0.495787  0  -0.041237  -0.105134  0  4.118258  0
C  C45  1  0.48465305  0.98465635  0.96933890  1  0.022814  0  -0.041221  -0.105076  0  4.11827  0
C  C46  1  0.34118066  0.84119975  0.68238182  1  1.538816  0  0.22545  0.601285  0  4.171606  0
C  C47  1  0.65881938  0.15880025  0.31761822  1  1.538811  0  0.225466  0.601348  0  4.17161  0
C  C48  1  0.84119615  0.34117805  0.68238068  1  1.538491  0  0.225489  0.601261  0  4.171548  0
C  C49  1  0.15880389  0.65882158  0.31761899  1  1.538492  0  0.225474  0.601233  0  4.171551  0
C  C50  1  0.15076298  0.84923946  0.50000132  1  1.692907  0  0.231412  0.679394  0  4.238116  0
C  C51  1  0.84923694  0.15076037  0.49999808  1  1.692901  0  0.231381  0.679292  0  4.238276  0
C  C52  1  0.65073685  0.15074383  0.50001228  1  1.672416  0  0.231691  0.679652  0  4.240193  0
C  C53  1  0.34926320  0.84925618  0.49998776  1  1.672418  0  0.2317  0.679668  0  4.240175  0
C  C54  1  0.34924901  0.65075046  0.49999817  1  1.67719  0  0.231413  0.679754  0  4.241013  0
C  C55  1  0.65075117  0.34924935  0.50000214  1  1.677211  0  0.231488  0.679991  0  4.240798  0
C  C56  1  0.84925637  0.34926324  0.49998760  1  1.672353  0  0.231661  0.67962  0  4.240148  0
C  C57  1  0.07763206  0.57763516  0.50000268  1  -0.296167  0  -0.019693  -0.032881  0  4.087664  0
C  C58  1  0.15074399  0.65073716  0.50001236  1  1.672414  0  0.231664  0.67965  0  4.240142  0
C  C59  1  0.02623086  0.47946596  0.54383401  1  -0.006009  0  -0.072366  -0.112789  0  3.944514  0
C  C60  1  0.42234887  0.57765077  0.49999941  1  -0.321503  0  -0.019482  -0.033122  0  4.08673  0
C  C61  1  0.97376848  0.52053497  0.45616602  1  -0.005594  0  -0.072397  -0.112932  0  3.944571  0
C  C62  1  0.06435581  0.02621201  0.54383169  1  0.05733  0  -0.072484  -0.1119  0  3.945353  0
C  C63  1  0.93564424  0.97378800  0.45616834  1  -0.069659  0  -0.072475  -0.111914  0  3.945382  0
C  C64  1  0.51761626  0.06436093  0.54384012  1  -0.044713  0  -0.071647  -0.110496  0  3.943358  0
C  C65  1  0.48238392  0.93563889  0.45616019  1  -0.044515  0  -0.071669  -0.110531  0  3.943414  0
C  C66  1  0.47948056  0.51763160  0.54384064  1  0.047076  0  -0.072915  -0.113636  0  3.945957  0
C  C67  1  0.52051948  0.48236877  0.45615977  1  0.046724  0  -0.072882  -0.113592  0  3.945974  0
C  C68  1  0.97378807  0.93564427  0.45616829  1  0.057341  0  -0.072467  -0.111863  0  3.945417  0
C  C69  1  0.02621153  0.06435516  0.54383117  1  -0.069618  0  -0.072502  -0.111947  0  3.945385  0
C  C70  1  0.93563621  0.48239694  0.45617157  1  -0.043593  0  -0.071745  -0.110705  0  3.943699  0
C  C71  1  0.57765104  0.42234979  0.50000073  1  -0.321569  0  -0.01952  -0.033128  0  4.086804  0
C  C72  1  0.06436343  0.51760437  0.54382839  1  -0.043289  0  -0.071768  -0.110846  0  3.943702  0
C  C73  1  0.48236861  0.52051890  0.45615881  1  -0.079966  0  -0.072852  -0.11361  0  3.945962  0
C  C74  1  0.51763144  0.47948110  0.54384122  1  -0.079993  0  -0.072851  -0.113645  0  3.945923  0
C  C75  1  0.52052064  0.97377047  0.45615283  1  -0.005382  0  -0.072559  -0.113153  0  3.944486  0
C  C76  1  0.47947954  0.02622897  0.54384710  1  -0.005301  0  -0.072606  -0.113188  0  3.944517  0
C  C77  1  0.57763428  0.07763324  0.50000326  1  -0.296109  0  -0.019733  -0.033013  0  4.087665  0
C  C78  1  0.42236563  0.92236696  0.49999651  1  -0.296107  0  -0.019736  -0.033022  0  4.087652  0
C  C79  1  0.96128713  0.46128345  0.49999834  1  0.111532  0  0.007325  0.128363  0  4.106677  0
C  C80  1  0.03871265  0.53871767  0.50000190  1  0.111482  0  0.007287  0.128436  0  4.106581  0
C  C81  1  0.03872812  0.96127150  0.49999979  1  0.143818  0  0.007865  0.129915  0  4.102473  0
C  C82  1  0.96127149  0.03872830  0.50000005  1  0.143807  0  0.007852  0.129917  0  4.102497  0
C  C83  1  0.53871732  0.03871300  0.50000204  1  0.111971  0  0.007338  0.128449  0  4.106551  0
C  C84  1  0.46128273  0.96128700  0.49999799  1  0.111923  0  0.007338  0.128452  0  4.106539  0
C  C85  1  0.46127573  0.53872344  0.49999962  1  0.122132  0  0.008491  0.131951  0  4.100153  0
C  C86  1  0.53872431  0.46127657  0.50000041  1  0.122275  0  0.008497  0.131985  0  4.100205  0
C  C87  1  0.07765644  0.92234383  0.50000014  1  -0.317609  0  -0.019222  -0.032263  0  4.086167  0
C  C88  1  0.88378632  0.43115130  0.86230191  1  -0.034042  0  -0.080587  -0.125439  0  3.944335  0
C  C89  1  0.11621373  0.56884870  0.13769813  1  -0.034047  0  -0.080566  -0.125384  0  3.944299  0
C  C90  1  0.43115150  0.88378550  0.86230229  1  -0.034817  0  -0.080582  -0.125454  0  3.944286  0
C  C91  1  0.56884811  0.11621431  0.13769755  1  -0.034816  0  -0.080597  -0.125431  0  3.944264  0
C  C92  1  0.97851820  0.43113850  0.86230054  1  -0.085061  0  -0.081209  -0.126901  0  3.942491  0
C  C93  1  0.02148171  0.56886206  0.13769959  1  -0.084955  0  -0.081275  -0.126969  0  3.942577  0
C  C94  1  0.43113830  0.97851742  0.86230040  1  -0.084942  0  -0.081225  -0.126894  0  3.942538  0
C  C95  1  0.56886174  0.02148258  0.13769963  1  -0.084948  0  -0.08123  -0.126926  0  3.942525  0
C  C96  1  0.11115044  0.61114585  0.49999099  1  0.007602  0  -0.042169  -0.18572  0  3.966347  0
C  C97  1  0.88884875  0.38885489  0.50000840  1  0.007586  0  -0.042189  -0.185713  0  3.966341  0
C  C98  1  0.88881863  0.11118115  0.49999972  1  0.009176  0  -0.042809  -0.187148  0  3.966827  0
C  C99  1  0.11118128  0.88881867  0.49999967  1  0.009176  0  -0.042825  -0.18722  0  3.966817  0
C  C100  1  0.38885429  0.88884911  0.50000846  1  0.007494  0  -0.042156  -0.185613  0  3.966294  0
C  C101  1  0.61114575  0.11115089  0.49999158  1  0.007491  0  -0.042166  -0.185628  0  3.966304  0
C  C102  1  0.61117574  0.38882556  0.50000073  1  0.015188  0  -0.042463  -0.186703  0  3.967693  0
C  C103  1  0.38882387  0.61117461  0.49999947  1  0.01515  0  -0.04246  -0.186607  0  3.967832  0
C  C104  1  0.87860095  0.37857662  0.75720040  1  0.030261  0  -0.017905  -0.042073  0  3.976164  0
C  C105  1  0.12139910  0.62142301  0.24279927  1  0.030259  0  -0.017894  -0.042056  0  3.976163  0
C  C106  1  0.37857828  0.87859940  0.75720077  1  0.030235  0  -0.017893  -0.042199  0  3.976282  0
C  C107  1  0.62142177  0.12140060  0.24279927  1  0.030239  0  -0.017885  -0.042195  0  3.976242  0
C  C108  1  0.84910455  0.39630751  0.79263927  1  0.022507  0  -0.078919  -0.085165  0  3.983361  0
C  C109  1  0.15089550  0.60369213  0.20736039  1  0.022498  0  -0.078942  -0.0852  0  3.983365  0
C  C110  1  0.39630886  0.84910510  0.79263961  1  0.022486  0  -0.078867  -0.085012  0  3.98339  0
C  C111  1  0.60369119  0.15089491  0.20736043  1  0.022491  0  -0.078857  -0.085019  0  3.983393  0
C  C112  1  0.94353281  0.39630506  0.79263760  1  0.027345  0  -0.079508  -0.08568  0  3.983774  0
C  C113  1  0.05646755  0.60369496  0.20736199  1  0.027236  0  -0.079431  -0.085568  0  3.983828  0
C  C114  1  0.39630537  0.94353224  0.79263712  1  0.02723  0  -0.079531  -0.085666  0  3.983733  0
C  C115  1  0.60369423  0.05646756  0.20736271  1  0.027233  0  -0.079534  -0.08567  0  3.983721  0
C  C116  1  0.94918236  0.44917345  0.89836395  1  0.125534  0  0.006036  0.146847  0  4.111092  0
C  C117  1  0.05081769  0.55082655  0.10163608  1  0.125539  0  0.006034  0.146796  0  4.111109  0
C  C118  1  0.44917336  0.94918214  0.89836366  1  0.125542  0  0.005999  0.146676  0  4.111296  0
C  C119  1  0.55082668  0.05081786  0.10163638  1  0.125537  0  0.006021  0.146767  0  4.11121  0
O  O120  1  0.25000654  0.74999308  0.49999972  1  -1.201841  0  -0.570151  -1.033825  0  2.52885  0
O  O121  1  0.67336537  0.12903455  0.34673118  1  -1.162797  0  -0.314637  -0.546422  0  2.340891  0
O  O122  1  0.78231682  0.32662073  0.65327053  1  -1.159032  0  -0.315246  -0.546946  0  2.33996  0
O  O123  1  0.21768337  0.67337871  0.34672940  1  -1.159036  0  -0.315256  -0.546963  0  2.33996  0
O  O124  1  0.32662338  0.78231443  0.65327038  1  -1.159046  0  -0.315323  -0.547097  0  2.33974  0
O  O125  1  0.67337667  0.21768557  0.34672966  1  -1.159048  0  -0.315323  -0.547102  0  2.33973  0
O  O126  1  0.87096698  0.32663222  0.65326807  1  -1.162396  0  -0.31469  -0.546458  0  2.340543  0
O  O127  1  0.12903307  0.67336779  0.34673196  1  -1.162385  0  -0.314684  -0.546441  0  2.340558  0
O  O128  1  0.32663410  0.87096582  0.65326875  1  -1.162804  0  -0.314622  -0.546371  0  2.340851  0
O  O129  1  0.74999382  0.25000731  0.50000025  1  -1.201834  0  -0.57016  -1.033798  0  2.528855  0
O  O130  1  0.20889897  0.87630643  0.54093134  1  -1.151792  0  -0.311166  -0.540275  0  2.274571  0
O  O131  1  0.79110108  0.12369320  0.45906832  1  -1.151796  0  -0.311127  -0.540216  0  2.274596  0
O  O132  1  0.66459853  0.20888694  0.54093299  1  -1.148275  0  -0.310873  -0.540589  0  2.276004  0
O  O133  1  0.33540138  0.79111325  0.45906677  1  -1.148272  0  -0.310869  -0.540594  0  2.275994  0
O  O134  1  0.33202517  0.66459660  0.54092079  1  -1.14423  0  -0.311234  -0.540641  0  2.27518  0
O  O135  1  0.66797532  0.33540397  0.45907982  1  -1.144228  0  -0.311224  -0.54068  0  2.27517  0
O  O136  1  0.87632247  0.33203108  0.54090580  1  -1.155024  0  -0.311919  -0.541053  0  2.274815  0
O  O137  1  0.12367775  0.66796951  0.45909389  1  -1.155095  0  -0.311901  -0.541033  0  2.274763  0
O  O138  1  0.79111296  0.33540125  0.45906667  1  -1.148204  0  -0.310871  -0.54057  0  2.275987  0
O  O139  1  0.20888695  0.66459895  0.54093309  1  -1.148258  0  -0.310866  -0.54058  0  2.276  0
O  O140  1  0.33540390  0.66797468  0.45908026  1  -1.144325  0  -0.311111  -0.540473  0  2.275569  0
O  O141  1  0.66459615  0.33202569  0.54092015  1  -1.144338  0  -0.311133  -0.540559  0  2.275601  0
O  O142  1  0.66796932  0.12367821  0.45909431  1  -1.155079  0  -0.311899  -0.541031  0  2.27481  0
O  O143  1  0.33203073  0.87632217  0.54090610  1  -1.155086  0  -0.311914  -0.541049  0  2.274794  0
O  O144  1  0.12369171  0.79109892  0.45906708  1  -1.151504  0  -0.311162  -0.540262  0  2.274291  0
O  O145  1  0.87630820  0.20890090  0.54093231  1  -1.151489  0  -0.311171  -0.540259  0  2.274311  0
