# generated using pymatgen
data_CuH5C4N2O3
_symmetry_space_group_name_H-M   'P 1'
_cell_length_a   6.89728503
_cell_length_b   9.60510307
_cell_length_c   9.88721785
_cell_angle_alpha   89.99952828
_cell_angle_beta   89.99998851
_cell_angle_gamma   101.87684382
_symmetry_Int_Tables_number   1
_chemical_formula_structural   CuH5C4N2O3
_chemical_formula_sum   'Cu4 H20 C16 N8 O12'
_cell_volume   640.99711581
_cell_formula_units_Z   4
loop_
 _symmetry_equiv_pos_site_id
 _symmetry_equiv_pos_as_xyz
  1  'x, y, z'
loop_
 _atom_site_type_symbol
 _atom_site_label
 _atom_site_symmetry_multiplicity
 _atom_site_fract_x
 _atom_site_fract_y
 _atom_site_fract_z
 _atom_site_occupancy
 _atom_site_hle17_bader_spin_density
 _atom_site_hle17_ddec_charge
 _atom_site_hle17_ddec_spin_density
 _atom_site_hle17_ddec_sum_bond_order
 _atom_site_hle17_magmom
 _atom_site_hse06_10hf_bader_spin_density
 _atom_site_hse06_10hf_ddec_charge
 _atom_site_hse06_10hf_ddec_spin_density
 _atom_site_hse06_10hf_ddec_sum_bond_order
 _atom_site_hse06_10hf_magmom
 _atom_site_hse06_bader_spin_density
 _atom_site_hse06_ddec_charge
 _atom_site_hse06_ddec_spin_density
 _atom_site_hse06_ddec_sum_bond_order
 _atom_site_hse06_magmom
 _atom_site_pbe_bader_spin_density
 _atom_site_pbe_cm5_charge
 _atom_site_pbe_ddec_charge
 _atom_site_pbe_ddec_spin_density
 _atom_site_pbe_ddec_sum_bond_order
 _atom_site_pbe_magmom
Cu  Cu0  1  0.65665211  0.81805456  0.72088904  1  0  0.656057  0  1.945311  0  0  0.616756  0  2.392345  0  0  0.615108  0  2.353368  0  0  0.603847  0.6182  0  2.419164  0
Cu  Cu1  1  0.34334979  0.68194795  0.22088747  1  0  0.656002  0  1.94535  0  0  0.61672  0  2.392425  0  0  0.615075  0  2.353413  0  0  0.603829  0.618385  0  2.419064  0
Cu  Cu2  1  0.34335287  0.18194930  0.27911619  1  0  0.65606  0  1.945284  0  0  0.616795  0  2.392356  0  0  0.6151  0  2.353347  0  0  0.603806  0.618449  0  2.418983  0
Cu  Cu3  1  0.65665023  0.31805378  0.77911068  1  0  0.656065  0  1.945178  0  0  0.616769  0  2.392217  0  0  0.615128  0  2.353249  0  0  0.603794  0.618205  0  2.419007  0
H  H4  1  0.62954544  0.28601105  0.03754629  1  0  0.150165  0  0.969557  0  0  0.155951  0  1.040349  0  0  0.158806  0  1.038747  0  0  0.096327  0.153919  0  1.041511  0
H  H5  1  0.37045714  0.21398990  0.53755378  1  0  0.150239  0  0.96956  0  0  0.156007  0  1.040365  0  0  0.158859  0  1.038767  0  0  0.096343  0.153962  0  1.041557  0
H  H6  1  0.37046976  0.71399812  0.96245591  1  0  0.15023  0  0.969628  0  0  0.155977  0  1.040446  0  0  0.158828  0  1.03885  0  0  0.096324  0.153936  0  1.041642  0
H  H7  1  0.62953753  0.78600331  0.46245752  1  0  0.150151  0  0.96972  0  0  0.15596  0  1.040456  0  0  0.158812  0  1.03886  0  0  0.096332  0.15393  0  1.041626  0
H  H8  1  0.69482119  0.47590604  0.98636956  1  0  0.140341  0  0.953052  0  0  0.152902  0  1.013946  0  0  0.154398  0  1.014296  0  0  0.097418  0.151639  0  1.014017  0
H  H9  1  0.30517160  0.02408671  0.48638039  1  0  0.140354  0  0.952911  0  0  0.152942  0  1.013769  0  0  0.154456  0  1.014092  0  0  0.097445  0.15168  0  1.013844  0
H  H10  1  0.30518783  0.52409675  0.01362455  1  0  0.140337  0  0.952981  0  0  0.152901  0  1.013878  0  0  0.154392  0  1.014236  0  0  0.09744  0.151635  0  1.013956  0
H  H11  1  0.69482322  0.97589693  0.51362180  1  0  0.140404  0  0.952971  0  0  0.152901  0  1.013944  0  0  0.154415  0  1.014271  0  0  0.097404  0.15164  0  1.01402  0
H  H12  1  0.99494044  0.43415621  0.86733825  1  0  0.099075  0  0.968424  0  0  0.107388  0  1.032596  0  0  0.108944  0  1.033257  0  0  0.100454  0.106428  0  1.031756  0
H  H13  1  0.00506682  0.06585141  0.36733664  1  0  0.099119  0  0.968368  0  0  0.10739  0  1.032568  0  0  0.108946  0  1.033227  0  0  0.100457  0.106452  0  1.031687  0
H  H14  1  0.00507521  0.56584445  0.13266900  1  0  0.099078  0  0.968299  0  0  0.10732  0  1.032542  0  0  0.108878  0  1.033201  0  0  0.100418  0.106379  0  1.031668  0
H  H15  1  0.99492938  0.93414713  0.63266253  1  0  0.09906  0  0.968321  0  0  0.107335  0  1.032521  0  0  0.10889  0  1.033184  0  0  0.100426  0.106378  0  1.031681  0
H  H16  1  0.84156186  0.11493532  0.93799643  1  0  0.141346  0  0.918131  0  0  0.153906  0  0.976392  0  0  0.155554  0  0.975945  0  0  0.121032  0.152493  0  0.976894  0
H  H17  1  0.15843711  0.38507380  0.43799222  1  0  0.141313  0  0.918085  0  0  0.15391  0  0.976296  0  0  0.15556  0  0.975847  0  0  0.121008  0.152507  0  0.976788  0
H  H18  1  0.15842717  0.88506853  0.06200577  1  0  0.14145  0  0.918014  0  0  0.153954  0  0.976358  0  0  0.155604  0  0.975909  0  0  0.12105  0.152551  0  0.976851  0
H  H19  1  0.84157358  0.61492473  0.56199784  1  0  0.141394  0  0.918098  0  0  0.15392  0  0.976402  0  0  0.15557  0  0.975953  0  0  0.121025  0.152509  0  0.976909  0
H  H20  1  0.03481686  0.18657014  0.82270591  1  0  0.143691  0  0.91594  0  0  0.156103  0  0.974389  0  0  0.15864  0  0.972447  0  0  0.122715  0.154272  0  0.975704  0
H  H21  1  0.96519313  0.31343681  0.32269817  1  0  0.143696  0  0.915958  0  0  0.156085  0  0.974416  0  0  0.158623  0  0.972474  0  0  0.122717  0.154279  0  0.975674  0
H  H22  1  0.96518514  0.81342840  0.17729831  1  0  0.143683  0  0.915955  0  0  0.156098  0  0.974405  0  0  0.158636  0  0.972464  0  0  0.122725  0.154295  0  0.975666  0
H  H23  1  0.03481559  0.68656492  0.67730100  1  0  0.143728  0  0.915863  0  0  0.156132  0  0.974336  0  0  0.158669  0  0.972396  0  0  0.122738  0.154299  0  0.975654  0
C  C24  1  0.71903495  0.36781962  0.97437572  1  0  -0.327749  0  3.658936  0  0  -0.388945  0  3.955983  0  0  -0.387518  0  3.961704  0  0  -0.24504  -0.38948  0  3.951616  0
C  C25  1  0.28096224  0.13219344  0.47437860  1  0  -0.327884  0  3.658984  0  0  -0.389105  0  3.956067  0  0  -0.387676  0  3.961753  0  0  -0.245044  -0.389645  0  3.951709  0
C  C26  1  0.28097392  0.63219274  0.02562446  1  0  -0.327798  0  3.659064  0  0  -0.388975  0  3.95609  0  0  -0.387541  0  3.961812  0  0  -0.245013  -0.389518  0  3.951742  0
C  C27  1  0.71902855  0.86781148  0.52562056  1  0  -0.327766  0  3.659253  0  0  -0.388922  0  3.956244  0  0  -0.387509  0  3.961952  0  0  -0.245009  -0.389465  0  3.951904  0
C  C28  1  0.88744966  0.34464706  0.90870819  1  0  -0.063337  0  3.742093  0  0  -0.079566  0  4.034287  0  0  -0.077956  0  4.047031  0  0  -0.149972  -0.08056  0  4.024885  0
C  C29  1  0.11255230  0.15536233  0.40870382  1  0  -0.063374  0  3.742192  0  0  -0.079587  0  4.034385  0  0  -0.077961  0  4.047106  0  0  -0.150009  -0.080562  0  4.024955  0
C  C30  1  0.11256058  0.65535999  0.09129805  1  0  -0.063382  0  3.741989  0  0  -0.079501  0  4.034123  0  0  -0.077882  0  4.046851  0  0  -0.149982  -0.080472  0  4.024706  0
C  C31  1  0.88744078  0.84464046  0.59128927  1  0  -0.063372  0  3.742184  0  0  -0.07952  0  4.034312  0  0  -0.077908  0  4.047058  0  0  -0.15  -0.080512  0  4.024933  0
C  C32  1  0.96238514  0.20684226  0.91767386  1  0  -0.197641  0  3.758005  0  0  -0.229372  0  3.987972  0  0  -0.231519  0  3.995488  0  0  -0.134311  -0.227952  0  3.983563  0
C  C33  1  0.03761771  0.29317024  0.41767242  1  0  -0.197665  0  3.758404  0  0  -0.229321  0  3.988179  0  0  -0.23147  0  3.995691  0  0  -0.134294  -0.227885  0  3.983725  0
C  C34  1  0.03760855  0.79316266  0.08232632  1  0  -0.197665  0  3.758425  0  0  -0.22933  0  3.988261  0  0  -0.231484  0  3.995777  0  0  -0.134291  -0.2279  0  3.983822  0
C  C35  1  0.96238559  0.70683787  0.58232775  1  0  -0.197692  0  3.758  0  0  -0.229397  0  3.987921  0  0  -0.231543  0  3.995435  0  0  -0.134317  -0.227991  0  3.983535  0
C  C36  1  0.10815578  0.21086499  0.02399882  1  0  0.436477  0  3.590616  0  0  0.42397  0  3.862111  0  0  0.438189  0  3.87462  0  0  0.237409  0.413546  0  3.854664  0
C  C37  1  0.89184799  0.28913501  0.52398543  1  0  0.436603  0  3.590804  0  0  0.424048  0  3.862311  0  0  0.438275  0  3.874826  0  0  0.237438  0.413634  0  3.854854  0
C  C38  1  0.89185286  0.78913141  0.97601552  1  0  0.436455  0  3.590408  0  0  0.423937  0  3.861924  0  0  0.438169  0  3.874436  0  0  0.237323  0.413519  0  3.854482  0
C  C39  1  0.10816881  0.71086459  0.47600868  1  0  0.436448  0  3.590697  0  0  0.423942  0  3.862206  0  0  0.438165  0  3.874719  0  0  0.237416  0.413526  0  3.854771  0
N  N40  1  0.22172111  0.21316909  0.11132468  1  0  -0.470752  0  3.027625  0  0  -0.439318  0  3.344096  0  0  -0.4482  0  3.342182  0  0  -0.378324  -0.434349  0  3.346672  0
N  N41  1  0.77827462  0.28683334  0.61131941  1  0  -0.470882  0  3.027447  0  0  -0.439446  0  3.343952  0  0  -0.448343  0  3.342063  0  0  -0.378364  -0.434496  0  3.346598  0
N  N42  1  0.77827395  0.78683051  0.88867347  1  0  -0.470837  0  3.026989  0  0  -0.439396  0  3.343476  0  0  -0.448294  0  3.341585  0  0  -0.378318  -0.434448  0  3.346144  0
N  N43  1  0.22173516  0.71316200  0.38867874  1  0  -0.470746  0  3.027686  0  0  -0.439305  0  3.344177  0  0  -0.448203  0  3.342289  0  0  -0.378312  -0.434333  0  3.346762  0
N  N44  1  0.38409488  0.97475493  0.79499521  1  0  0.691175  0  4.123109  0  0  0.72879  0  4.402486  0  0  0.75615  0  4.409758  0  0  0.099046  0.710112  0  4.397011  0
N  N45  1  0.61590069  0.52524586  0.29498882  1  0  0.690664  0  4.123599  0  0  0.728447  0  4.4028  0  0  0.755814  0  4.410066  0  0  0.098953  0.711377  0  4.397009  0
N  N46  1  0.61590185  0.02524042  0.20500699  1  0  0.690909  0  4.123289  0  0  0.72877  0  4.402384  0  0  0.756134  0  4.409656  0  0  0.099016  0.711676  0  4.396597  0
N  N47  1  0.38408277  0.47475374  0.70500326  1  0  0.691192  0  4.122946  0  0  0.728752  0  4.402381  0  0  0.756117  0  4.409648  0  0  0.099061  0.710081  0  4.396907  0
O  O48  1  0.38013197  0.84616912  0.75136162  1  0  -0.486864  0  1.888804  0  0  -0.466508  0  2.150048  0  0  -0.483445  0  2.139017  0  0  -0.219188  -0.454437  0  2.157343  0
O  O49  1  0.61986342  0.65383099  0.25136632  1  0  -0.486576  0  1.888809  0  0  -0.466368  0  2.150117  0  0  -0.483307  0  2.139083  0  0  -0.219157  -0.454949  0  2.157365  0
O  O50  1  0.61986301  0.15382516  0.24864665  1  0  -0.486791  0  1.888801  0  0  -0.46652  0  2.149974  0  0  -0.483452  0  2.138927  0  0  -0.21917  -0.455104  0  2.157263  0
O  O51  1  0.38012591  0.34617394  0.74865004  1  0  -0.486886  0  1.888717  0  0  -0.466478  0  2.149934  0  0  -0.483421  0  2.138903  0  0  -0.219133  -0.454418  0  2.15724  0
O  O52  1  0.22454047  0.01089834  0.81924659  1  0  -0.426335  0  1.785579  0  0  -0.410051  0  1.988688  0  0  -0.425251  0  1.986648  0  0  -0.159765  -0.398837  0  1.989617  0
O  O53  1  0.77545228  0.48909907  0.31924553  1  0  -0.426247  0  1.785848  0  0  -0.410008  0  1.988898  0  0  -0.425238  0  1.986891  0  0  -0.159788  -0.399508  0  1.989806  0
O  O54  1  0.77546038  0.98910126  0.18075763  1  0  -0.426288  0  1.785711  0  0  -0.410099  0  1.988745  0  0  -0.425302  0  1.986708  0  0  -0.159782  -0.399585  0  1.989656  0
O  O55  1  0.22452683  0.51090054  0.68076880  1  0  -0.426482  0  1.785674  0  0  -0.4102  0  1.988856  0  0  -0.425399  0  1.986811  0  0  -0.159863  -0.398987  0  1.98979  0
O  O56  1  0.55150807  0.05682265  0.81045929  1  0  -0.485604  0  1.831021  0  0  -0.481974  0  2.077447  0  0  -0.491866  0  2.063961  0  0  -0.19161  -0.474866  0  2.086724  0
O  O57  1  0.44848463  0.44316951  0.31044042  1  0  -0.485378  0  1.831124  0  0  -0.481787  0  2.07749  0  0  -0.491666  0  2.063993  0  0  -0.191528  -0.47538  0  2.086746  0
O  O58  1  0.44849302  0.94317269  0.18953583  1  0  -0.485472  0  1.831047  0  0  -0.481921  0  2.077388  0  0  -0.491803  0  2.063892  0  0  -0.191582  -0.475506  0  2.086653  0
O  O59  1  0.55149684  0.55681307  0.68950918  1  0  -0.485495  0  1.830806  0  0  -0.481853  0  2.077253  0  0  -0.491743  0  2.063768  0  0  -0.191571  -0.474747  0  2.086534  0
