# generated using pymatgen
data_ZnH11C18(NO)3
_symmetry_space_group_name_H-M   'P 1'
_cell_length_a   15.27844970
_cell_length_b   16.74583347
_cell_length_c   16.74521231
_cell_angle_alpha   77.98835816
_cell_angle_beta   62.85826097
_cell_angle_gamma   62.85802090
_symmetry_Int_Tables_number   1
_chemical_formula_structural   ZnH11C18(NO)3
_chemical_formula_sum   'Zn8 H88 C144 N24 O24'
_cell_volume   3392.65242649
_cell_formula_units_Z   8
loop_
 _symmetry_equiv_pos_site_id
 _symmetry_equiv_pos_as_xyz
  1  'x, y, z'
loop_
 _atom_site_type_symbol
 _atom_site_label
 _atom_site_symmetry_multiplicity
 _atom_site_fract_x
 _atom_site_fract_y
 _atom_site_fract_z
 _atom_site_occupancy
 _atom_site_pbe_bader_charge
 _atom_site_pbe_bader_spin_density
 _atom_site_pbe_cm5_charge
 _atom_site_pbe_ddec_charge
 _atom_site_pbe_ddec_spin_density
 _atom_site_pbe_ddec_sum_bond_order
 _atom_site_pbe_magmom
Zn  Zn0  1  0.14276497  0.31316641  0.32550971  1  1.2752  0  0.713797  0.829164  0  2.388873  0
Zn  Zn1  1  0.78142853  0.18682999  0.17452189  1  1.274677  0  0.713867  0.828055  0  2.387582  0
Zn  Zn2  1  0.96826233  0.17450282  0.31319133  1  1.276759  0  0.713964  0.828782  0  2.388168  0
Zn  Zn3  1  0.45594669  0.32549284  0.18681127  1  1.273415  0  0.713296  0.828367  0  2.389275  0
Zn  Zn4  1  0.85723599  0.68683307  0.67449020  1  1.275197  0  0.713814  0.82919  0  2.388869  0
Zn  Zn5  1  0.21857150  0.81317015  0.82547861  1  1.274681  0  0.713891  0.828112  0  2.387518  0
Zn  Zn6  1  0.03173804  0.82549665  0.68680917  1  1.276709  0  0.713966  0.828795  0  2.388173  0
Zn  Zn7  1  0.54405358  0.67450596  0.81318892  1  1.273427  0  0.713281  0.82835  0  2.389298  0
H  H8  1  0.05193389  0.43729123  0.61876570  1  0.561099  0  0.313051  0.309311  0  0.986876  0
H  H9  1  0.10795745  0.06271791  0.88125744  1  0.566187  0  0.3132  0.308255  0  0.986721  0
H  H10  1  0.17070474  0.88122829  0.43729226  1  0.554128  0  0.313129  0.308337  0  0.985804  0
H  H11  1  0.48921245  0.61877003  0.06271032  1  0.568903  0  0.313317  0.308249  0  0.986178  0
H  H12  1  0.94806631  0.56270891  0.38123390  1  0.561076  0  0.313046  0.309302  0  0.986888  0
H  H13  1  0.89204172  0.93728224  0.11874245  1  0.566178  0  0.313194  0.308221  0  0.986781  0
H  H14  1  0.82929487  0.11877186  0.56270793  1  0.554132  0  0.31313  0.308325  0  0.985812  0
H  H15  1  0.51078809  0.38122945  0.93728928  1  0.568852  0  0.313355  0.308327  0  0.986142  0
H  H16  1  0.83674780  0.45237158  0.72874941  1  0.096915  0  0.100925  0.116781  0  1.04073  0
H  H17  1  0.01786762  0.04763509  0.77127357  1  0.112723  0  0.100529  0.115745  0  1.041787  0
H  H18  1  0.06548250  0.77127504  0.45236137  1  0.118849  0  0.101579  0.11668  0  1.041816  0
H  H19  1  0.28911517  0.72872226  0.04764099  1  0.100339  0  0.101454  0.11694  0  1.041168  0
H  H20  1  0.16325103  0.54762924  0.27125047  1  0.096899  0  0.10094  0.116796  0  1.040662  0
H  H21  1  0.98213095  0.95236506  0.22872692  1  0.112707  0  0.100501  0.115686  0  1.041742  0
H  H22  1  0.93451744  0.22872443  0.54763882  1  0.118857  0  0.101554  0.116641  0  1.041838  0
H  H23  1  0.71088477  0.27127721  0.95235920  1  0.100331  0  0.101447  0.116911  0  1.041176  0
H  H24  1  0.22811788  0.37724857  0.57652996  1  0.11118  0  0.11272  0.111935  0  0.990606  0
H  H25  1  0.18189019  0.12273839  0.92347035  1  0.067021  0  0.112455  0.112612  0  0.990213  0
H  H26  1  0.30466347  0.92345202  0.37725203  1  0.07224  0  0.112795  0.112112  0  0.990442  0
H  H27  1  0.60536851  0.57653888  0.12274286  1  0.076248  0  0.112432  0.112043  0  0.98961  0
H  H28  1  0.77188130  0.62275157  0.42346993  1  0.111178  0  0.112734  0.111971  0  0.990579  0
H  H29  1  0.81810898  0.87726176  0.07652954  1  0.067017  0  0.11245  0.11261  0  0.990231  0
H  H30  1  0.69533570  0.07654813  0.62274786  1  0.072244  0  0.112779  0.112069  0  0.990442  0
H  H31  1  0.39463109  0.42346127  0.87725733  1  0.076249  0  0.112425  0.112053  0  0.9896  0
H  H32  1  0.88252666  0.36935276  0.43436184  1  0.116422  0  0.106825  0.126092  0  1.00403  0
H  H33  1  0.68621489  0.13068036  0.06564090  1  0.112004  0  0.106785  0.126472  0  1.004383  0
H  H34  1  0.81690515  0.06564295  0.36933398  1  0.090888  0  0.107039  0.126818  0  1.003005  0
H  H35  1  0.25189968  0.43433587  0.13064942  1  0.122004  0  0.106669  0.125208  0  1.005306  0
H  H36  1  0.11747354  0.63064738  0.56563775  1  0.116433  0  0.106817  0.126042  0  1.004081  0
H  H37  1  0.31378421  0.86932046  0.93436019  1  0.11191  0  0.106791  0.126505  0  1.004374  0
H  H38  1  0.18309489  0.93435719  0.63066652  1  0.090883  0  0.107038  0.126829  0  1.003017  0
H  H39  1  0.74809983  0.56566360  0.86935046  1  0.122009  0  0.106663  0.125208  0  1.005315  0
H  H40  1  0.11055222  0.35572204  0.08530456  1  0.106688  0  0.103638  0.109348  0  1.028209  0
H  H41  1  0.55157866  0.14427848  0.41469379  1  0.097533  0  0.10371  0.109195  0  1.02712  0
H  H42  1  0.69585807  0.41467723  0.35572954  1  0.103555  0  0.103394  0.109409  0  1.027199  0
H  H43  1  0.46622226  0.08532658  0.14428620  1  0.099646  0  0.103073  0.108687  0  1.028172  0
H  H44  1  0.88944729  0.64427743  0.91469533  1  0.106674  0  0.103633  0.10935  0  1.02821  0
H  H45  1  0.44842052  0.85572167  0.58530610  1  0.097529  0  0.103718  0.109199  0  1.027123  0
H  H46  1  0.30414051  0.58532292  0.64427094  1  0.103565  0  0.103444  0.109486  0  1.027198  0
H  H47  1  0.53377751  0.91467356  0.85571309  1  0.099704  0  0.103089  0.108692  0  1.028165  0
H  H48  1  0.70414823  0.41353553  0.56780829  1  0.074945  0  0.091681  0.092504  0  1.051101  0
H  H49  1  0.68548983  0.08647289  0.93218727  1  0.065942  0  0.091103  0.091406  0  1.052148  0
H  H50  1  0.77197712  0.93220071  0.41352161  1  0.070948  0  0.090658  0.089809  0  1.052636  0
H  H51  1  0.11770534  0.56778225  0.08646837  1  0.076207  0  0.090537  0.08845  0  1.054456  0
H  H52  1  0.29585188  0.58646394  0.43219100  1  0.074958  0  0.091684  0.092478  0  1.051132  0
H  H53  1  0.31450960  0.91352726  0.06781383  1  0.068794  0  0.091106  0.091401  0  1.052149  0
H  H54  1  0.22802232  0.06779944  0.58647949  1  0.070956  0  0.090678  0.089814  0  1.052668  0
H  H55  1  0.88229562  0.43221723  0.91353153  1  0.076111  0  0.090528  0.088403  0  1.054509  0
H  H56  1  0.68309938  0.45062835  0.71224166  1  0.065103  0  0.093405  0.093825  0  1.031154  0
H  H57  1  0.84597150  0.04937058  0.78776022  1  0.056292  0  0.093861  0.094127  0  1.03  0
H  H58  1  0.89533986  0.78777184  0.45063021  1  0.060668  0  0.09339  0.092488  0  1.031005  0
H  H59  1  0.13371949  0.71222578  0.04939007  1  0.053848  0  0.093375  0.092659  0  1.0307  0
H  H60  1  0.31690040  0.54937180  0.28775763  1  0.065105  0  0.093381  0.093792  0  1.031175  0
H  H61  1  0.15402690  0.95062957  0.21224117  1  0.056285  0  0.093856  0.094126  0  1.029987  0
H  H62  1  0.10466008  0.21222763  0.54936998  1  0.060673  0  0.093387  0.092459  0  1.031046  0
H  H63  1  0.86628071  0.28777436  0.95060952  1  0.053839  0  0.093376  0.092638  0  1.030705  0
H  H64  1  0.87523540  0.60980175  0.21250437  1  0.08783  0  0.101393  0.104879  0  1.006845  0
H  H65  1  0.69753852  0.89018953  0.28748708  1  0.096375  0  0.101352  0.104262  0  1.007302  0
H  H66  1  0.58770341  0.28750038  0.60982711  1  0.081145  0  0.101279  0.104596  0  1.00788  0
H  H67  1  0.48502858  0.21250240  0.89018594  1  0.095644  0  0.101491  0.104286  0  1.007914  0
H  H68  1  0.12476308  0.39019773  0.78749580  1  0.087838  0  0.101405  0.104872  0  1.006869  0
H  H69  1  0.30246023  0.10981061  0.71251250  1  0.096393  0  0.101352  0.104276  0  1.007301  0
H  H70  1  0.41229524  0.71249909  0.39017216  1  0.081153  0  0.101251  0.104547  0  1.007814  0
H  H71  1  0.51496847  0.78749909  0.10981393  1  0.095688  0  0.101482  0.104278  0  1.007915  0
H  H72  1  0.42330168  0.34865706  0.50916578  1  0.088565  0  0.098625  0.107563  0  1.044091  0
H  H73  1  0.28112212  0.15134171  0.99083127  1  0.082854  0  0.098766  0.107873  0  1.045821  0
H  H74  1  0.43248071  0.99082842  0.34866845  1  0.077081  0  0.09862  0.107764  0  1.04441  0
H  H75  1  0.77196643  0.50917964  0.15133799  1  0.0737  0  0.098391  0.107549  0  1.045677  0
H  H76  1  0.57669893  0.65134108  0.49083441  1  0.088725  0  0.098617  0.107541  0  1.0441  0
H  H77  1  0.71887849  0.84865642  0.00916892  1  0.082849  0  0.098774  0.107903  0  1.045839  0
H  H78  1  0.56751770  0.00917172  0.65133293  1  0.077088  0  0.098613  0.107766  0  1.044393  0
H  H79  1  0.22803147  0.49082117  0.84866430  1  0.073735  0  0.098387  0.107546  0  1.045642  0
H  H80  1  0.15342689  0.33064895  0.92800025  1  0.068938  0  0.099275  0.102036  0  1.012634  0
H  H81  1  0.41206203  0.16936198  0.57199355  1  0.06194  0  0.098665  0.100965  0  1.013063  0
H  H82  1  0.58145803  0.57198032  0.33063821  1  0.070561  0  0.099377  0.101433  0  1.012317  0
H  H83  1  0.48404293  0.92801979  0.16937532  1  0.056353  0  0.098982  0.101687  0  1.012204  0
H  H84  1  0.84657261  0.66935052  0.07199963  1  0.068936  0  0.099278  0.102054  0  1.012632  0
H  H85  1  0.58793655  0.83063816  0.42800693  1  0.061927  0  0.098673  0.101009  0  1.013058  0
H  H86  1  0.41854079  0.42801848  0.66936197  1  0.070606  0  0.099369  0.10143  0  1.012298  0
H  H87  1  0.51595624  0.07198036  0.83062456  1  0.056347  0  0.098984  0.101689  0  1.012231  0
H  H88  1  0.53160573  0.31618872  0.34377046  1  0.097352  0  0.119464  0.091628  0  0.98865  0
H  H89  1  0.19156640  0.18383227  0.15621778  1  0.095534  0  0.118858  0.09199  0  0.98942  0
H  H90  1  0.37538985  0.15622037  0.31618070  1  0.094297  0  0.118941  0.091212  0  0.988083  0
H  H91  1  0.84779151  0.34378915  0.18382036  1  0.097054  0  0.119193  0.092583  0  0.988175  0
H  H92  1  0.46839488  0.68380941  0.65622973  1  0.097346  0  0.119457  0.091617  0  0.98864  0
H  H93  1  0.80843497  0.81616519  0.84378272  1  0.095398  0  0.118861  0.092004  0  0.989406  0
H  H94  1  0.62460898  0.84377978  0.68382100  1  0.094282  0  0.118929  0.091178  0  0.988043  0
H  H95  1  0.15220768  0.65621167  0.81618284  1  0.097081  0  0.119189  0.092597  0  0.988187  0
C  C96  1  0.95902952  0.38640458  0.50797379  1  0.381326  0  0.086172  0.140592  0  4.06376  0
C  C97  1  0.85339807  0.11361293  0.99203814  1  0.420536  0  0.084303  0.138794  0  4.059075  0
C  C98  1  0.96700996  0.99202397  0.38640116  1  0.370513  0  0.087424  0.144132  0  4.058925  0
C  C99  1  0.34544520  0.50797009  0.11359085  1  0.373375  0  0.088262  0.145426  0  4.059782  0
C  C100  1  0.04097068  0.61359557  0.49202581  1  0.38126  0  0.08618  0.140601  0  4.063797  0
C  C101  1  0.14660120  0.88638789  0.00796205  1  0.420429  0  0.08434  0.138788  0  4.059162  0
C  C102  1  0.03299007  0.00797618  0.61359934  1  0.370527  0  0.087427  0.144147  0  4.058905  0
C  C103  1  0.65455500  0.49203006  0.88640875  1  0.3734  0  0.088234  0.145406  0  4.05975  0
C  C104  1  0.11492727  0.37879136  0.48981077  1  0.978007  0  0.229946  0.334096  0  4.012087  0
C  C105  1  0.98352374  0.12121146  0.01020879  1  0.968052  0  0.227799  0.331436  0  4.013622  0
C  C106  1  0.10474681  0.01018243  0.37879293  1  0.95534  0  0.228843  0.331794  0  4.009668  0
C  C107  1  0.49373841  0.48979831  0.12120112  1  0.985797  0  0.229303  0.33203  0  4.010715  0
C  C108  1  0.88507191  0.62120878  0.51018912  1  0.977923  0  0.229907  0.334049  0  4.012088  0
C  C109  1  0.01647519  0.87879003  0.98979140  1  0.968065  0  0.227779  0.331382  0  4.013661  0
C  C110  1  0.89525279  0.98981771  0.62120727  1  0.955349  0  0.228843  0.331791  0  4.009608  0
C  C111  1  0.50626212  0.51020117  0.87879847  1  0.98579  0  0.229251  0.331944  0  4.010714  0
C  C112  1  0.22820225  0.36299269  0.45133657  1  -0.007704  0  -0.020604  -0.162018  0  3.990454  0
C  C113  1  0.04253948  0.13700328  0.04866410  1  0.042441  0  -0.019574  -0.159346  0  3.995042  0
C  C114  1  0.17955731  0.04864986  0.36299372  1  0.050188  0  -0.020453  -0.159998  0  3.99206  0
C  C115  1  0.59120405  0.45134335  0.13700574  1  -0.000978  0  -0.022072  -0.164654  0  3.991887  0
C  C116  1  0.77179719  0.63700813  0.54866272  1  -0.007581  0  -0.020587  -0.161997  0  3.990453  0
C  C117  1  0.95745979  0.86299754  0.95133609  1  0.042428  0  -0.019572  -0.159395  0  3.995118  0
C  C118  1  0.82044263  0.95134961  0.63700647  1  0.050125  0  -0.020463  -0.160017  0  3.99209  0
C  C119  1  0.40879649  0.54865612  0.86299386  1  -0.000986  0  -0.022108  -0.164639  0  3.991932  0
C  C120  1  0.94474221  0.41189613  0.58996597  1  0.328708  0  0.095062  0.151301  0  4.01571  0
C  C121  1  0.94659230  0.08812228  0.91004497  1  0.327162  0  0.093359  0.149847  0  4.016058  0
C  C122  1  0.03471106  0.91003161  0.41188721  1  0.331979  0  0.093657  0.149459  0  4.016112  0
C  C123  1  0.35663432  0.58996617  0.08812033  1  0.319009  0  0.095553  0.152976  0  4.013763  0
C  C124  1  0.05525765  0.58810468  0.41003363  1  0.328712  0  0.095051  0.151301  0  4.015741  0
C  C125  1  0.05340620  0.91187921  0.08995491  1  0.327247  0  0.093381  0.1499  0  4.016158  0
C  C126  1  0.96528828  0.08996787  0.58811358  1  0.331721  0  0.093642  0.149428  0  4.016089  0
C  C127  1  0.64336579  0.41003331  0.91187896  1  0.319  0  0.095563  0.153028  0  4.013761  0
C  C128  1  0.03770697  0.45473402  0.00179482  1  -0.006354  0  -0.00567  0.074064  0  4.008573  0
C  C129  1  0.49423087  0.04526923  0.49819818  1  -0.013573  0  -0.005585  0.073257  0  4.007714  0
C  C130  1  0.53949956  0.49819944  0.45473036  1  -0.012505  0  -0.005041  0.074027  0  4.006901  0
C  C131  1  0.49241502  0.00180643  0.04527368  1  -0.022823  0  -0.005854  0.071584  0  4.008911  0
C  C132  1  0.96229092  0.54526545  0.99820596  1  -0.04292  0  -0.005726  0.073965  0  4.008617  0
C  C133  1  0.50576814  0.95473092  0.50180261  1  -0.062021  0  -0.005602  0.073282  0  4.007658  0
C  C134  1  0.46049952  0.50180003  0.54526922  1  -0.045886  0  -0.005082  0.074026  0  4.006848  0
C  C135  1  0.50758578  0.99819372  0.95472532  1  0.029109  0  -0.005882  0.071565  0  4.008895  0
C  C136  1  0.84647355  0.43447911  0.66546067  1  0.016288  0  -0.095428  -0.156736  0  3.969449  0
C  C137  1  0.94640780  0.06552776  0.83455348  1  0.005314  0  -0.092922  -0.153353  0  3.967476  0
C  C138  1  0.01192284  0.83455025  0.43447766  1  0.023019  0  -0.097318  -0.160164  0  3.971213  0
C  C139  1  0.28093817  0.66544874  0.06553584  1  0.047145  0  -0.096362  -0.161133  0  3.970979  0
C  C140  1  0.15352656  0.56552037  0.33453862  1  0.016229  0  -0.095488  -0.15685  0  3.969411  0
C  C141  1  0.05359137  0.93447238  0.16544641  1  0.005311  0  -0.092949  -0.153333  0  3.967488  0
C  C142  1  0.98807710  0.16544923  0.56552253  1  0.023091  0  -0.097304  -0.160117  0  3.97111  0
C  C143  1  0.71906186  0.33455141  0.93446466  1  0.047185  0  -0.09637  -0.161167  0  3.970957  0
C  C144  1  0.99465458  0.47899214  0.15616066  1  -0.065615  0  -0.020034  -0.037702  0  3.992465  0
C  C145  1  0.62980560  0.02100712  0.34383309  1  -0.015607  0  -0.019907  -0.039029  0  3.990133  0
C  C146  1  0.65079608  0.34383964  0.47900796  1  -0.014064  0  -0.019166  -0.035148  0  3.987754  0
C  C147  1  0.47362372  0.15616975  0.02100552  1  -0.068207  0  -0.018352  -0.035381  0  3.987281  0
C  C148  1  0.00534391  0.52100734  0.84383951  1  -0.065699  0  -0.020096  -0.037704  0  3.99248  0
C  C149  1  0.37019314  0.97899302  0.65616649  1  -0.015543  0  -0.019902  -0.03906  0  3.990184  0
C  C150  1  0.34920300  0.65615984  0.52099162  1  -0.014068  0  -0.019159  -0.035082  0  3.987666  0
C  C151  1  0.52637545  0.84383039  0.97899436  1  -0.068156  0  -0.018317  -0.035299  0  3.987213  0
C  C152  1  0.01628873  0.44691072  0.23866801  1  1.613118  0  0.210769  0.583121  0  4.204897  0
C  C153  1  0.70186307  0.05309151  0.26133372  1  1.58127  0  0.211861  0.58559  0  4.204601  0
C  C154  1  0.75493110  0.26132961  0.44692973  1  1.591212  0  0.212878  0.584764  0  4.202889  0
C  C155  1  0.46318060  0.23866718  0.05309067  1  1.588249  0  0.211924  0.588973  0  4.199294  0
C  C156  1  0.98371181  0.55308875  0.76133159  1  1.613114  0  0.210807  0.583138  0  4.204976  0
C  C157  1  0.29813594  0.94690864  0.73866707  1  1.581307  0  0.211833  0.585632  0  4.204633  0
C  C158  1  0.24506798  0.73866986  0.55306985  1  1.591264  0  0.212874  0.584764  0  4.202875  0
C  C159  1  0.53681960  0.76133296  0.94690893  1  1.588293  0  0.21192  0.588956  0  4.199274  0
C  C160  1  0.27652562  0.36365471  0.50478742  1  -0.025703  0  -0.064768  -0.033934  0  3.957416  0
C  C161  1  0.14497127  0.13634494  0.99521019  1  -0.02926  0  -0.063047  -0.032832  0  3.961125  0
C  C162  1  0.28133436  0.99519449  0.36365192  1  -0.045355  0  -0.062795  -0.032484  0  3.957759  0
C  C163  1  0.64019788  0.50479232  0.13632914  1  -0.018837  0  -0.061873  -0.030231  0  3.95462  0
C  C164  1  0.72347389  0.63634476  0.49521247  1  -0.025724  0  -0.064766  -0.033964  0  3.957489  0
C  C165  1  0.85502833  0.86365521  0.00479000  1  -0.029256  0  -0.062997  -0.032771  0  3.961093  0
C  C166  1  0.71866618  0.00480499  0.63634767  1  -0.045315  0  -0.062782  -0.032411  0  3.957727  0
C  C167  1  0.35980112  0.49520782  0.86367165  1  -0.018842  0  -0.061814  -0.030241  0  3.954693  0
C  C168  1  0.87253731  0.38718618  0.49787532  1  -0.021734  0  -0.0931  -0.155865  0  3.969537  0
C  C169  1  0.75758609  0.11283855  0.00213097  1  -0.022507  0  -0.093411  -0.158055  0  3.969263  0
C  C170  1  0.87042483  0.00213154  0.38717351  1  0.01958  0  -0.092384  -0.157308  0  3.967411  0
C  C171  1  0.25973778  0.49785769  0.11282958  1  0.002909  0  -0.09283  -0.156862  0  3.971554  0
C  C172  1  0.12746289  0.61281397  0.50212427  1  -0.021665  0  -0.093039  -0.155759  0  3.969507  0
C  C173  1  0.24241258  0.88716226  0.99786982  1  -0.022387  0  -0.093466  -0.158193  0  3.969341  0
C  C174  1  0.12957563  0.99786861  0.61282730  1  0.01957  0  -0.092433  -0.157432  0  3.967444  0
C  C175  1  0.74026225  0.50214246  0.88717092  1  0.002885  0  -0.092822  -0.156884  0  3.971575  0
C  C176  1  0.05220610  0.42369602  0.08191815  1  -0.042697  0  -0.076927  -0.132417  0  3.924221  0
C  C177  1  0.55780051  0.07631016  0.41806516  1  -0.034971  0  -0.078273  -0.1326  0  3.9231  0
C  C178  1  0.63412238  0.41807710  0.42370577  1  -0.04213  0  -0.078183  -0.134205  0  3.921851  0
C  C179  1  0.47585810  0.08193640  0.07630970  1  -0.042881  0  -0.076713  -0.130985  0  3.920704  0
C  C180  1  0.94779315  0.57630279  0.91808234  1  -0.042682  0  -0.076904  -0.132414  0  3.924225  0
C  C181  1  0.44219807  0.92368999  0.58193532  1  -0.034985  0  -0.078249  -0.132543  0  3.923139  0
C  C182  1  0.36587713  0.58192238  0.57629412  1  -0.042144  0  -0.07822  -0.134348  0  3.921919  0
C  C183  1  0.52414073  0.91806442  0.92369018  1  -0.042951  0  -0.076739  -0.131031  0  3.920712  0
C  C184  1  0.77380738  0.41135286  0.57279964  1  -0.040808  0  -0.10435  -0.102498  0  4.032836  0
C  C185  1  0.75795309  0.08866552  0.92720375  1  -0.087995  0  -0.101969  -0.097802  0  4.033788  0
C  C186  1  0.84661352  0.92720963  0.41133812  1  -0.072352  0  -0.102845  -0.098437  0  4.032541  0
C  C187  1  0.18516732  0.57277724  0.08866394  1  -0.105404  0  -0.103316  -0.099304  0  4.03351  0
C  C188  1  0.22619239  0.58864729  0.42719965  1  -0.040829  0  -0.104352  -0.102471  0  4.032818  0
C  C189  1  0.24204592  0.91133463  0.07279704  1  -0.090979  0  -0.101957  -0.097714  0  4.033793  0
C  C190  1  0.15338591  0.07279052  0.58866298  1  -0.072364  0  -0.102826  -0.098348  0  4.032514  0
C  C191  1  0.81483229  0.42722291  0.91133625  1  -0.105298  0  -0.103315  -0.099267  0  4.0336  0
C  C192  1  0.76156520  0.43324752  0.65524390  1  -0.076346  0  -0.099197  -0.082437  0  4.014944  0
C  C193  1  0.85005166  0.06676102  0.84476470  1  -0.043453  0  -0.100697  -0.08447  0  4.015969  0
C  C194  1  0.91681099  0.84476216  0.43323097  1  -0.065931  0  -0.098338  -0.078534  0  4.013819  0
C  C195  1  0.19480454  0.65522361  0.06676495  1  -0.042672  0  -0.09963  -0.078494  0  4.01313  0
C  C196  1  0.23843354  0.56675263  0.34475568  1  -0.076283  0  -0.099154  -0.082345  0  4.014927  0
C  C197  1  0.14994599  0.93323980  0.15523638  1  -0.043279  0  -0.100668  -0.084506  0  4.015964  0
C  C198  1  0.08318905  0.15523799  0.56676953  1  -0.065993  0  -0.098305  -0.0785  0  4.013776  0
C  C199  1  0.80519642  0.34477587  0.93323495  1  -0.042686  0  -0.099627  -0.078419  0  4.013078  0
C  C200  1  0.91888945  0.56807641  0.15288669  1  -0.105529  0  -0.088817  -0.105959  0  4.020375  0
C  C201  1  0.63983609  0.93192770  0.34710422  1  -0.112187  0  -0.089037  -0.106315  0  4.019231  0
C  C202  1  0.57174967  0.34711812  0.56809050  1  -0.109408  0  -0.089866  -0.109317  0  4.021133  0
C  C203  1  0.48694468  0.15288541  0.93192024  1  -0.055381  0  -0.090437  -0.108628  0  4.019833  0
C  C204  1  0.08110904  0.43192307  0.84711349  1  -0.105482  0  -0.088741  -0.105872  0  4.020298  0
C  C205  1  0.36016368  0.06807245  0.65289507  1  -0.112129  0  -0.089061  -0.106395  0  4.019298  0
C  C206  1  0.42824915  0.65288068  0.43190967  1  -0.109401  0  -0.089855  -0.109284  0  4.021042  0
C  C207  1  0.51305390  0.84711474  0.06808025  1  -0.05553  0  -0.090431  -0.108643  0  4.019797  0
C  C208  1  0.38556994  0.34770440  0.46796668  1  -0.04714  0  -0.109292  -0.184619  0  4.038277  0
C  C209  1  0.20124912  0.15228916  0.03203137  1  -0.031147  0  -0.111259  -0.187289  0  4.042967  0
C  C210  1  0.35355682  0.03201805  0.34771489  1  -0.013113  0  -0.111213  -0.186475  0  4.039155  0
C  C211  1  0.73329487  0.46797276  0.15227998  1  -0.003062  0  -0.110891  -0.185392  0  4.04195  0
C  C212  1  0.61443060  0.65229508  0.53203291  1  -0.047642  0  -0.109304  -0.184611  0  4.038334  0
C  C213  1  0.79875082  0.84771031  0.96796882  1  -0.031166  0  -0.111285  -0.187358  0  4.04302  0
C  C214  1  0.64644261  0.96798210  0.65228621  1  -0.013085  0  -0.111205  -0.186505  0  4.039175  0
C  C215  1  0.26670499  0.53202738  0.84772143  1  -0.003092  0  -0.1109  -0.185374  0  4.041951  0
C  C216  1  0.09648572  0.39943490  0.92442178  1  0.005337  0  -0.090939  -0.136288  0  3.996426  0
C  C217  1  0.42034678  0.10056691  0.57557848  1  -0.004048  0  -0.090091  -0.133493  0  3.994604  0
C  C218  1  0.52092528  0.57556607  0.39942287  1  -0.016927  0  -0.090808  -0.133794  0  3.99402  0
C  C219  1  0.49590004  0.92443565  0.10058009  1  -0.044387  0  -0.090608  -0.134179  0  3.994727  0
C  C220  1  0.90351276  0.60056457  0.07557839  1  0.005331  0  -0.090902  -0.136258  0  3.996478  0
C  C221  1  0.57965230  0.89943257  0.42442110  1  -0.00393  0  -0.090131  -0.133633  0  3.994614  0
C  C222  1  0.47907380  0.42443341  0.60057671  1  -0.016969  0  -0.090796  -0.133773  0  3.993962  0
C  C223  1  0.50409811  0.07556450  0.89942009  1  -0.044415  0  -0.090618  -0.134202  0  3.994727  0
C  C224  1  0.29444537  0.34780297  0.35663425  1  1.23517  0  0.206236  0.440377  0  4.131546  0
C  C225  1  0.99889505  0.15219073  0.14336350  1  1.221427  0  0.206714  0.437743  0  4.14031  0
C  C226  1  0.15110021  0.14335065  0.34780702  1  1.214142  0  0.208739  0.441982  0  4.131953  0
C  C227  1  0.64226336  0.35664445  0.15218514  1  1.229907  0  0.207696  0.443249  0  4.134175  0
C  C228  1  0.70555483  0.65219718  0.64336534  1  1.23512  0  0.206238  0.440358  0  4.13148  0
C  C229  1  0.00110421  0.84781008  0.85663669  1  1.221554  0  0.206679  0.437804  0  4.140325  0
C  C230  1  0.84889880  0.85664950  0.65219377  1  1.214142  0  0.208677  0.441867  0  4.132074  0
C  C231  1  0.35773667  0.64335569  0.84781536  1  1.229916  0  0.207702  0.443242  0  4.13421  0
C  C232  1  0.44563801  0.33092094  0.37644837  1  0.481164  0  0.050746  0.129737  0  3.974992  0
C  C233  1  0.15301833  0.16907524  0.12355146  1  0.513672  0  0.050149  0.127445  0  3.980785  0
C  C234  1  0.32210986  0.12353400  0.33092109  1  0.512351  0  0.050209  0.128346  0  3.973107  0
C  C235  1  0.77656506  0.37645674  0.16907992  1  0.479743  0  0.048475  0.122338  0  3.979614  0
C  C236  1  0.55436260  0.66907719  0.62355182  1  0.481452  0  0.050774  0.129753  0  3.974971  0
C  C237  1  0.84698194  0.83092357  0.87644873  1  0.513816  0  0.050182  0.127485  0  3.980789  0
C  C238  1  0.67788957  0.87646614  0.66908000  1  0.512343  0  0.050234  0.12839  0  3.97307  0
C  C239  1  0.22343421  0.62354341  0.83092208  1  0.479344  0  0.048471  0.122313  0  3.979673  0
N  N240  1  0.04352580  0.40729629  0.57591898  1  -1.259857  0  -0.373131  -0.31968  0  3.540404  0
N  N241  1  0.02672202  0.09271603  0.92410187  1  -1.277933  0  -0.374125  -0.319409  0  3.543591  0
N  N242  1  0.11945053  0.92407106  0.40729202  1  -1.267016  0  -0.37353  -0.319052  0  3.543184  0
N  N243  1  0.45082808  0.57591298  0.09270763  1  -1.28199  0  -0.375238  -0.319698  0  3.539625  0
N  N244  1  0.95647440  0.59270386  0.42408062  1  -1.259835  0  -0.373145  -0.319687  0  3.540433  0
N  N245  1  0.97327682  0.90728479  0.07589802  1  -1.277964  0  -0.374108  -0.319363  0  3.543702  0
N  N246  1  0.88054924  0.07592909  0.59270727  1  -1.266786  0  -0.373497  -0.319007  0  3.543102  0
N  N247  1  0.54917186  0.42408649  0.90729256  1  -1.281997  0  -0.375202  -0.319699  0  3.539568  0
N  N248  1  0.40113811  0.33104873  0.32336509  1  -1.289113  0  -0.354811  -0.370691  0  3.536522  0
N  N249  1  0.05556453  0.16894420  0.17662990  1  -1.294799  0  -0.352637  -0.36692  0  3.543739  0
N  N250  1  0.22451529  0.17662207  0.33106815  1  -1.295826  0  -0.35502  -0.370843  0  3.538695  0
N  N251  1  0.73219396  0.32337616  0.16894786  1  -1.283133  0  -0.352144  -0.365713  0  3.54134  0
N  N252  1  0.59886209  0.66895142  0.67663451  1  -1.289067  0  -0.354806  -0.370658  0  3.536491  0
N  N253  1  0.94443541  0.83105528  0.82337029  1  -1.2949  0  -0.352661  -0.366956  0  3.54374  0
N  N254  1  0.77548448  0.82337740  0.66893294  1  -1.295848  0  -0.355032  -0.370809  0  3.538736  0
N  N255  1  0.26780574  0.67662466  0.83105264  1  -1.282742  0  -0.352146  -0.365696  0  3.541374  0
N  N256  1  0.06579694  0.36488865  0.44792895  1  -1.21552  0  -0.361263  -0.407199  0  3.531213  0
N  N257  1  0.87859856  0.13514454  0.05207811  1  -1.219334  0  -0.35916  -0.405555  0  3.528094  0
N  N258  1  0.01373476  0.05206177  0.36488366  1  -1.209734  0  -0.361311  -0.407876  0  3.527453  0
N  N259  1  0.43068325  0.44792720  0.13512360  1  -1.223966  0  -0.360973  -0.407384  0  3.526716  0
N  N260  1  0.93420250  0.63511216  0.55207033  1  -1.215496  0  -0.361252  -0.407203  0  3.531279  0
N  N261  1  0.12140071  0.86485628  0.94792208  1  -1.219318  0  -0.359169  -0.405483  0  3.528094  0
N  N262  1  0.98626484  0.94793838  0.63511653  1  -1.209748  0  -0.361308  -0.407862  0  3.527431  0
N  N263  1  0.56931626  0.55207227  0.86487629  1  -1.223972  0  -0.360974  -0.407412  0  3.526879  0
O  O264  1  0.09334662  0.36755548  0.23152970  1  -1.177971  0  -0.330618  -0.545908  0  2.352857  0
O  O265  1  0.69242186  0.13244705  0.26848461  1  -1.164739  0  -0.33088  -0.546169  0  2.352003  0
O  O266  1  0.82486729  0.26847407  0.36758368  1  -1.171564  0  -0.331633  -0.54691  0  2.352806  0
O  O267  1  0.46093329  0.23151028  0.13243793  1  -1.166043  0  -0.330611  -0.547871  0  2.352272  0
O  O268  1  0.90665348  0.63244400  0.76846959  1  -1.177951  0  -0.330621  -0.545926  0  2.352928  0
O  O269  1  0.30757791  0.86755310  0.73151468  1  -1.164794  0  -0.330883  -0.546221  0  2.352021  0
O  O270  1  0.17513188  0.73152608  0.63241621  1  -1.171535  0  -0.331627  -0.54692  0  2.352802  0
O  O271  1  0.53906870  0.76848920  0.86756168  1  -1.166049  0  -0.330616  -0.547883  0  2.352272  0
O  O272  1  0.96155295  0.49697189  0.30623459  1  -1.210114  0  -0.321348  -0.567283  0  2.195547  0
O  O273  1  0.76478959  0.00301875  0.19378275  1  -1.212536  0  -0.321201  -0.568044  0  2.197862  0
O  O274  1  0.76776466  0.19377593  0.49700415  1  -1.209201  0  -0.321803  -0.567374  0  2.195787  0
O  O275  1  0.45853473  0.30621948  0.00301778  1  -1.21091  0  -0.32181  -0.570452  0  2.19474  0
O  O276  1  0.03844802  0.50302758  0.69376531  1  -1.210129  0  -0.321371  -0.567301  0  2.195557  0
O  O277  1  0.23520968  0.99698206  0.80621744  1  -1.212554  0  -0.321187  -0.568057  0  2.197869  0
O  O278  1  0.23223451  0.80622422  0.50299573  1  -1.209209  0  -0.321808  -0.567376  0  2.195765  0
O  O279  1  0.54146488  0.69378067  0.99698241  1  -1.210944  0  -0.321795  -0.570414  0  2.194702  0
O  O280  1  0.26336674  0.34936542  0.29617401  1  -1.177293  0  -0.323321  -0.546682  0  2.392602  0
O  O281  1  0.90893152  0.15060949  0.20383255  1  -1.181277  0  -0.323659  -0.544452  0  2.395615  0
O  O282  1  0.05953669  0.20381028  0.34940458  1  -1.178944  0  -0.324  -0.546269  0  2.392856  0
O  O283  1  0.61273486  0.29619153  0.15063643  1  -1.174431  0  -0.323897  -0.546981  0  2.392426  0
O  O284  1  0.73663380  0.65063406  0.70382559  1  -1.177281  0  -0.323334  -0.546666  0  2.392501  0
O  O285  1  0.09106775  0.84939133  0.79616764  1  -1.181285  0  -0.323658  -0.544513  0  2.395603  0
O  O286  1  0.94046291  0.79618987  0.65059561  1  -1.17893  0  -0.323973  -0.546238  0  2.392923  0
O  O287  1  0.38726594  0.70380795  0.84936438  1  -1.174437  0  -0.323895  -0.546987  0  2.392451  0
