# generated using pymatgen
data_AlH7C9O5
_symmetry_space_group_name_H-M   'P 1'
_cell_length_a   6.65680111
_cell_length_b   12.84926096
_cell_length_c   16.87958410
_cell_angle_alpha   90.01290997
_cell_angle_beta   90.78398323
_cell_angle_gamma   90.41964173
_symmetry_Int_Tables_number   1
_chemical_formula_structural   AlH7C9O5
_chemical_formula_sum   'Al4 H28 C36 O20'
_cell_volume   1443.62084390
_cell_formula_units_Z   4
loop_
 _symmetry_equiv_pos_site_id
 _symmetry_equiv_pos_as_xyz
  1  'x, y, z'
loop_
 _atom_site_type_symbol
 _atom_site_label
 _atom_site_symmetry_multiplicity
 _atom_site_fract_x
 _atom_site_fract_y
 _atom_site_fract_z
 _atom_site_occupancy
 _atom_site_pbe_bader_charge
 _atom_site_pbe_bader_spin_density
 _atom_site_pbe_cm5_charge
 _atom_site_pbe_ddec_charge
 _atom_site_pbe_ddec_spin_density
 _atom_site_pbe_ddec_sum_bond_order
 _atom_site_pbe_magmom
Al  Al0  1  0.99310537  0.00641159  0.50338877  1  2.501961  0  0.398703  1.64184  0  2.583647  0
Al  Al1  1  0.49305130  0.00811941  0.50110707  1  2.498233  0  0.397318  1.642234  0  2.591583  0
Al  Al2  1  0.00790267  0.50924396  0.00169865  1  2.500176  0  0.398856  1.638832  0  2.576449  0
Al  Al3  1  0.50759656  0.50468228  0.00238317  1  2.50011  0  0.397539  1.641638  0  2.58497  0
H  H4  1  0.24428353  0.87618997  0.53063806  1  0.622656  0  0.347793  0.422278  0  0.874788  0
H  H5  1  0.74695853  0.14042448  0.52469371  1  0.632161  0  0.35572  0.432841  0  0.849342  0
H  H6  1  0.26616643  0.63368322  0.03884831  1  0.620503  0  0.350675  0.427313  0  0.862032  0
H  H7  1  0.76457725  0.37772720  0.03322214  1  0.597694  0  0.35077  0.427213  0  0.858728  0
H  H8  1  0.04430053  0.75767140  0.84381309  1  0.123404  0  0.111545  0.11876  0  0.989843  0
H  H9  1  0.44780294  0.64843258  0.78965080  1  0.099225  0  0.110737  0.120698  0  1.000588  0
H  H10  1  0.03105050  0.87010846  0.72216892  1  0.072553  0  0.107111  0.108168  0  1.00887  0
H  H11  1  0.55098348  0.35728984  0.22243489  1  0.088608  0  0.108732  0.115102  0  0.995588  0
H  H12  1  0.96371864  0.25083815  0.15039888  1  0.074677  0  0.104239  0.1085  0  1.009414  0
H  H13  1  0.53051871  0.24398961  0.34305198  1  0.085892  0  0.109779  0.113321  0  1.001627  0
H  H14  1  0.95294463  0.37053593  0.77863919  1  0.067702  0  0.111379  0.119187  0  0.990907  0
H  H15  1  0.53462652  0.25989757  0.84930017  1  0.100954  0  0.109549  0.118925  0  1.000094  0
H  H16  1  0.96482787  0.25710623  0.65790132  1  0.074466  0  0.105544  0.104792  0  1.006754  0
H  H17  1  0.05167886  0.64808259  0.22990469  1  0.105133  0  0.108852  0.114852  0  0.994038  0
H  H18  1  0.47182949  0.75558639  0.15325699  1  0.08098  0  0.104492  0.108462  0  1.010955  0
H  H19  1  0.02812507  0.76125577  0.35061635  1  0.094623  0  0.109634  0.113194  0  0.999448  0
H  H20  1  0.29721828  0.82354921  0.65330439  1  0.070401  0  0.097487  0.134659  0  1.022863  0
H  H21  1  0.41369764  0.73114522  0.59212152  1  0.062407  0  0.097764  0.13717  0  0.985631  0
H  H22  1  0.27850716  0.68922727  0.67713111  1  0.029104  0  0.092092  0.128564  0  1.001622  0
H  H23  1  0.79358798  0.12239465  0.21465722  1  0.048994  0  0.088508  0.121737  0  1.006365  0
H  H24  1  0.93664623  0.03167147  0.27138244  1  0.066018  0  0.096237  0.138733  0  0.997714  0
H  H25  1  0.80646055  0.13037667  0.32028307  1  0.095932  0  0.100642  0.148539  0  1.005419  0
H  H26  1  0.68821666  0.12467554  0.78805955  1  0.033296  0  0.091231  0.126238  0  0.999189  0
H  H27  1  0.54607665  0.03956564  0.72517106  1  0.041818  0  0.094999  0.13713  0  0.998719  0
H  H28  1  0.69026623  0.13952836  0.68323305  1  0.056364  0  0.096032  0.137873  0  1.015031  0
H  H29  1  0.30656753  0.87461080  0.32077090  1  0.093472  0  0.100169  0.14884  0  1.003581  0
H  H30  1  0.44435889  0.97409530  0.27506338  1  0.019585  0  0.096671  0.139887  0  1.000658  0
H  H31  1  0.30397238  0.88453856  0.21518841  1  0.055106  0  0.088295  0.121945  0  1.005301  0
C  C32  1  0.73793517  0.88593199  0.39289978  1  1.566191  0  0.270945  0.647262  0  4.088253  0
C  C33  1  0.74302210  0.88671901  0.61427324  1  1.559176  0  0.267569  0.648707  0  4.087679  0
C  C34  1  0.24974849  0.13052019  0.61217558  1  1.552593  0  0.268146  0.6535  0  4.076218  0
C  C35  1  0.23862567  0.12152369  0.38864423  1  1.568033  0  0.271015  0.647685  0  4.085832  0
C  C36  1  0.76817541  0.62702835  0.11316011  1  1.548141  0  0.268283  0.64533  0  4.090464  0
C  C37  1  0.74661583  0.62820374  0.89485050  1  1.563639  0  0.271759  0.639152  0  4.091745  0
C  C38  1  0.24383675  0.39059306  0.89169354  1  1.572482  0  0.271453  0.639999  0  4.094851  0
C  C39  1  0.26409263  0.38084127  0.10910837  1  1.561099  0  0.266871  0.641038  0  4.094653  0
C  C40  1  0.73588407  0.81961773  0.68649324  1  -0.023349  0  -0.013209  -0.10906  0  3.918179  0
C  C41  1  0.74558475  0.69650833  0.82335286  1  0.03023  0  -0.009838  -0.028413  0  3.995659  0
C  C42  1  0.56617945  0.75720325  0.70466794  1  -0.02328  0  0.004412  0.166851  0  3.928261  0
C  C43  1  0.91217201  0.75861239  0.80500990  1  -0.095369  0  -0.08261  -0.103035  0  3.985974  0
C  C44  1  0.57556135  0.69729691  0.77372981  1  -0.065349  0  -0.082826  -0.160754  0  3.924496  0
C  C45  1  0.90486131  0.81997540  0.73729288  1  -0.005002  0  -0.080452  -0.085171  0  3.999939  0
C  C46  1  0.23690776  0.18433076  0.31416800  1  -0.030099  0  -0.010957  -0.103997  0  3.913588  0
C  C47  1  0.25642960  0.31137227  0.17984886  1  -0.079064  0  -0.014186  -0.032166  0  3.99993  0
C  C48  1  0.07362605  0.18336921  0.25940423  1  0.027548  0  0.006455  0.168628  0  3.926202  0
C  C49  1  0.41898966  0.30910737  0.23336900  1  0.002547  0  -0.086599  -0.105649  0  3.997753  0
C  C50  1  0.08740389  0.24885114  0.19339597  1  -0.01623  0  -0.084441  -0.160118  0  3.932325  0
C  C51  1  0.40729177  0.24632028  0.30001729  1  -0.03677  0  -0.081274  -0.090739  0  4.008914  0
C  C52  1  0.25501688  0.19444496  0.68614817  1  0.00158  0  -0.013126  -0.105375  0  3.913095  0
C  C53  1  0.24556187  0.32236266  0.82022774  1  -0.02603  0  -0.011529  -0.029678  0  3.998706  0
C  C54  1  0.41884625  0.19232396  0.74067968  1  -0.037837  0  0.004053  0.165418  0  3.928368  0
C  C55  1  0.08210189  0.32152002  0.76710950  1  -0.03866  0  -0.08426  -0.105142  0  3.989519  0
C  C56  1  0.41048195  0.25835639  0.80647882  1  0.00023  0  -0.081554  -0.158849  0  3.926304  0
C  C57  1  0.08900765  0.25828054  0.70055382  1  -0.017863  0  -0.083583  -0.089449  0  4.010572  0
C  C58  1  0.73816221  0.82139013  0.31928227  1  -0.037277  0  -0.011023  -0.105944  0  3.916144  0
C  C59  1  0.76073981  0.69454704  0.18498531  1  -0.024827  0  -0.013511  -0.031454  0  3.997024  0
C  C60  1  0.57764562  0.82247846  0.26325677  1  -0.017127  0  0.006812  0.170989  0  3.925354  0
C  C61  1  0.92037820  0.69620204  0.23989278  1  -0.043104  0  -0.086025  -0.104696  0  3.99314  0
C  C62  1  0.59291746  0.75707965  0.19738129  1  0.005359  0  -0.084906  -0.160583  0  3.934247  0
C  C63  1  0.90701044  0.75889739  0.30659911  1  -0.031545  0  -0.081496  -0.091385  0  4.005197  0
C  C64  1  0.37886724  0.74969631  0.65400091  1  -0.063488  0  -0.237401  -0.41549  0  3.971565  0
C  C65  1  0.89222714  0.11366830  0.26679860  1  -0.122898  0  -0.23955  -0.417246  0  3.957365  0
C  C66  1  0.59543227  0.12051127  0.73392541  1  -0.030867  0  -0.239753  -0.4141  0  3.961593  0
C  C67  1  0.39791032  0.89226686  0.26881929  1  -0.069373  0  -0.240156  -0.420322  0  3.957714  0
O  O68  1  0.90816671  0.90861371  0.42401899  1  -1.259269  0  -0.236707  -0.594836  0  2.357563  0
O  O69  1  0.57556550  0.91357450  0.58347111  1  -1.261931  0  -0.234491  -0.602668  0  2.406454  0
O  O70  1  0.41715889  0.10608351  0.58177618  1  -1.261273  0  -0.235646  -0.598805  0  2.366589  0
O  O71  1  0.07134889  0.09640246  0.41880906  1  -1.259356  0  -0.228992  -0.578423  0  2.369852  0
O  O72  1  0.07701775  0.10614872  0.58359304  1  -1.26208  0  -0.241625  -0.609948  0  2.343987  0
O  O73  1  0.41039146  0.09917690  0.41805874  1  -1.260006  0  -0.235516  -0.597549  0  2.364975  0
O  O74  1  0.56930436  0.91275950  0.42051861  1  -1.257132  0  -0.229206  -0.579665  0  2.372388  0
O  O75  1  0.91556199  0.91297809  0.58840907  1  -1.263671  0  -0.240359  -0.604537  0  2.338673  0
O  O76  1  0.24258577  0.94346469  0.50478117  1  -1.428012  0  -0.449102  -0.987876  0  2.210686  0
O  O77  1  0.74481488  0.07121817  0.50200974  1  -1.4357  0  -0.447332  -0.989397  0  2.206774  0
O  O78  1  0.93906900  0.59135117  0.09386764  1  -1.260011  0  -0.24041  -0.60255  0  2.333882  0
O  O79  1  0.57986165  0.58644703  0.91329746  1  -1.249066  0  -0.230193  -0.578399  0  2.352162  0
O  O80  1  0.40825350  0.40167020  0.93035919  1  -1.265197  0  -0.233977  -0.589861  0  2.350774  0
O  O81  1  0.09942997  0.39827311  0.07202298  1  -1.256951  0  -0.239737  -0.604668  0  2.342462  0
O  O82  1  0.07768274  0.43247004  0.90938143  1  -1.254126  0  -0.230767  -0.579369  0  2.338695  0
O  O83  1  0.43593296  0.41787798  0.09113598  1  -1.257254  0  -0.239008  -0.600806  0  2.343691  0
O  O84  1  0.60261176  0.61046733  0.07615450  1  -1.265827  0  -0.239412  -0.607594  0  2.353943  0
O  O85  1  0.91235342  0.61642938  0.93228652  1  -1.252595  0  -0.233884  -0.586875  0  2.335092  0
O  O86  1  0.26007287  0.57209153  0.00572844  1  -1.425688  0  -0.448051  -0.985653  0  2.188  0
O  O87  1  0.75875487  0.44192271  0.00319146  1  -1.402497  0  -0.448186  -0.98573  0  2.185122  0
