# generated using pymatgen
data_Al4H21C25O21F
_symmetry_space_group_name_H-M   'P 1'
_cell_length_a   6.67408367
_cell_length_b   12.58768156
_cell_length_c   17.48661279
_cell_angle_alpha   89.73979218
_cell_angle_beta   90.39551470
_cell_angle_gamma   89.19306080
_symmetry_Int_Tables_number   1
_chemical_formula_structural   Al4H21C25O21F
_chemical_formula_sum   'Al4 H21 C25 O21 F1'
_cell_volume   1468.87552353
_cell_formula_units_Z   1
loop_
 _symmetry_equiv_pos_site_id
 _symmetry_equiv_pos_as_xyz
  1  'x, y, z'
loop_
 _atom_site_type_symbol
 _atom_site_label
 _atom_site_symmetry_multiplicity
 _atom_site_fract_x
 _atom_site_fract_y
 _atom_site_fract_z
 _atom_site_occupancy
 _atom_site_pbe_bader_charge
 _atom_site_pbe_bader_spin_density
 _atom_site_pbe_cm5_charge
 _atom_site_pbe_ddec_charge
 _atom_site_pbe_ddec_spin_density
 _atom_site_pbe_ddec_sum_bond_order
 _atom_site_pbe_magmom
Al  Al0  1  0.88175033  0.50200029  0.49954922  1  2.504065  0  0.396149  1.647482  0  2.584558  0
Al  Al1  1  0.38219460  0.50195601  0.49832179  1  2.493615  0  0.395833  1.642241  0  2.582612  0
Al  Al2  1  0.37179619  0.99632967  0.00140702  1  2.502873  0  0.396383  1.639548  0  2.574432  0
Al  Al3  1  0.87066747  0.99950066  0.99942625  1  2.50184  0  0.393298  1.639722  0  2.587874  0
H  H4  1  0.42284921  0.20258397  0.18478364  1  0.114286  0  0.114971  0.116534  0  0.9767  0
H  H5  1  0.96644705  0.18775571  0.20698153  1  0.089375  0  0.108656  0.120947  0  0.996176  0
H  H6  1  0.43294971  0.29915851  0.30725804  1  0.070396  0  0.110179  0.104196  0  0.981456  0
H  H7  1  0.97150234  0.30405879  0.29974614  1  0.076812  0  0.109279  0.125496  0  0.995419  0
H  H8  1  0.83164742  0.31528856  0.69038450  1  0.155442  0  0.121759  0.141228  0  0.968836  0
H  H9  1  0.29376689  0.29917820  0.70073717  1  0.105945  0  0.115374  0.131137  0  0.984118  0
H  H10  1  0.27074679  0.19313896  0.79887511  1  0.088842  0  0.117901  0.155933  0  0.990644  0
H  H11  1  0.49730578  0.76074812  0.18548271  1  0.08537  0  0.109137  0.141229  0  1.013857  0
H  H12  1  0.93172554  0.68717293  0.30911521  1  0.122078  0  0.118953  0.130368  0  0.981946  0
H  H13  1  0.47664825  0.73142728  0.30928421  1  0.094278  0  0.108066  0.120288  0  1.012274  0
H  H14  1  0.92756923  0.81497523  0.80327127  1  0.125919  0  0.114443  0.11546  0  0.978206  0
H  H15  1  0.47346018  0.77582861  0.81209166  1  0.081909  0  0.110751  0.125613  0  0.988023  0
H  H16  1  0.93068139  0.68829260  0.69538439  1  0.11227  0  0.111093  0.105667  0  0.981612  0
H  H17  1  0.47309299  0.72270593  0.68784079  1  0.081566  0  0.109385  0.126374  0  0.994008  0
H  H18  1  0.13007346  0.82010222  0.30263137  1  0.071832  0  0.098059  0.093486  0  1.009973  0
H  H19  1  0.02769417  0.94528781  0.27013386  1  0.050105  0  0.100482  0.100872  0  0.984962  0
H  H20  1  0.24345604  0.88959464  0.22399680  1  0.094328  0  0.10993  0.121451  0  1.000672  0
H  H21  1  0.63517967  0.36868713  0.47239037  1  0.621563  0  0.354493  0.430462  0  0.851892  0
H  H22  1  0.13056985  0.63479522  0.52574811  1  0.60298  0  0.35429  0.430685  0  0.852568  0
H  H23  1  0.61366696  0.13009224  0.97104668  1  0.62659  0  0.351998  0.429858  0  0.855667  0
H  H24  1  0.11832779  0.86838094  0.03193520  1  0.639129  0  0.352437  0.431254  0  0.854872  0
C  C25  1  0.62585103  0.62996450  0.39468788  1  1.563071  0  0.255912  0.671758  0  4.123002  0
C  C26  1  0.63180889  0.62477393  0.60533300  1  1.540078  0  0.259971  0.680943  0  4.112561  0
C  C27  1  0.13901589  0.37890840  0.60575313  1  1.56102  0  0.257256  0.669505  0  4.127382  0
C  C28  1  0.13171245  0.38155676  0.39117983  1  1.546741  0  0.260197  0.682017  0  4.112217  0
C  C29  1  0.28078369  0.21804526  0.21372307  1  -0.040469  0  -0.070536  -0.034793  0  3.976523  0
C  C30  1  0.11421176  0.17749466  0.18149474  1  -0.056417  0  -0.080208  -0.217584  0  3.871923  0
C  C31  1  0.28567372  0.28002723  0.28364848  1  -0.017635  0  -0.065968  -0.014714  0  3.979522  0
C  C32  1  0.12304371  0.31750256  0.32097300  1  -0.030076  0  -0.088565  -0.242144  0  3.889354  0
C  C33  1  0.97598484  0.29136574  0.71551117  1  -0.074488  0  -0.072139  -0.135595  0  3.976092  0
C  C34  1  0.14438237  0.31824075  0.67852348  1  0.006057  0  -0.075109  -0.191082  0  3.862956  0
C  C35  1  0.96793251  0.23281806  0.78707019  1  0.386779  0  0.117665  0.338232  0  4.046213  0
C  C36  1  0.12348944  0.18599976  0.82466348  1  0.105146  0  -0.101133  -0.377421  0  3.857464  0
C  C37  1  0.79997753  0.78252086  0.21597787  1  0.485522  0  0.099055  0.292633  0  4.047862  0
C  C38  1  0.63692828  0.79840197  0.16961027  1  0.009932  0  -0.112636  -0.388999  0  3.865968  0
C  C39  1  0.79082191  0.72072576  0.28687909  1  -0.055111  0  -0.073062  -0.125466  0  3.965992  0
C  C40  1  0.62341075  0.69999985  0.32642182  1  -0.047011  0  -0.083933  -0.207082  0  3.887675  0
C  C41  1  0.78449378  0.78362395  0.78334796  1  0.00966  0  -0.070589  -0.034745  0  3.982554  0
C  C42  1  0.62113829  0.80718511  0.82546628  1  -0.091221  0  -0.078863  -0.214135  0  3.857805  0
C  C43  1  0.78567554  0.71861260  0.71508730  1  -0.078772  0  -0.065333  -0.012556  0  3.982776  0
C  C44  1  0.62253140  0.69366063  0.67306716  1  -0.026671  0  -0.089537  -0.246322  0  3.893425  0
C  C45  1  0.62940188  0.87675512  0.89343753  1  1.575488  0  0.255738  0.66633  0  4.131638  0
C  C46  1  0.62627028  0.86869114  0.10267529  1  1.559177  0  0.259004  0.706783  0  4.107159  0
C  C47  1  0.11559311  0.11603483  0.10946157  1  1.564307  0  0.253964  0.662498  0  4.138914  0
C  C48  1  0.12043516  0.12251142  0.89536660  1  1.590087  0  0.26257  0.710066  0  4.101738  0
C  C49  1  0.10197429  0.87095873  0.25214282  1  0.342738  0  -0.132565  -0.173625  0  3.891875  0
O  O50  1  0.46304288  0.60105974  0.57523939  1  -1.252264  0  -0.241443  -0.603547  0  2.306054  0
O  O51  1  0.79544953  0.60499686  0.42399840  1  -1.255168  0  -0.240839  -0.600077  0  2.336311  0
O  O52  1  0.96138934  0.41017025  0.41784824  1  -1.253316  0  -0.240199  -0.602827  0  2.308913  0
O  O53  1  0.80295405  0.59387506  0.58123072  1  -1.272394  0  -0.239588  -0.605135  0  2.330385  0
O  O54  1  0.96853490  0.39964671  0.57558501  1  -1.255931  0  -0.240362  -0.598756  0  2.331526  0
O  O55  1  0.45446143  0.60095734  0.41838805  1  -1.243374  0  -0.241791  -0.594328  0  2.299858  0
O  O56  1  0.63355888  0.43714765  0.49745733  1  -1.425613  0  -0.447812  -0.989288  0  2.199336  0
O  O57  1  0.30953410  0.40525639  0.57969686  1  -1.239156  0  -0.239251  -0.591737  0  2.30119  0
O  O58  1  0.30169519  0.40418098  0.42031460  1  -1.265388  0  -0.239703  -0.605202  0  2.320369  0
O  O59  1  0.13037825  0.56643454  0.50052055  1  -1.406112  0  -0.448436  -0.990877  0  2.202202  0
O  O60  1  0.78668521  0.89190999  0.06789739  1  -1.263986  0  -0.235398  -0.602772  0  2.369532  0
O  O61  1  0.46237526  0.89291522  0.92704679  1  -1.247665  0  -0.240826  -0.596469  0  2.302709  0
O  O62  1  0.29196999  0.08730219  0.91755935  1  -1.256189  0  -0.238278  -0.595171  0  2.287672  0
O  O63  1  0.45054787  0.90311619  0.08399438  1  -1.254658  0  -0.244198  -0.606352  0  2.282328  0
O  O64  1  0.28303397  0.09917227  0.07675608  1  -1.257027  0  -0.241173  -0.599675  0  2.327147  0
O  O65  1  0.79890044  0.91388679  0.91263684  1  -1.254993  0  -0.238236  -0.593124  0  2.334613  0
O  O66  1  0.61816075  0.06433371  0.00018215  1  -1.429889  0  -0.448383  -0.986455  0  2.182797  0
O  O67  1  0.94374008  0.08559778  0.08651349  1  -1.243493  0  -0.239437  -0.588901  0  2.301406  0
O  O68  1  0.95472324  0.10609785  0.92885882  1  -1.252127  0  -0.237204  -0.601787  0  2.325601  0
O  O69  1  0.12233546  0.93268417  0.00114177  1  -1.440257  0  -0.448529  -0.987762  0  2.179275  0
O  O70  1  0.98254405  0.81956551  0.19492306  1  -1.052568  0  -0.180299  -0.152451  0  2.547796  0
F  F71  1  0.77800356  0.22739737  0.81445303  1  -0.61977  0  -0.093071  -0.139338  0  1.321631  0
