# generated using pymatgen
data_AlH13C18N2O7F2
_symmetry_space_group_name_H-M   'P 1'
_cell_length_a   6.66156896
_cell_length_b   23.17908915
_cell_length_c   26.10552889
_cell_angle_alpha   100.73642396
_cell_angle_beta   89.97832481
_cell_angle_gamma   90.14210749
_symmetry_Int_Tables_number   1
_chemical_formula_structural   AlH13C18N2O7F2
_chemical_formula_sum   'Al4 H52 C72 N8 O28 F8'
_cell_volume   3960.35584491
_cell_formula_units_Z   4
loop_
 _symmetry_equiv_pos_site_id
 _symmetry_equiv_pos_as_xyz
  1  'x, y, z'
loop_
 _atom_site_type_symbol
 _atom_site_label
 _atom_site_symmetry_multiplicity
 _atom_site_fract_x
 _atom_site_fract_y
 _atom_site_fract_z
 _atom_site_occupancy
 _atom_site_pbe_bader_charge
 _atom_site_pbe_bader_spin_density
 _atom_site_pbe_cm5_charge
 _atom_site_pbe_ddec_charge
 _atom_site_pbe_ddec_spin_density
 _atom_site_pbe_ddec_sum_bond_order
 _atom_site_pbe_magmom
Al  Al0  1  0.76408326  0.75096705  0.25099850  1  2.502244  0  0.401854  1.644524  0  2.577893  0
Al  Al1  1  0.24927232  0.24956676  0.75027025  1  2.500441  0  0.401711  1.647607  0  2.57752  0
Al  Al2  1  0.26452840  0.74884380  0.24978542  1  2.501811  0  0.400855  1.641756  0  2.582688  0
Al  Al3  1  0.74892628  0.25118439  0.75099882  1  2.502762  0  0.402745  1.648119  0  2.575723  0
H  H4  1  0.67988218  0.05145290  0.52461542  1  0.109928  0  0.116543  0.143035  0  1.003232  0
H  H5  1  0.32904413  0.94882618  0.47567607  1  0.11944  0  0.117417  0.144599  0  1.00103  0
H  H6  1  0.17874588  0.47861000  0.95379201  1  0.140024  0  0.116304  0.143395  0  1.006182  0
H  H7  1  0.83179713  0.52084023  0.04723959  1  0.147752  0  0.11639  0.142938  0  1.005845  0
H  H8  1  0.19647568  0.13558608  0.97258202  1  0.13029  0  0.116801  0.139444  0  1.004945  0
H  H9  1  0.70990353  0.89205691  0.05180347  1  0.152381  0  0.11916  0.146733  0  1.004349  0
H  H10  1  0.70175433  0.36635274  0.52936328  1  0.114742  0  0.116913  0.139629  0  1.002253  0
H  H11  1  0.20882140  0.60588939  0.44665304  1  0.154135  0  0.118673  0.145869  0  1.006469  0
H  H12  1  0.80435234  0.97939987  0.37207351  1  0.043893  0  0.094471  0.05107  0  1.007843  0
H  H13  1  0.61955743  0.03375870  0.39595083  1  0.051568  0  0.092713  0.04837  0  0.968732  0
H  H14  1  0.34877705  0.95647008  0.37450498  1  0.049303  0  0.084091  0.117606  0  1.038365  0
H  H15  1  0.49279457  0.96189874  0.31831932  1  0.021841  0  0.089554  0.120345  0  0.996136  0
H  H16  1  0.53458427  0.90259460  0.35154716  1  0.098563  0  0.098944  0.146882  0  0.989988  0
H  H17  1  0.38788506  0.96606759  0.60430902  1  0.006792  0  0.09617  0.054056  0  0.963718  0
H  H18  1  0.20459591  0.02071837  0.62837634  1  0.040009  0  0.095491  0.05173  0  1.005403  0
H  H19  1  0.47730118  0.09697861  0.64684492  1  0.03554  0  0.093184  0.130771  0  1.006737  0
H  H20  1  0.51514614  0.03879724  0.68212618  1  0.029216  0  0.093301  0.127211  0  0.989615  0
H  H21  1  0.66127766  0.04213134  0.62576700  1  0.040238  0  0.086792  0.121204  0  1.031052  0
H  H22  1  0.10919915  0.62321487  0.98853070  1  0.02214  0  0.094799  0.051964  0  0.965198  0
H  H23  1  0.30647740  0.64208408  0.03522304  1  0.049578  0  0.095919  0.053385  0  1.002118  0
H  H24  1  0.05562973  0.65631023  0.10817136  1  0.060545  0  0.096765  0.143618  0  0.994876  0
H  H25  1  0.00026801  0.70228137  0.06240120  1  0.016675  0  0.088778  0.12173  0  0.999575  0
H  H26  1  0.85665888  0.63770624  0.06239162  1  0.025719  0  0.08514  0.119271  0  1.036607  0
H  H27  1  0.70514704  0.35752837  0.96692352  1  0.024078  0  0.095404  0.052319  0  1.002985  0
H  H28  1  0.90368894  0.37709328  0.01310197  1  0.031472  0  0.093214  0.050472  0  0.967445  0
H  H29  1  0.15362205  0.36219254  0.93864182  1  0.025076  0  0.084526  0.118969  0  1.037344  0
H  H30  1  0.01246408  0.29751102  0.93961789  1  0.021969  0  0.086124  0.119833  0  1.013493  0
H  H31  1  0.95339236  0.34261954  0.89345091  1  0.08388  0  0.095805  0.141742  0  0.99598  0
H  H32  1  0.45508048  0.06043505  0.86546047  1  0.050761  0  0.09274  0.055643  0  0.986428  0
H  H33  1  0.50382803  0.05213513  0.93133622  1  0.059202  0  0.09085  0.045395  0  1.016087  0
H  H34  1  0.45683059  0.94406870  0.90681162  1  0.042194  0  0.093904  0.1314  0  0.990141  0
H  H35  1  0.23886516  0.98102799  0.88971922  1  0.042932  0  0.088039  0.123167  0  1.01264  0
H  H36  1  0.41240269  0.95012729  0.84048138  1  0.030515  0  0.09483  0.131149  0  0.98462  0
H  H37  1  0.40229333  0.99191096  0.17618068  1  0.030869  0  0.093453  0.054051  0  0.985934  0
H  H38  1  0.25120888  0.03517949  0.14057353  1  0.074883  0  0.093706  0.048134  0  1.006667  0
H  H39  1  0.55015861  0.04893497  0.08539832  1  0.07128  0  0.092653  0.131313  0  0.998567  0
H  H40  1  0.59474045  0.07800480  0.15263018  1  0.03285  0  0.094877  0.128057  0  0.988652  0
H  H41  1  0.70231499  0.00947387  0.12346411  1  0.040112  0  0.084865  0.118221  0  1.025099  0
H  H42  1  0.95473009  0.44045707  0.63518634  1  0.055505  0  0.092046  0.054489  0  0.990847  0
H  H43  1  0.00280292  0.44821696  0.56909450  1  0.068053  0  0.091182  0.045701  0  1.016582  0
H  H44  1  0.95670244  0.55632663  0.59309290  1  0.052894  0  0.094964  0.132631  0  0.989201  0
H  H45  1  0.73879657  0.51941052  0.61069241  1  0.043012  0  0.087884  0.122643  0  1.014044  0
H  H46  1  0.91333476  0.55068070  0.65956467  1  0.071062  0  0.095024  0.131169  0  0.983511  0
H  H47  1  0.90371610  0.50793082  0.32360955  1  0.028843  0  0.094692  0.056441  0  0.981237  0
H  H48  1  0.75114986  0.46469855  0.35914452  1  0.07516  0  0.093498  0.048117  0  1.005491  0
H  H49  1  0.04909084  0.45095539  0.41447804  1  0.074162  0  0.092483  0.130891  0  0.999173  0
H  H50  1  0.09381330  0.42175972  0.34728256  1  0.027724  0  0.094088  0.127402  0  0.989636  0
H  H51  1  0.20262767  0.49025998  0.37639023  1  0.041196  0  0.085146  0.11866  0  1.025625  0
H  H52  1  0.51156389  0.81720262  0.23054084  1  0.646405  0  0.352086  0.432196  0  0.858531  0
H  H53  1  0.50255837  0.17520933  0.72615569  1  0.602754  0  0.353431  0.432127  0  0.858139  0
H  H54  1  0.01091707  0.67945567  0.26492499  1  0.623439  0  0.355005  0.438058  0  0.84798  0
H  H55  1  0.00335964  0.32541267  0.74703352  1  0.646896  0  0.360797  0.44445  0  0.833232  0
C  C56  1  0.51769398  0.69109263  0.31740012  1  1.63136  0  0.276523  0.686659  0  4.080581  0
C  C57  1  0.49726040  0.31441343  0.68682439  1  1.637301  0  0.274419  0.684477  0  4.09194  0
C  C58  1  0.01274649  0.80859542  0.18271230  1  1.624894  0  0.274702  0.683281  0  4.086965  0
C  C59  1  0.00094235  0.18773917  0.81462373  1  1.649829  0  0.274399  0.67908  0  4.098528  0
C  C60  1  0.51350905  0.66907563  0.17690301  1  1.678223  0  0.270981  0.707253  0  4.179012  0
C  C61  1  0.49897738  0.32786010  0.82607477  1  1.668243  0  0.276547  0.715999  0  4.167625  0
C  C62  1  0.02111694  0.82896712  0.32496477  1  1.6839  0  0.27225  0.707176  0  4.17687  0
C  C63  1  0.99419835  0.17296120  0.67390224  1  1.656628  0  0.275596  0.721049  0  4.157675  0
C  C64  1  0.82202856  0.02938765  0.51378154  1  0.039707  0  -0.084003  -0.214754  0  3.929359  0
C  C65  1  0.18687061  0.97087421  0.48648344  1  0.019133  0  -0.083188  -0.212771  0  3.925306  0
C  C66  1  0.32166967  0.48795929  0.97392410  1  0.002679  0  -0.083561  -0.212992  0  3.927173  0
C  C67  1  0.68885673  0.51147129  0.02710438  1  0.036371  0  -0.086106  -0.215702  0  3.929514  0
C  C68  1  0.99487042  0.04496335  0.54450886  1  0.082219  0  -0.005463  0.032654  0  4.121349  0
C  C69  1  0.01422275  0.95538772  0.45569174  1  0.102469  0  -0.003088  0.037361  0  4.115317  0
C  C70  1  0.49446673  0.45542344  0.95581032  1  0.086164  0  -0.003948  0.033023  0  4.119962  0
C  C71  1  0.51602794  0.54394837  0.04528135  1  0.095743  0  -0.002145  0.037036  0  4.118931  0
C  C72  1  0.17827791  0.01478472  0.53061015  1  0.528649  0  0.089503  0.205395  0  4.053266  0
C  C73  1  0.83054294  0.98542066  0.46965721  1  0.538608  0  0.089796  0.206361  0  4.051052  0
C  C74  1  0.67914062  0.46742986  0.98309122  1  0.488353  0  0.090362  0.207136  0  4.056041  0
C  C75  1  0.33140552  0.53205078  0.01792906  1  0.539091  0  0.088394  0.205332  0  4.055232  0
C  C76  1  0.98966248  0.09079924  0.58839127  1  -0.48046  0  -0.010346  0.002365  0  4.101373  0
C  C77  1  0.02073216  0.90994405  0.41149361  1  -0.535987  0  -0.014778  -0.009211  0  4.104124  0
C  C78  1  0.48925192  0.41186359  0.91022931  1  -0.439217  0  -0.010213  0.003591  0  4.099646  0
C  C79  1  0.52197019  0.58696550  0.09124104  1  -0.378661  0  -0.014636  -0.007364  0  4.108263  0
C  C80  1  0.02117376  0.87169181  0.37255122  1  0.245139  0  -0.026983  -0.182659  0  3.918875  0
C  C81  1  0.99251671  0.12964631  0.62690728  1  0.190946  0  -0.033282  -0.199014  0  3.930097  0
C  C82  1  0.51934941  0.62418975  0.13089327  1  0.070064  0  -0.030229  -0.188021  0  3.927309  0
C  C83  1  0.49430994  0.37370306  0.87124614  1  0.172  0  -0.030247  -0.197042  0  3.928269  0
C  C84  1  0.11561042  0.15916568  0.89967788  1  0.440106  0  0.107564  0.287697  0  4.068864  0
C  C85  1  0.85172633  0.85011881  0.10866930  1  0.432567  0  0.107125  0.293623  0  4.05507  0
C  C86  1  0.61848411  0.34310007  0.60235190  1  0.429148  0  0.106842  0.289104  0  4.069244  0
C  C87  1  0.35181192  0.64816824  0.38996261  1  0.411544  0  0.108177  0.296291  0  4.055067  0
C  C88  1  0.10321364  0.12533370  0.93786987  1  0.067186  0  -0.097739  -0.25034  0  4.008688  0
C  C89  1  0.84407683  0.88947260  0.07500735  1  0.05196  0  -0.095559  -0.246954  0  3.991218  0
C  C90  1  0.60691531  0.37644775  0.56379111  1  0.103763  0  -0.095951  -0.246835  0  4.001714  0
C  C91  1  0.34364918  0.60896460  0.42375556  1  0.065719  0  -0.092772  -0.242731  0  3.989346  0
C  C92  1  0.96662896  0.07808850  0.93248854  1  -0.00101  0  -0.003846  -0.037402  0  4.0064  0
C  C93  1  0.00541636  0.92813535  0.07248471  1  0.030645  0  -0.00125  -0.030846  0  4.004035  0
C  C94  1  0.46875516  0.42305260  0.56841700  1  -0.010676  0  -0.003205  -0.036005  0  4.002945  0
C  C95  1  0.50611068  0.57103454  0.42679857  1  0.020699  0  -0.002694  -0.034581  0  4.006675  0
C  C96  1  0.84581170  0.06509139  0.88723750  1  0.62946  0  0.080377  0.099708  0  4.073762  0
C  C97  1  0.17859397  0.92434990  0.10288649  1  0.667547  0  0.078787  0.09481  0  4.074509  0
C  C98  1  0.34553445  0.43601369  0.61323592  1  0.624061  0  0.080492  0.100664  0  4.075089  0
C  C99  1  0.68016149  0.57519668  0.39669690  1  0.667542  0  0.080208  0.09584  0  4.07531  0
C  C100  1  0.86333995  0.10134973  0.84992455  1  0.467993  0  0.10946  0.199409  0  4.024553  0
C  C101  1  0.17706490  0.88438136  0.13727696  1  0.457546  0  0.108693  0.200333  0  4.015338  0
C  C102  1  0.36086228  0.39983421  0.65059463  1  0.459816  0  0.10736  0.196542  0  4.024843  0
C  C103  1  0.67922257  0.61514266  0.36232195  1  0.431321  0  0.109647  0.200631  0  4.020111  0
C  C104  1  0.99493626  0.14915849  0.85479142  1  0.098435  0  -0.016785  -0.229651  0  3.959169  0
C  C105  1  0.01505633  0.84692701  0.14242092  1  0.076869  0  -0.01992  -0.244411  0  3.94656  0
C  C106  1  0.49418131  0.35278996  0.64652315  1  0.094325  0  -0.018997  -0.229258  0  3.963628  0
C  C107  1  0.51704025  0.65204920  0.35703216  1  0.126846  0  -0.019663  -0.240326  0  3.951684  0
C  C108  1  0.98296440  0.97284560  0.03975698  1  0.949642  0  0.245325  0.255972  0  3.979606  0
C  C109  1  0.95665003  0.04358268  0.97417052  1  0.955446  0  0.244916  0.25704  0  3.984762  0
C  C110  1  0.48390016  0.52662497  0.45984157  1  0.951038  0  0.245463  0.256575  0  3.979101  0
C  C111  1  0.45887761  0.45687512  0.52626906  1  0.992092  0  0.244767  0.25664  0  3.989481  0
C  C112  1  0.65475018  0.98643318  0.39004401  1  0.379252  0  -0.067696  0.088137  0  3.916794  0
C  C113  1  0.49844170  0.94952632  0.35696451  1  -0.092239  0  -0.246927  -0.396017  0  3.963283  0
C  C114  1  0.35371770  0.01342084  0.61019426  1  0.440116  0  -0.06614  0.089719  0  3.911749  0
C  C115  1  0.51145203  0.05002104  0.64303387  1  -0.038712  0  -0.244486  -0.393533  0  3.963209  0
C  C116  1  0.15471485  0.62313878  0.02918793  1  0.397887  0  -0.0659  0.087968  0  3.911035  0
C  C117  1  0.00818029  0.65645048  0.06792133  1  -0.022442  0  -0.246832  -0.393241  0  3.955171  0
C  C118  1  0.85680469  0.37664067  0.97244585  1  0.411042  0  -0.066756  0.088388  0  3.917748  0
C  C119  1  0.00247862  0.34311364  0.93367581  1  -0.046668  0  -0.248602  -0.39365  0  3.957846  0
C  C120  1  0.51179186  0.03029544  0.89014041  1  0.385676  0  -0.06951  0.083007  0  3.910604  0
C  C121  1  0.39888326  0.97275431  0.88119299  1  -0.046775  0  -0.242798  -0.38535  0  3.962455  0
C  C122  1  0.38384663  0.00664498  0.13870726  1  0.394002  0  -0.069075  0.081993  0  3.913517  0
C  C123  1  0.56939382  0.03744554  0.12404465  1  -0.085872  0  -0.245577  -0.387011  0  3.965286  0
C  C124  1  0.01135453  0.47035264  0.61019534  1  0.375283  0  -0.070214  0.081759  0  3.913157  0
C  C125  1  0.89900081  0.52780458  0.61894827  1  -0.101065  0  -0.243868  -0.385473  0  3.961467  0
C  C126  1  0.88447647  0.49317804  0.36105416  1  0.392784  0  -0.06938  0.080559  0  3.911867  0
C  C127  1  0.06910568  0.46234358  0.37581745  1  -0.083949  0  -0.245701  -0.387429  0  3.965933  0
N  N128  1  0.09390383  0.05524572  0.01292997  1  -0.564188  0  -0.152079  -0.1446  0  3.222626  0
N  N129  1  0.81997924  0.96917147  0.00847422  1  -0.553557  0  -0.145531  -0.134401  0  3.224651  0
N  N130  1  0.59704574  0.44526497  0.48777454  1  -0.593969  0  -0.152404  -0.146665  0  3.225192  0
N  N131  1  0.32008169  0.52994691  0.49085206  1  -0.545721  0  -0.145603  -0.133905  0  3.224259  0
N  N132  1  0.10139377  0.02143837  0.04810933  1  -0.514316  0  -0.143553  -0.130156  0  3.223961  0
N  N133  1  0.79911193  0.00701555  0.97710831  1  -0.524768  0  -0.140598  -0.127295  0  3.219569  0
N  N134  1  0.60387668  0.47853455  0.45214943  1  -0.523112  0  -0.143231  -0.128542  0  3.223553  0
N  N135  1  0.30013363  0.49255154  0.52267494  1  -0.531319  0  -0.140623  -0.127736  0  3.223528  0
O  O136  1  0.33993053  0.68825112  0.19198825  1  -1.234623  0  -0.229852  -0.583402  0  2.295793  0
O  O137  1  0.67135653  0.30865304  0.80990730  1  -1.241532  0  -0.227284  -0.583351  0  2.293038  0
O  O138  1  0.85013307  0.81571603  0.30396299  1  -1.234129  0  -0.230008  -0.585343  0  2.290817  0
O  O139  1  0.16582228  0.18782060  0.69403668  1  -1.239603  0  -0.233894  -0.597644  0  2.28578  0
O  O140  1  0.68583313  0.71108862  0.30600929  1  -1.242492  0  -0.226777  -0.581965  0  2.347883  0
O  O141  1  0.32701800  0.29692043  0.69948426  1  -1.227518  0  -0.229961  -0.586691  0  2.335496  0
O  O142  1  0.18103799  0.79494060  0.19963967  1  -1.244002  0  -0.227278  -0.586019  0  2.366559  0
O  O143  1  0.83197716  0.20171161  0.79846619  1  -1.233675  0  -0.224209  -0.573772  0  2.344635  0
O  O144  1  0.68153966  0.68506799  0.19842735  1  -1.234779  0  -0.233381  -0.589118  0  2.288564  0
O  O145  1  0.33028022  0.31059355  0.80579237  1  -1.245485  0  -0.226123  -0.581368  0  2.298477  0
O  O146  1  0.19168776  0.80950273  0.30777487  1  -1.236632  0  -0.228763  -0.579202  0  2.289613  0
O  O147  1  0.82383183  0.19193502  0.69189626  1  -1.243346  0  -0.230999  -0.593666  0  2.292699  0
O  O148  1  0.84188958  0.79400354  0.19773127  1  -1.237339  0  -0.228762  -0.585065  0  2.349048  0
O  O149  1  0.17264737  0.20224563  0.80040883  1  -1.235199  0  -0.224113  -0.572047  0  2.325013  0
O  O150  1  0.34944218  0.69995988  0.29740990  1  -1.240863  0  -0.227534  -0.587286  0  2.346647  0
O  O151  1  0.66767353  0.30353735  0.70447080  1  -1.237635  0  -0.230078  -0.588955  0  2.322082  0
O  O152  1  0.51356648  0.78535083  0.24995620  1  -1.444836  0  -0.448201  -0.990671  0  2.187274  0
O  O153  1  0.49985946  0.21482818  0.74630542  1  -1.402835  0  -0.447463  -0.994214  0  2.200063  0
O  O154  1  0.01271551  0.71489967  0.25019478  1  -1.420642  0  -0.4467  -0.994198  0  2.192786  0
O  O155  1  0.00021732  0.28524337  0.75259737  1  -1.444682  0  -0.446416  -0.999835  0  2.203272  0
O  O156  1  0.65944357  0.96983962  0.44117400  1  -1.076837  0  -0.19613  -0.231849  0  2.50106  0
O  O157  1  0.34936323  0.03022770  0.55919595  1  -1.077263  0  -0.197423  -0.233664  0  2.502943  0
O  O158  1  0.16074176  0.56212372  0.03589633  1  -1.070451  0  -0.198222  -0.235236  0  2.503448  0
O  O159  1  0.84970231  0.43737628  0.96505611  1  -1.073278  0  -0.197586  -0.235175  0  2.506227  0
O  O160  1  0.72200517  0.01739958  0.87717405  1  -1.054365  0  -0.200115  -0.223622  0  2.534698  0
O  O161  1  0.34923295  0.95551173  0.09781043  1  -1.054996  0  -0.195407  -0.214263  0  2.545008  0
O  O162  1  0.22179409  0.48353492  0.62279483  1  -1.057394  0  -0.198563  -0.221572  0  2.53746  0
O  O163  1  0.85074131  0.54434341  0.40192646  1  -1.05357  0  -0.194637  -0.213504  0  2.546467  0
F  F164  1  0.24562930  0.20511862  0.90709320  1  -0.635162  0  -0.087823  -0.124929  0  1.339485  0
F  F165  1  0.69330428  0.81342534  0.10854839  1  -0.621122  0  -0.087674  -0.120568  0  1.35787  0
F  F166  1  0.75027458  0.29780193  0.59607280  1  -0.61487  0  -0.09441  -0.127496  0  1.320599  0
F  F167  1  0.19322815  0.68432817  0.38912226  1  -0.62241  0  -0.087024  -0.119897  0  1.353815  0
F  F168  1  0.74906201  0.08730881  0.80655706  1  -0.619278  0  -0.082773  -0.106542  0  1.371772  0
F  F169  1  0.34259769  0.88460113  0.16733068  1  -0.622987  0  -0.076703  -0.106405  0  1.412901  0
F  F170  1  0.24251310  0.41306163  0.69336855  1  -0.621483  0  -0.084213  -0.109702  0  1.362866  0
F  F171  1  0.84450270  0.61560667  0.33224825  1  -0.621813  0  -0.077286  -0.107224  0  1.405973  0
