# generated using pymatgen
data_ZnH6C8NO4
_symmetry_space_group_name_H-M   'P 1'
_cell_length_a   7.62622734
_cell_length_b   8.62269149
_cell_length_c   14.69138740
_cell_angle_alpha   90.00005660
_cell_angle_beta   89.99997242
_cell_angle_gamma   110.65704823
_symmetry_Int_Tables_number   1
_chemical_formula_structural   ZnH6C8NO4
_chemical_formula_sum   'Zn4 H24 C32 N4 O16'
_cell_volume   903.97432800
_cell_formula_units_Z   4
loop_
 _symmetry_equiv_pos_site_id
 _symmetry_equiv_pos_as_xyz
  1  'x, y, z'
loop_
 _atom_site_type_symbol
 _atom_site_label
 _atom_site_symmetry_multiplicity
 _atom_site_fract_x
 _atom_site_fract_y
 _atom_site_fract_z
 _atom_site_occupancy
 _atom_site_hle17_bader_spin_density
 _atom_site_hle17_ddec_charge
 _atom_site_hle17_ddec_spin_density
 _atom_site_hle17_ddec_sum_bond_order
 _atom_site_hle17_magmom
 _atom_site_hse06_10hf_bader_spin_density
 _atom_site_hse06_10hf_ddec_charge
 _atom_site_hse06_10hf_ddec_spin_density
 _atom_site_hse06_10hf_ddec_sum_bond_order
 _atom_site_hse06_10hf_magmom
 _atom_site_hse06_bader_spin_density
 _atom_site_hse06_ddec_charge
 _atom_site_hse06_ddec_spin_density
 _atom_site_hse06_ddec_sum_bond_order
 _atom_site_hse06_magmom
 _atom_site_pbe_bader_spin_density
 _atom_site_pbe_cm5_charge
 _atom_site_pbe_ddec_charge
 _atom_site_pbe_ddec_spin_density
 _atom_site_pbe_ddec_sum_bond_order
 _atom_site_pbe_magmom
Zn  Zn0  1  0.85280917  0.95697138  0.93077884  1  0  1.030819  0  1.881391  0  0  0.856743  0  2.35678  0  0  0.909975  0  2.289777  0  0  0.671665  0.819714  0  2.402638  0
Zn  Zn1  1  0.14718958  0.54303106  0.43077770  1  0  1.030844  0  1.881371  0  0  0.856784  0  2.356776  0  0  0.910013  0  2.289776  0  0  0.671672  0.819768  0  2.402613  0
Zn  Zn2  1  0.14718787  0.04303069  0.06922218  1  0  1.030859  0  1.881377  0  0  0.856779  0  2.356776  0  0  0.909999  0  2.289792  0  0  0.671663  0.819754  0  2.402629  0
Zn  Zn3  1  0.85280679  0.45696605  0.56921856  1  0  1.030828  0  1.881391  0  0  0.856784  0  2.356798  0  0  0.910006  0  2.289812  0  0  0.671672  0.81975  0  2.402656  0
H  H4  1  0.36958845  0.75293903  0.11326721  1  0  0.127952  0  0.972523  0  0  0.131334  0  1.041783  0  0  0.135871  0  1.038825  0  0  0.109759  0.127983  0  1.044115  0
H  H5  1  0.63041215  0.74705421  0.61326897  1  0  0.127977  0  0.972481  0  0  0.131398  0  1.041707  0  0  0.135949  0  1.03873  0  0  0.109767  0.128031  0  1.044052  0
H  H6  1  0.63042531  0.24706548  0.88673449  1  0  0.127921  0  0.972651  0  0  0.131381  0  1.041811  0  0  0.135917  0  1.038858  0  0  0.109789  0.128021  0  1.044153  0
H  H7  1  0.36959320  0.25293915  0.38673137  1  0  0.127974  0  0.972526  0  0  0.131322  0  1.041818  0  0  0.13586  0  1.038865  0  0  0.109775  0.128011  0  1.044098  0
H  H8  1  0.14122075  0.63569112  0.23992849  1  0  0.090866  0  0.92508  0  0  0.100694  0  0.98492  0  0  0.103671  0  0.981866  0  0  0.123308  0.098457  0  0.987287  0
H  H9  1  0.85877688  0.86430482  0.73993162  1  0  0.09096  0  0.925053  0  0  0.100681  0  0.984993  0  0  0.103659  0  0.981938  0  0  0.12331  0.098443  0  0.98736  0
H  H10  1  0.85878908  0.36431340  0.76006981  1  0  0.090857  0  0.925179  0  0  0.100716  0  0.984978  0  0  0.103693  0  0.981926  0  0  0.123314  0.098478  0  0.987346  0
H  H11  1  0.14122161  0.13569104  0.26007076  1  0  0.090892  0  0.925065  0  0  0.100712  0  0.98491  0  0  0.10369  0  0.981855  0  0  0.123329  0.098475  0  0.987277  0
H  H12  1  0.56021713  0.61275184  0.41325379  1  0  0.094884  0  0.93803  0  0  0.102598  0  1.00129  0  0  0.105328  0  0.999408  0  0  0.12155  0.100574  0  1.002746  0
H  H13  1  0.43977739  0.88725306  0.91325091  1  0  0.09488  0  0.938036  0  0  0.102616  0  1.001285  0  0  0.105345  0  0.999403  0  0  0.121558  0.100593  0  1.002741  0
H  H14  1  0.43978173  0.38725147  0.58674995  1  0  0.094914  0  0.937922  0  0  0.102638  0  1.001196  0  0  0.105368  0  0.999312  0  0  0.121569  0.100613  0  1.002655  0
H  H15  1  0.56021293  0.11274530  0.08674398  1  0  0.094833  0  0.938051  0  0  0.102553  0  1.001334  0  0  0.105282  0  0.999452  0  0  0.121552  0.100529  0  1.002787  0
H  H16  1  0.80823773  0.73315602  0.29375249  1  0  0.121483  0  0.952715  0  0  0.12934  0  1.015314  0  0  0.132874  0  1.013777  0  0  0.111839  0.126759  0  1.016617  0
H  H17  1  0.19176157  0.76684744  0.79374892  1  0  0.121464  0  0.952718  0  0  0.129317  0  1.015328  0  0  0.132851  0  1.01379  0  0  0.11184  0.126734  0  1.016632  0
H  H18  1  0.19176768  0.26684727  0.70625466  1  0  0.121508  0  0.952668  0  0  0.129385  0  1.015244  0  0  0.132921  0  1.013703  0  0  0.111857  0.126803  0  1.016547  0
H  H19  1  0.80823642  0.23314718  0.20624461  1  0  0.121433  0  0.952745  0  0  0.129299  0  1.015332  0  0  0.132831  0  1.013798  0  0  0.111834  0.126717  0  1.016635  0
H  H20  1  0.78978337  0.44300459  0.02353287  1  0  0.110846  0  0.913387  0  0  0.126763  0  0.966484  0  0  0.129149  0  0.965699  0  0  0.104088  0.12504  0  0.967143  0
H  H21  1  0.21020887  0.05699580  0.52353666  1  0  0.110806  0  0.913403  0  0  0.126735  0  0.966508  0  0  0.129131  0  0.965729  0  0  0.104095  0.125013  0  0.967165  0
H  H22  1  0.21020812  0.55699997  0.97646339  1  0  0.110847  0  0.913426  0  0  0.126787  0  0.966499  0  0  0.129183  0  0.965725  0  0  0.104128  0.125065  0  0.967155  0
H  H23  1  0.78978388  0.94299884  0.47646845  1  0  0.110815  0  0.913419  0  0  0.126739  0  0.966496  0  0  0.129128  0  0.965715  0  0  0.10407  0.125017  0  0.967153  0
H  H24  1  0.97817230  0.49736398  0.10421891  1  0  0.104092  0  0.929097  0  0  0.117867  0  0.989339  0  0  0.119979  0  0.988571  0  0  0.100704  0.116363  0  0.989939  0
H  H25  1  0.02182041  0.00263778  0.60422476  1  0  0.104028  0  0.92917  0  0  0.117828  0  0.989397  0  0  0.11995  0  0.988635  0  0  0.100719  0.116324  0  0.989991  0
H  H26  1  0.02181932  0.50263438  0.89577531  1  0  0.104069  0  0.929188  0  0  0.117855  0  0.989431  0  0  0.119979  0  0.98867  0  0  0.100731  0.11635  0  0.990028  0
H  H27  1  0.97817090  0.99736306  0.39578103  1  0  0.104078  0  0.929116  0  0  0.11783  0  0.989375  0  0  0.119944  0  0.988613  0  0  0.100694  0.116326  0  0.989976  0
C  C28  1  0.75175189  0.83669407  0.12297288  1  0  0.651578  0  3.894887  0  0  0.602439  0  4.183752  0  0  0.637297  0  4.176128  0  0  0.215619  0.578859  0  4.188025  0
C  C29  1  0.24825338  0.66331407  0.62296651  1  0  0.651504  0  3.894937  0  0  0.602362  0  4.183811  0  0  0.637227  0  4.176171  0  0  0.215542  0.578782  0  4.188086  0
C  C30  1  0.24825763  0.16331294  0.87703563  1  0  0.651467  0  3.895102  0  0  0.602353  0  4.18393  0  0  0.637212  0  4.176306  0  0  0.215536  0.578774  0  4.188202  0
C  C31  1  0.75175352  0.33669294  0.37702566  1  0  0.651489  0  3.894725  0  0  0.602406  0  4.183587  0  0  0.637256  0  4.175975  0  0  0.215642  0.578831  0  4.187853  0
C  C32  1  0.60747949  0.75312359  0.19465909  1  0  -0.002511  0  3.718025  0  0  0.018699  0  3.94445  0  0  0.016277  0  3.965101  0  0  0.007165  0.020338  0  3.930531  0
C  C33  1  0.39251866  0.74687351  0.69465818  1  0  -0.002434  0  3.71809  0  0  0.018755  0  3.944543  0  0  0.01633  0  3.965196  0  0  0.007202  0.020393  0  3.930619  0
C  C34  1  0.39252935  0.24687845  0.80534602  1  0  -0.002346  0  3.718044  0  0  0.018849  0  3.944486  0  0  0.016427  0  3.965136  0  0  0.007245  0.020485  0  3.930565  0
C  C35  1  0.60748227  0.25311863  0.30533944  1  0  -0.002411  0  3.717994  0  0  0.01868  0  3.944541  0  0  0.01626  0  3.965197  0  0  0.007161  0.020317  0  3.930628  0
C  C36  1  0.41753429  0.72245550  0.17844212  1  0  -0.11759  0  3.685575  0  0  -0.140615  0  3.933064  0  0  -0.146087  0  3.95308  0  0  -0.074593  -0.137057  0  3.919794  0
C  C37  1  0.58246418  0.77753910  0.67844323  1  0  -0.117557  0  3.685473  0  0  -0.140613  0  3.932921  0  0  -0.146094  0  3.95293  0  0  -0.074568  -0.137041  0  3.919666  0
C  C38  1  0.58247636  0.27754778  0.82156027  1  0  -0.117676  0  3.685709  0  0  -0.140777  0  3.93322  0  0  -0.146247  0  3.953234  0  0  -0.074726  -0.137212  0  3.91996  0
C  C39  1  0.41753675  0.22245304  0.32155508  1  0  -0.117601  0  3.685489  0  0  -0.140571  0  3.933048  0  0  -0.146043  0  3.953064  0  0  -0.074554  -0.137041  0  3.919763  0
C  C40  1  0.29002898  0.65743967  0.24832592  1  0  0.142947  0  3.66007  0  0  0.111349  0  3.910116  0  0  0.118389  0  3.926989  0  0  0.057439  0.106721  0  3.898707  0
C  C41  1  0.70996802  0.84256125  0.74832771  1  0  0.142776  0  3.660244  0  0  0.111268  0  3.910253  0  0  0.118305  0  3.927131  0  0  0.057428  0.106642  0  3.898837  0
C  C42  1  0.70997561  0.34256487  0.75167511  1  0  0.142916  0  3.660116  0  0  0.111313  0  3.91017  0  0  0.118353  0  3.927041  0  0  0.05745  0.106687  0  3.898753  0
C  C43  1  0.29002966  0.15743586  0.25167059  1  0  0.142916  0  3.660135  0  0  0.111284  0  3.910145  0  0  0.118323  0  3.927018  0  0  0.057365  0.106656  0  3.898745  0
C  C44  1  0.52490616  0.64506899  0.34569041  1  0  0.129251  0  3.670872  0  0  0.098849  0  3.922947  0  0  0.104408  0  3.942467  0  0  0.051096  0.095216  0  3.909797  0
C  C45  1  0.47509000  0.85493332  0.84568955  1  0  0.129199  0  3.670978  0  0  0.098743  0  3.923078  0  0  0.104302  0  3.942598  0  0  0.051054  0.09511  0  3.909929  0
C  C46  1  0.47509532  0.35493431  0.65431401  1  0  0.12922  0  3.670725  0  0  0.098799  0  3.922824  0  0  0.10436  0  3.942343  0  0  0.051063  0.095165  0  3.909673  0
C  C47  1  0.52490505  0.14506379  0.15430807  1  0  0.12939  0  3.670761  0  0  0.098923  0  3.922817  0  0  0.104483  0  3.942334  0  0  0.051127  0.095291  0  3.909664  0
C  C48  1  0.66138850  0.71185796  0.27961293  1  0  -0.124205  0  3.694769  0  0  -0.146969  0  3.940389  0  0  -0.152941  0  3.96247  0  0  -0.076905  -0.143151  0  3.92573  0
C  C49  1  0.33861179  0.78814796  0.77961001  1  0  -0.124222  0  3.694871  0  0  -0.14697  0  3.940505  0  0  -0.152942  0  3.962586  0  0  -0.076917  -0.143153  0  3.925846  0
C  C50  1  0.33861690  0.28814533  0.72039354  1  0  -0.12428  0  3.694743  0  0  -0.147052  0  3.940364  0  0  -0.153026  0  3.962444  0  0  -0.076891  -0.143235  0  3.925704  0
C  C51  1  0.66138950  0.21185162  0.22038556  1  0  -0.124216  0  3.69468  0  0  -0.14695  0  3.940347  0  0  -0.152922  0  3.962428  0  0  -0.076975  -0.143135  0  3.925687  0
C  C52  1  0.93874449  0.27262083  0.03063288  1  0  0.711271  0  3.836287  0  0  0.663404  0  4.13502  0  0  0.697752  0  4.128534  0  0  0.216442  0.640082  0  4.138598  0
C  C53  1  0.06125168  0.22737957  0.53063476  1  0  0.711364  0  3.835896  0  0  0.663472  0  4.1347  0  0  0.697831  0  4.128219  0  0  0.216473  0.640149  0  4.13828  0
C  C54  1  0.06124059  0.72737755  0.96936474  1  0  0.711456  0  3.835644  0  0  0.66348  0  4.134568  0  0  0.697842  0  4.12809  0  0  0.216497  0.640158  0  4.138147  0
C  C55  1  0.93875042  0.77261877  0.46936694  1  0  0.711362  0  3.835949  0  0  0.663463  0  4.134737  0  0  0.697816  0  4.128253  0  0  0.216479  0.64014  0  4.138319  0
C  C56  1  0.93288148  0.44601004  0.03631925  1  0  -0.238835  0  3.650691  0  0  -0.279001  0  3.903773  0  0  -0.284494  0  3.911296  0  0  -0.159924  -0.275151  0  3.898472  0
C  C57  1  0.06710976  0.05398789  0.53632376  1  0  -0.238749  0  3.650701  0  0  -0.278925  0  3.903757  0  0  -0.284478  0  3.911331  0  0  -0.159989  -0.275075  0  3.898456  0
C  C58  1  0.06710571  0.55398709  0.96367633  1  0  -0.238912  0  3.650783  0  0  -0.27906  0  3.903861  0  0  -0.28463  0  3.911441  0  0  -0.16006  -0.27521  0  3.898562  0
C  C59  1  0.93288399  0.94600922  0.46368067  1  0  -0.238891  0  3.650696  0  0  -0.279015  0  3.903777  0  0  -0.284531  0  3.911321  0  0  -0.159939  -0.275166  0  3.89848  0
N  N60  1  0.34265916  0.61994746  0.33049513  1  0  -0.309838  0  3.283723  0  0  -0.228179  0  3.555935  0  0  -0.247012  0  3.570314  0  0  -0.327329  -0.215451  0  3.546099  0
N  N61  1  0.65733520  0.88005359  0.83049628  1  0  -0.309759  0  3.283882  0  0  -0.228049  0  3.556018  0  0  -0.246881  0  3.5704  0  0  -0.327316  -0.215327  0  3.546186  0
N  N62  1  0.65734132  0.38005336  0.66950453  1  0  -0.309801  0  3.283664  0  0  -0.228165  0  3.555911  0  0  -0.246998  0  3.570289  0  0  -0.327337  -0.215438  0  3.546074  0
N  N63  1  0.34266117  0.11994352  0.16950134  1  0  -0.309958  0  3.283928  0  0  -0.228147  0  3.555998  0  0  -0.246978  0  3.570374  0  0  -0.327292  -0.215421  0  3.546161  0
O  O64  1  0.69087999  0.84046130  0.04282661  1  0  -0.618189  0  2.050046  0  0  -0.556211  0  2.306822  0  0  -0.584512  0  2.293585  0  0  -0.309189  -0.536522  0  2.315193  0
O  O65  1  0.30913623  0.65953799  0.54282431  1  0  -0.618214  0  2.050106  0  0  -0.556261  0  2.306909  0  0  -0.584563  0  2.293663  0  0  -0.309217  -0.536577  0  2.315282  0
O  O66  1  0.30914145  0.15953947  0.95717850  1  0  -0.618175  0  2.050173  0  0  -0.556239  0  2.306974  0  0  -0.584537  0  2.293731  0  0  -0.309185  -0.536553  0  2.315349  0
O  O67  1  0.69087305  0.34045536  0.45717195  1  0  -0.618195  0  2.049936  0  0  -0.556218  0  2.306674  0  0  -0.584514  0  2.293439  0  0  -0.309213  -0.536533  0  2.315046  0
O  O68  1  0.92077809  0.89894677  0.14976204  1  0  -0.62472  0  2.04638  0  0  -0.56378  0  2.303502  0  0  -0.592237  0  2.290578  0  0  -0.311417  -0.543909  0  2.311537  0
O  O69  1  0.07922075  0.60105523  0.64975160  1  0  -0.624655  0  2.046365  0  0  -0.563666  0  2.303448  0  0  -0.592126  0  2.290521  0  0  -0.311348  -0.543794  0  2.311484  0
O  O70  1  0.07922732  0.10105652  0.85024783  1  0  -0.624627  0  2.04642  0  0  -0.563656  0  2.303488  0  0  -0.592115  0  2.290566  0  0  -0.311335  -0.543786  0  2.311527  0
O  O71  1  0.92078122  0.39894931  0.35023922  1  0  -0.6247  0  2.046361  0  0  -0.563755  0  2.303457  0  0  -0.592209  0  2.290535  0  0  -0.311421  -0.543885  0  2.311487  0
O  O72  1  0.82934435  0.17486926  0.97305849  1  0  -0.641388  0  2.072497  0  0  -0.569916  0  2.334035  0  0  -0.599559  0  2.321063  0  0  -0.313148  -0.549326  0  2.342241  0
O  O73  1  0.17064563  0.32513309  0.47305819  1  0  -0.641531  0  2.072389  0  0  -0.570009  0  2.333913  0  0  -0.59965  0  2.320935  0  0  -0.313186  -0.54943  0  2.342134  0
O  O74  1  0.17063617  0.82513409  0.02693845  1  0  -0.641541  0  2.072369  0  0  -0.570035  0  2.333999  0  0  -0.599676  0  2.321022  0  0  -0.313209  -0.549448  0  2.34221  0
O  O75  1  0.82934549  0.67486403  0.52693807  1  0  -0.641485  0  2.072364  0  0  -0.570037  0  2.333987  0  0  -0.599678  0  2.321011  0  0  -0.313224  -0.549446  0  2.342194  0
O  O76  1  0.05672798  0.23997903  0.08093456  1  0  -0.638681  0  2.052172  0  0  -0.575418  0  2.314027  0  0  -0.604114  0  2.300643  0  0  -0.31814  -0.555545  0  2.322552  0
O  O77  1  0.94327210  0.26002143  0.58093828  1  0  -0.638636  0  2.052032  0  0  -0.575394  0  2.313944  0  0  -0.604093  0  2.300564  0  0  -0.318127  -0.55552  0  2.322468  0
O  O78  1  0.94326283  0.76002057  0.91905830  1  0  -0.638674  0  2.051827  0  0  -0.575366  0  2.313748  0  0  -0.604067  0  2.300367  0  0  -0.318123  -0.555492  0  2.322273  0
O  O79  1  0.05674085  0.73998432  0.41906546  1  0  -0.638629  0  2.052047  0  0  -0.575345  0  2.313899  0  0  -0.604046  0  2.300523  0  0  -0.318079  -0.555471  0  2.322424  0
