# generated using pymatgen
data_CuSiH11C8INO
_symmetry_space_group_name_H-M   'P 1'
_cell_length_a   10.66920981
_cell_length_b   16.29358322
_cell_length_c   16.17949088
_cell_angle_alpha   111.00842301
_cell_angle_beta   89.99964259
_cell_angle_gamma   89.99985456
_symmetry_Int_Tables_number   1
_chemical_formula_structural   CuSiH11C8INO
_chemical_formula_sum   'Cu8 Si8 H88 C64 I8 N8 O8'
_cell_volume   2625.67479292
_cell_formula_units_Z   8
loop_
 _symmetry_equiv_pos_site_id
 _symmetry_equiv_pos_as_xyz
  1  'x, y, z'
loop_
 _atom_site_type_symbol
 _atom_site_label
 _atom_site_symmetry_multiplicity
 _atom_site_fract_x
 _atom_site_fract_y
 _atom_site_fract_z
 _atom_site_occupancy
 _atom_site_pbe_bader_charge
 _atom_site_pbe_bader_spin_density
 _atom_site_pbe_cm5_charge
 _atom_site_pbe_ddec_charge
 _atom_site_pbe_ddec_spin_density
 _atom_site_pbe_ddec_sum_bond_order
 _atom_site_pbe_magmom
Cu  Cu0  1  0.79971479  0.46217605  0.30483822  1  0.38052  0  0.238944  0.126093  0  2.795026  0
Cu  Cu1  1  0.79972736  0.53782652  0.19516137  1  0.382599  0  0.238931  0.126053  0  2.795109  0
Cu  Cu2  1  0.20032347  0.53779662  0.69514538  1  0.380406  0  0.239011  0.126215  0  2.794947  0
Cu  Cu3  1  0.20030339  0.46217792  0.80484428  1  0.382338  0  0.238942  0.126048  0  2.795069  0
Cu  Cu4  1  0.97202342  0.42670534  0.18387626  1  0.388975  0  0.241688  0.139476  0  2.778475  0
Cu  Cu5  1  0.97201313  0.57328949  0.31612553  1  0.387134  0  0.24172  0.139586  0  2.778434  0
Cu  Cu6  1  0.02801577  0.57329498  0.81611932  1  0.387112  0  0.241687  0.139556  0  2.778441  0
Cu  Cu7  1  0.02800263  0.42670449  0.68387899  1  0.388796  0  0.241705  0.139596  0  2.77847  0
Si  Si8  1  0.34718210  0.12125380  0.36455199  1  2.944229  0  0.311091  1.327594  0  3.978739  0
Si  Si9  1  0.34718740  0.87874757  0.13543975  1  2.94407  0  0.311123  1.327751  0  3.978356  0
Si  Si10  1  0.65281866  0.87875240  0.63544375  1  2.944188  0  0.311034  1.327238  0  3.979492  0
Si  Si11  1  0.65282086  0.12124834  0.86456358  1  2.944261  0  0.311058  1.327558  0  3.978695  0
Si  Si12  1  0.43568927  0.06787484  0.16137434  1  2.948105  0  0.312647  1.322849  0  3.99324  0
Si  Si13  1  0.43569146  0.93212954  0.33861931  1  2.948082  0  0.312692  1.323098  0  3.992775  0
Si  Si14  1  0.56430212  0.93212354  0.83862180  1  2.948076  0  0.312581  1.322837  0  3.993152  0
Si  Si15  1  0.56430087  0.06787756  0.66138848  1  2.948117  0  0.312669  1.322918  0  3.9932  0
H  H16  1  0.14244792  0.19473398  0.37263109  1  0.069867  0  0.091852  0.178828  0  1.026154  0
H  H17  1  0.14245077  0.80526879  0.12736196  1  0.06994  0  0.091892  0.178896  0  1.026123  0
H  H18  1  0.85755003  0.80526972  0.62736997  1  0.06998  0  0.091865  0.178864  0  1.026089  0
H  H19  1  0.85755562  0.19472290  0.87262570  1  0.070039  0  0.091885  0.178901  0  1.026059  0
H  H20  1  0.12244301  0.08060257  0.35128405  1  0.045051  0  0.093351  0.176606  0  1.016555  0
H  H21  1  0.12244896  0.91940228  0.14871165  1  0.045031  0  0.093372  0.176628  0  1.016543  0
H  H22  1  0.87756337  0.91940316  0.64872080  1  0.044921  0  0.09338  0.176694  0  1.016373  0
H  H23  1  0.87755929  0.08058872  0.85127454  1  0.044974  0  0.093391  0.176691  0  1.016611  0
H  H24  1  0.15797449  0.15442179  0.46037939  1  0.063742  0  0.091233  0.179985  0  1.025241  0
H  H25  1  0.15797710  0.84558486  0.03961431  1  0.063595  0  0.091251  0.180074  0  1.025127  0
H  H26  1  0.84203002  0.84558714  0.53962223  1  0.063787  0  0.091247  0.180011  0  1.02513  0
H  H27  1  0.84204240  0.15440685  0.96037459  1  0.063782  0  0.091285  0.180024  0  1.025176  0
H  H28  1  0.65395409  0.05030097  0.10706663  1  0.047755  0  0.096271  0.1836  0  1.020896  0
H  H29  1  0.65394631  0.94970089  0.39293702  1  0.048163  0  0.096241  0.183552  0  1.020931  0
H  H30  1  0.34604104  0.94969773  0.89294570  1  0.047929  0  0.096208  0.18355  0  1.020811  0
H  H31  1  0.34603945  0.05028867  0.60707526  1  0.048426  0  0.096265  0.183567  0  1.021007  0
H  H32  1  0.63707592  0.14975540  0.19917954  1  0.059746  0  0.091802  0.179499  0  1.027861  0
H  H33  1  0.63706660  0.85024587  0.30082458  1  0.059671  0  0.091833  0.179477  0  1.027775  0
H  H34  1  0.36291547  0.85024521  0.80083035  1  0.059654  0  0.0918  0.179481  0  1.027872  0
H  H35  1  0.36290136  0.14974110  0.69918866  1  0.059987  0  0.091843  0.179485  0  1.02793  0
H  H36  1  0.64772537  0.04781394  0.21613932  1  0.04506  0  0.08902  0.166643  0  1.05397  0
H  H37  1  0.64773363  0.95218594  0.28386244  1  0.045465  0  0.089007  0.166589  0  1.054  0
H  H38  1  0.35225196  0.95218544  0.78387448  1  0.045549  0  0.089033  0.166666  0  1.053995  0
H  H39  1  0.35226244  0.04779766  0.71614532  1  0.044754  0  0.088988  0.166523  0  1.05375  0
H  H40  1  0.44143939  0.22996766  0.49872499  1  0.040402  0  0.088453  0.138274  0  1.035184  0
H  H41  1  0.44144453  0.77002552  0.00126479  1  0.040227  0  0.088427  0.138245  0  1.035177  0
H  H42  1  0.55857074  0.77004292  0.50126051  1  0.040513  0  0.088413  0.138255  0  1.035245  0
H  H43  1  0.55859278  0.22996988  0.99874578  1  0.040362  0  0.088443  0.138261  0  1.035351  0
H  H44  1  0.54591998  0.19624195  0.40840330  1  0.024473  0  0.094532  0.131895  0  1.023664  0
H  H45  1  0.54592600  0.80375939  0.09158824  1  0.024422  0  0.09451  0.13179  0  1.023779  0
H  H46  1  0.45408453  0.80376858  0.59157971  1  0.024436  0  0.094545  0.131934  0  1.023683  0
H  H47  1  0.45409257  0.19624085  0.90843574  1  0.024546  0  0.094575  0.131904  0  1.023744  0
H  H48  1  0.33215865  0.33034551  0.44263946  1  0.046135  0  0.087821  0.090904  0  1.006299  0
H  H49  1  0.33216363  0.66965011  0.05735531  1  0.047334  0  0.08779  0.090891  0  1.00616  0
H  H50  1  0.66783929  0.66965788  0.55734604  1  0.046027  0  0.087829  0.091009  0  1.006256  0
H  H51  1  0.66783900  0.33035177  0.94265254  1  0.045978  0  0.087795  0.09094  0  1.006384  0
H  H52  1  0.40220755  0.28470700  0.33684386  1  -0.001881  0  0.093729  0.083479  0  0.990914  0
H  H53  1  0.40220758  0.71529832  0.16315891  1  -0.00181  0  0.093712  0.083498  0  0.990752  0
H  H54  1  0.59778196  0.71529707  0.66314312  1  -0.001796  0  0.093727  0.083616  0  0.990691  0
H  H55  1  0.59779412  0.28470367  0.83685454  1  -0.001854  0  0.093752  0.083606  0  0.990569  0
H  H56  1  0.57881485  0.35255186  0.30373446  1  0.095114  0  0.096541  0.070862  0  1.042724  0
H  H57  1  0.57883075  0.64745951  0.19627523  1  0.09517  0  0.096473  0.070781  0  1.042644  0
H  H58  1  0.42120746  0.64743388  0.69624992  1  0.095565  0  0.096525  0.070918  0  1.042691  0
H  H59  1  0.42119719  0.35254909  0.80374297  1  0.095375  0  0.096547  0.070864  0  1.042684  0
H  H60  1  0.80741066  0.52171911  0.49666833  1  0.091056  0  0.092332  0.068638  0  1.05642  0
H  H61  1  0.80740845  0.47827761  0.00333354  1  0.090987  0  0.09232  0.068638  0  1.056466  0
H  H62  1  0.19260135  0.47827310  0.50331271  1  0.090484  0  0.092348  0.068577  0  1.05652  0
H  H63  1  0.19259419  0.52172168  0.99667527  1  0.090538  0  0.092301  0.068552  0  1.056465  0
H  H64  1  0.68735343  0.49679996  0.61765576  1  0.093494  0  0.099887  0.111691  0  1.004524  0
H  H65  1  0.68735775  0.50319268  0.88234432  1  0.093454  0  0.099896  0.111758  0  1.004569  0
H  H66  1  0.31261359  0.50323083  0.38232864  1  0.093908  0  0.09979  0.11163  0  1.004622  0
H  H67  1  0.31262801  0.49678894  0.11766276  1  0.093981  0  0.099837  0.111672  0  1.004577  0
H  H68  1  0.50126412  0.39436031  0.57765499  1  0.099348  0  0.091208  0.102777  0  1.034445  0
H  H69  1  0.50126111  0.60562849  0.92234885  1  0.099166  0  0.091218  0.102766  0  1.034393  0
H  H70  1  0.49869540  0.60567442  0.42233014  1  0.098797  0  0.091333  0.102872  0  1.034308  0
H  H71  1  0.49870779  0.39433959  0.07766656  1  0.099355  0  0.091325  0.102864  0  1.034348  0
H  H72  1  0.39174401  0.20186611  0.13273355  1  0.037485  0  0.09685  0.13655  0  1.008221  0
H  H73  1  0.39175392  0.79814323  0.36727250  1  0.03756  0  0.096827  0.136519  0  1.00841  0
H  H74  1  0.60825019  0.79812893  0.86725898  1  0.037599  0  0.096846  0.136582  0  1.008275  0
H  H75  1  0.60824027  0.20187869  0.63275831  1  0.037354  0  0.096866  0.13658  0  1.008121  0
H  H76  1  0.42102237  0.11492803  0.03226727  1  0.044273  0  0.099212  0.146824  0  1.017356  0
H  H77  1  0.42101036  0.88508759  0.46773154  1  0.044034  0  0.099149  0.146744  0  1.017573  0
H  H78  1  0.57898495  0.88506571  0.96772543  1  0.044398  0  0.099231  0.146923  0  1.017459  0
H  H79  1  0.57897353  0.11494258  0.53228788  1  0.044477  0  0.099218  0.146813  0  1.017391  0
H  H80  1  0.18168264  0.12221534  0.14172903  1  0.051382  0  0.099227  0.092652  0  0.97938  0
H  H81  1  0.18168109  0.87777664  0.35825336  1  0.050993  0  0.09924  0.092602  0  0.979168  0
H  H82  1  0.81830969  0.87777091  0.85824811  1  0.051458  0  0.099245  0.092623  0  0.97924  0
H  H83  1  0.81830374  0.12223388  0.64176241  1  0.051687  0  0.099256  0.092553  0  0.979217  0
H  H84  1  0.20941732  0.05408175  0.03071162  1  0.049483  0  0.097641  0.091952  0  0.977745  0
H  H85  1  0.20940038  0.94591810  0.46927769  1  0.049612  0  0.097466  0.091715  0  0.977445  0
H  H86  1  0.79058813  0.94591370  0.96926868  1  0.0496  0  0.0975  0.091837  0  0.977643  0
H  H87  1  0.79057508  0.05409251  0.53074244  1  0.049762  0  0.097525  0.091828  0  0.977814  0
H  H88  1  0.10476738  0.26771295  0.18203881  1  0.06416  0  0.097932  0.07558  0  1.040898  0
H  H89  1  0.10473491  0.73228927  0.31795297  1  0.064566  0  0.09792  0.075588  0  1.040826  0
H  H90  1  0.89528025  0.73229114  0.81794941  1  0.064948  0  0.097875  0.075448  0  1.040894  0
H  H91  1  0.89527054  0.26770864  0.68205228  1  0.064836  0  0.097835  0.075378  0  1.041054  0
H  H92  1  0.04129458  0.38452061  0.99691298  1  0.11322  0  0.090944  0.06822  0  1.071047  0
H  H93  1  0.04128529  0.61547541  0.50307852  1  0.112807  0  0.09097  0.068264  0  1.07113  0
H  H94  1  0.95872586  0.61548093  0.00307807  1  0.112941  0  0.090942  0.068253  0  1.071125  0
H  H95  1  0.95870516  0.38451984  0.49692458  1  0.112652  0  0.090937  0.068268  0  1.071156  0
H  H96  1  0.13983128  0.25982509  0.87670513  1  0.1069  0  0.103998  0.110212  0  1.002308  0
H  H97  1  0.13979880  0.74017797  0.62329642  1  0.106721  0  0.103953  0.110107  0  1.002079  0
H  H98  1  0.86016760  0.74016787  0.12328111  1  0.106898  0  0.10394  0.110109  0  1.002261  0
H  H99  1  0.86015604  0.25982935  0.37672257  1  0.107149  0  0.103855  0.109994  0  1.002315  0
H  H100  1  0.22683592  0.13243729  0.91307295  1  0.046707  0  0.106634  0.104858  0  0.990859  0
H  H101  1  0.22679862  0.86757061  0.58692435  1  0.046787  0  0.106538  0.104839  0  0.990919  0
H  H102  1  0.77316016  0.86755366  0.08691075  1  0.046951  0  0.106594  0.104857  0  0.990873  0
H  H103  1  0.77313841  0.13244919  0.41309832  1  0.04711  0  0.106591  0.104893  0  0.990855  0
C  C104  1  0.17693409  0.13918759  0.38967557  1  -0.842718  0  -0.294177  -0.808338  0  3.848771  0
C  C105  1  0.17694346  0.86081897  0.11031678  1  -0.842563  0  -0.294251  -0.80857  0  3.84875  0
C  C106  1  0.82306292  0.86082204  0.61032814  1  -0.842751  0  -0.294191  -0.808391  0  3.848586  0
C  C107  1  0.82306761  0.13917274  0.88967212  1  -0.842942  0  -0.294237  -0.80848  0  3.848812  0
C  C108  1  0.60954743  0.08004876  0.17242870  1  -0.822627  0  -0.292879  -0.812409  0  3.847241  0
C  C109  1  0.60954040  0.91995584  0.32757421  1  -0.822939  0  -0.292844  -0.812352  0  3.847292  0
C  C110  1  0.39044396  0.91995047  0.82757763  1  -0.822848  0  -0.292815  -0.812361  0  3.847129  0
C  C111  1  0.39043880  0.08003752  0.67243257  1  -0.823321  0  -0.292903  -0.812213  0  3.847066  0
C  C112  1  0.44819284  0.21652382  0.42713766  1  -0.716944  0  -0.211517  -0.579016  0  3.938643  0
C  C113  1  0.44819724  0.78347270  0.07285757  1  -0.716323  0  -0.211454  -0.578861  0  3.938947  0
C  C114  1  0.55180698  0.78348488  0.57285214  1  -0.717092  0  -0.211423  -0.578891  0  3.938956  0
C  C115  1  0.55181946  0.21652472  0.92715617  1  -0.72008  0  -0.211512  -0.578956  0  3.939025  0
C  C116  1  0.41899567  0.30052165  0.40804925  1  0.01359  0  -0.154867  -0.128976  0  3.99485  0
C  C117  1  0.41901239  0.69948086  0.09194630  1  0.012154  0  -0.154803  -0.129103  0  3.994937  0
C  C118  1  0.58099478  0.69948758  0.59193455  1  0.01375  0  -0.15487  -0.129293  0  3.995082  0
C  C119  1  0.58100149  0.30051783  0.90806540  1  0.0168  0  -0.154874  -0.129216  0  3.994936  0
C  C120  1  0.52478206  0.36529727  0.43715909  1  -0.001175  0  -0.004678  0.085112  0  3.955328  0
C  C121  1  0.52479275  0.63470300  0.06284083  1  -0.0024  0  -0.004653  0.085298  0  3.955442  0
C  C122  1  0.47520370  0.63471455  0.56282313  1  -0.001543  0  -0.004726  0.085211  0  3.95548  0
C  C123  1  0.47521083  0.36528921  0.93717360  1  -0.001742  0  -0.004673  0.085295  0  3.955245  0
C  C124  1  0.59845789  0.38327611  0.37454655  1  0.459562  0  0.032279  0.014792  0  3.91086  0
C  C125  1  0.59847178  0.61672390  0.12545359  1  0.460311  0  0.032357  0.014821  0  3.910756  0
C  C126  1  0.40154849  0.61670819  0.62543116  1  0.459869  0  0.03239  0.014679  0  3.910967  0
C  C127  1  0.40154397  0.38327548  0.87456020  1  0.459575  0  0.032285  0.014719  0  3.910734  0
C  C128  1  0.72635982  0.47809841  0.48207916  1  0.457807  0  0.028527  0.068596  0  3.951652  0
C  C129  1  0.72636668  0.52189533  0.01792326  1  0.457606  0  0.028521  0.06861  0  3.951865  0
C  C130  1  0.27364937  0.52189249  0.51790205  1  0.458008  0  0.028679  0.068827  0  3.951612  0
C  C131  1  0.27364345  0.47809940  0.98208647  1  0.458484  0  0.028654  0.068821  0  3.951655  0
C  C132  1  0.65864879  0.46362100  0.54906242  1  -0.036055  0  -0.087721  -0.117446  0  3.997511  0
C  C133  1  0.65865420  0.53637245  0.95094053  1  -0.035758  0  -0.087755  -0.117724  0  3.997553  0
C  C134  1  0.34132760  0.53640130  0.45092216  1  -0.034542  0  -0.087846  -0.117629  0  3.997206  0
C  C135  1  0.34133719  0.46361123  0.04907158  1  -0.036796  0  -0.087788  -0.117529  0  3.997365  0
C  C136  1  0.55692170  0.40654300  0.52658175  1  -0.0641  0  -0.071411  -0.078083  0  3.905241  0
C  C137  1  0.55691730  0.59345349  0.97342513  1  -0.063392  0  -0.071477  -0.078074  0  3.905265  0
C  C138  1  0.44306313  0.59348265  0.47340707  1  -0.065662  0  -0.071496  -0.078174  0  3.905266  0
C  C139  1  0.44306190  0.40652570  0.02659100  1  -0.064292  0  -0.071518  -0.078269  0  3.905398  0
C  C140  1  0.37085805  0.13190161  0.09573381  1  -0.710818  0  -0.206209  -0.574022  0  3.916838  0
C  C141  1  0.37086172  0.86809853  0.40426545  1  -0.710507  0  -0.206208  -0.573973  0  3.916823  0
C  C142  1  0.62913146  0.86808951  0.90425861  1  -0.711064  0  -0.206218  -0.574193  0  3.916805  0
C  C143  1  0.62912779  0.13191271  0.59575365  1  -0.710426  0  -0.206251  -0.574086  0  3.91665  0
C  C144  1  0.22835744  0.11974028  0.08016177  1  -0.038841  0  -0.148751  -0.125008  0  3.997709  0
C  C145  1  0.22834966  0.88024848  0.41983169  1  -0.038667  0  -0.148593  -0.124757  0  3.997252  0
C  C146  1  0.77165082  0.88025140  0.91982590  1  -0.038645  0  -0.148689  -0.124987  0  3.99735  0
C  C147  1  0.77163423  0.11975348  0.58018052  1  -0.039262  0  -0.148555  -0.124645  0  3.99747  0
C  C148  1  0.17301970  0.18983836  0.05094233  1  -4e-05  0  -0.004422  0.081211  0  3.960633  0
C  C149  1  0.17300909  0.81016171  0.44905153  1  0.000264  0  -0.004497  0.081252  0  3.961386  0
C  C150  1  0.82698856  0.81015784  0.94904256  1  -0.000187  0  -0.004476  0.081391  0  3.960892  0
C  C151  1  0.82697105  0.18984615  0.55096209  1  -0.00059  0  -0.004645  0.081088  0  3.961259  0
C  C152  1  0.11498685  0.26271062  0.11315914  1  0.459412  0  0.033881  0.019363  0  3.900614  0
C  C153  1  0.11496400  0.73728976  0.38684000  1  0.458693  0  0.033797  0.019286  0  3.900556  0
C  C154  1  0.88504765  0.73728839  0.88683599  1  0.460185  0  0.033825  0.019401  0  3.900412  0
C  C155  1  0.88503114  0.26271285  0.61317181  1  0.458302  0  0.034011  0.019739  0  3.900541  0
C  C156  1  0.07913171  0.32831914  0.01014856  1  0.440199  0  0.031992  0.077495  0  3.928791  0
C  C157  1  0.07911842  0.67167740  0.48984880  1  0.440721  0  0.031914  0.077392  0  3.929336  0
C  C158  1  0.92087748  0.67167123  0.98983865  1  0.440737  0  0.032057  0.077473  0  3.929118  0
C  C159  1  0.92087391  0.32832513  0.51015928  1  0.440679  0  0.031988  0.077301  0  3.929062  0
C  C160  1  0.13473030  0.25822443  0.94340843  1  -0.03809  0  -0.085643  -0.116247  0  3.998191  0
C  C161  1  0.13470127  0.74177644  0.55658065  1  -0.036595  0  -0.085614  -0.116025  0  3.998166  0
C  C162  1  0.86527889  0.74176788  0.05657821  1  -0.037203  0  -0.085607  -0.11613  0  3.998101  0
C  C163  1  0.86526106  0.25823325  0.44342618  1  -0.037435  0  -0.085381  -0.115714  0  3.997678  0
C  C164  1  0.18229618  0.18820503  0.96394730  1  -0.012243  0  -0.072539  -0.097384  0  3.946222  0
C  C165  1  0.18226427  0.81179563  0.53603966  1  -0.013722  0  -0.072266  -0.097342  0  3.946705  0
C  C166  1  0.81770645  0.81178714  0.03603187  1  -0.013108  0  -0.072408  -0.097418  0  3.946471  0
C  C167  1  0.81768775  0.18821227  0.46397583  1  -0.013026  0  -0.072513  -0.097664  0  3.946409  0
I  I168  1  0.73716286  0.35516679  0.14603158  1  -0.425763  0  -0.191319  -0.313417  0  1.83591  0
I  I169  1  0.73716037  0.64483923  0.35396636  1  -0.425652  0  -0.19133  -0.313431  0  1.835872  0
I  I170  1  0.26286695  0.64483971  0.85394572  1  -0.425693  0  -0.191348  -0.313446  0  1.835759  0
I  I171  1  0.26286289  0.35515603  0.64603737  1  -0.425498  0  -0.191308  -0.313402  0  1.835937  0
I  I172  1  0.03841837  0.42419874  0.34233501  1  -0.414659  0  -0.166664  -0.29786  0  1.978403  0
I  I173  1  0.03842086  0.57580063  0.15766595  1  -0.414611  0  -0.166668  -0.297897  0  1.978434  0
I  I174  1  0.96161051  0.57579113  0.65766007  1  -0.414596  0  -0.166701  -0.297983  0  1.978507  0
I  I175  1  0.96160240  0.42420768  0.84233731  1  -0.414716  0  -0.166695  -0.297945  0  1.978588  0
N  N176  1  0.69718290  0.43838244  0.39596801  1  -1.242733  0  -0.371846  -0.163298  0  3.690129  0
N  N177  1  0.69718689  0.56161919  0.10403167  1  -1.242967  0  -0.371788  -0.16315  0  3.690254  0
N  N178  1  0.30283005  0.56160589  0.60401479  1  -1.242443  0  -0.371959  -0.163344  0  3.690527  0
N  N179  1  0.30282605  0.43838206  0.89597720  1  -1.241892  0  -0.371865  -0.163294  0  3.690364  0
N  N180  1  0.06888218  0.33065188  0.09390693  1  -1.227541  0  -0.362999  -0.157324  0  3.660179  0
N  N181  1  0.06886596  0.66934408  0.40609212  1  -1.227358  0  -0.362973  -0.157399  0  3.660263  0
N  N182  1  0.93115513  0.66934708  0.90608571  1  -1.229616  0  -0.362941  -0.157299  0  3.660246  0
N  N183  1  0.93113855  0.33065334  0.59392162  1  -1.227268  0  -0.363006  -0.15743  0  3.66027  0
O  O184  1  0.36599098  0.10364039  0.25839285  1  -1.615365  0  -0.294743  -0.797888  0  2.386951  0
O  O185  1  0.36599612  0.89636095  0.24160004  1  -1.615739  0  -0.29476  -0.797977  0  2.386845  0
O  O186  1  0.63399104  0.89635991  0.74160148  1  -1.615619  0  -0.294709  -0.797765  0  2.386972  0
O  O187  1  0.63399433  0.10364284  0.75840538  1  -1.615206  0  -0.294858  -0.798075  0  2.38703  0
O  O188  1  0.39902572  0.03672448  0.38853302  1  -1.61603  0  -0.299149  -0.786408  0  2.33044  0
O  O189  1  0.39903656  0.96327673  0.11145907  1  -1.616069  0  -0.299098  -0.7864  0  2.33019  0
O  O190  1  0.60097692  0.96328375  0.61146589  1  -1.616166  0  -0.299052  -0.786306  0  2.330549  0
O  O191  1  0.60097077  0.03671842  0.88853905  1  -1.616129  0  -0.299058  -0.786308  0  2.33048  0
