# generated using pymatgen
data_Tb2Zn3H36C30(N2O5)6
_symmetry_space_group_name_H-M   'P 1'
_cell_length_a   10.81902769
_cell_length_b   12.59140273
_cell_length_c   12.59139642
_cell_angle_alpha   90.85825421
_cell_angle_beta   114.33977987
_cell_angle_gamma   114.33978243
_symmetry_Int_Tables_number   1
_chemical_formula_structural   Tb2Zn3H36C30(N2O5)6
_chemical_formula_sum   'Tb2 Zn3 H36 C30 N12 O30'
_cell_volume   1388.16940571
_cell_formula_units_Z   1
loop_
 _symmetry_equiv_pos_site_id
 _symmetry_equiv_pos_as_xyz
  1  'x, y, z'
loop_
 _atom_site_type_symbol
 _atom_site_label
 _atom_site_symmetry_multiplicity
 _atom_site_fract_x
 _atom_site_fract_y
 _atom_site_fract_z
 _atom_site_occupancy
 _atom_site_pbe_bader_charge
 _atom_site_pbe_bader_spin_density
 _atom_site_pbe_cm5_charge
 _atom_site_pbe_ddec_charge
 _atom_site_pbe_ddec_spin_density
 _atom_site_pbe_ddec_sum_bond_order
 _atom_site_pbe_magmom
Tb  Tb0  1  0.49999989  0.79276537  0.20723418  1  2.17122  0  1.487888  2.052019  0  2.134457  0
Tb  Tb1  1  0.50000006  0.20723286  0.79276823  1  2.171156  0  1.487834  2.051951  0  2.134501  0
Zn  Zn2  1  0.49999970  0.99999978  0.00000024  1  1.424465  0  0.730302  1.109125  0  2.169549  0
Zn  Zn3  1  0.50000007  0.50000028  0.99999928  1  1.391638  0  0.688404  1.031343  0  2.155295  0
Zn  Zn4  1  0.49999826  0.00000002  0.50000014  1  1.391563  0  0.688403  1.031323  0  2.155297  0
H  H5  1  0.38880223  0.14577106  0.26352822  1  0.075331  0  0.118816  0.119012  0  0.970994  0
H  H6  1  0.95275089  0.56736779  0.05696728  1  0.083152  0  0.125761  0.13204  0  0.954797  0
H  H7  1  0.23319744  0.89687693  0.80676970  1  0.626191  0  0.318657  0.417274  0  0.886109  0
H  H8  1  0.23437933  0.21980721  0.00268088  1  0.137551  0  0.127214  0.139381  0  0.983404  0
H  H9  1  0.27837797  0.34789493  0.78999427  1  0.669842  0  0.297659  0.402663  0  0.927745  0
H  H10  1  0.04724856  0.43263136  0.94303181  1  0.083155  0  0.125789  0.132044  0  0.954854  0
H  H11  1  0.65470476  0.52490042  0.23253757  1  0.59159  0  0.324074  0.399714  0  0.874488  0
H  H12  1  0.04724674  0.94303218  0.43263012  1  0.083172  0  0.125764  0.132025  0  0.954819  0
H  H13  1  0.76562064  0.99732000  0.78019288  1  0.137553  0  0.127195  0.139344  0  0.98339  0
H  H14  1  0.77855592  0.75766020  0.60139633  1  0.136378  0  0.12492  0.132554  0  0.982607  0
H  H15  1  0.99076918  0.71036853  0.11970492  1  0.087342  0  0.11805  0.124252  0  0.962946  0
H  H16  1  0.76680707  0.19322958  0.10312629  1  0.626211  0  0.31866  0.417302  0  0.886094  0
H  H17  1  0.77855928  0.60139828  0.75765990  1  0.136288  0  0.12494  0.132579  0  0.982657  0
H  H18  1  0.72162180  0.21000469  0.65210366  1  0.669862  0  0.297661  0.402673  0  0.927731  0
H  H19  1  0.23319340  0.80676957  0.89687395  1  0.626212  0  0.31865  0.417254  0  0.886123  0
H  H20  1  0.61119950  0.73647287  0.85422933  1  0.075308  0  0.118802  0.118997  0  0.970986  0
H  H21  1  0.22144150  0.24233894  0.39860284  1  0.136313  0  0.124916  0.132544  0  0.982668  0
H  H22  1  0.22144377  0.39860357  0.24233972  1  0.136379  0  0.124928  0.132559  0  0.98264  0
H  H23  1  0.65470373  0.23253702  0.52490032  1  0.59159  0  0.324074  0.399727  0  0.874492  0
H  H24  1  0.76680356  0.10312310  0.19323233  1  0.626173  0  0.31863  0.417267  0  0.886125  0
H  H25  1  0.27837867  0.78999446  0.34789658  1  0.66984  0  0.297663  0.402664  0  0.927742  0
H  H26  1  0.95275222  0.05696787  0.56736802  1  0.083152  0  0.125761  0.132033  0  0.954806  0
H  H27  1  0.14544412  0.16781027  0.49164362  1  0.060847  0  0.115832  0.117122  0  0.977006  0
H  H28  1  0.34529420  0.47509962  0.76746217  1  0.591591  0  0.32408  0.399735  0  0.87447  0
H  H29  1  0.61119877  0.85422897  0.73647302  1  0.075297  0  0.118816  0.118994  0  0.971014  0
H  H30  1  0.00923196  0.88029472  0.28963007  1  0.087287  0  0.118043  0.124246  0  0.962917  0
H  H31  1  0.14544571  0.49164362  0.16780996  1  0.060866  0  0.115854  0.117156  0  0.97699  0
H  H32  1  0.00923335  0.28963243  0.88029450  1  0.087322  0  0.118044  0.124215  0  0.962989  0
H  H33  1  0.99076700  0.11970533  0.71036807  1  0.087296  0  0.118046  0.124241  0  0.962941  0
H  H34  1  0.76562221  0.78019550  0.99732141  1  0.137585  0  0.127227  0.139375  0  0.983325  0
H  H35  1  0.85455179  0.83218976  0.50835505  1  0.060867  0  0.115844  0.117138  0  0.97698  0
H  H36  1  0.34529369  0.76746212  0.47509964  1  0.591586  0  0.324074  0.399726  0  0.874447  0
H  H37  1  0.38880201  0.26352806  0.14577211  1  0.075305  0  0.118808  0.119002  0  0.971001  0
H  H38  1  0.85455580  0.50835733  0.83218910  1  0.060862  0  0.115835  0.117122  0  0.976996  0
H  H39  1  0.23437833  0.00268005  0.21980605  1  0.13758  0  0.127229  0.139382  0  0.983381  0
H  H40  1  0.72162149  0.65210421  0.21000562  1  0.669851  0  0.297665  0.40267  0  0.927732  0
C  C41  1  0.67389596  0.93986331  0.80113207  1  0.308994  0  -0.053867  -0.208835  0  3.908321  0
C  C42  1  0.81333358  0.84253091  0.57265061  1  0.302487  0  -0.054081  -0.21401  0  3.910092  0
C  C43  1  0.32829842  0.49277731  0.13913923  1  1.604701  0  0.228524  0.653759  0  4.147738  0
C  C44  1  0.99344204  0.33714106  0.94365792  1  0.33174  0  -0.052083  -0.198768  0  3.91098  0
C  C45  1  0.32829814  0.13914035  0.49278025  1  1.604682  0  0.22855  0.653901  0  4.147519  0
C  C46  1  0.82275068  0.89777558  0.29393844  1  1.570005  0  0.19777  0.604005  0  4.209933  0
C  C47  1  0.81333360  0.57265043  0.84252893  1  0.30254  0  -0.054065  -0.213985  0  3.910071  0
C  C48  1  0.98018332  0.91505178  0.78906263  1  1.542245  0  0.338218  0.474052  0  4.153854  0
C  C49  1  0.18666488  0.15747001  0.42734976  1  0.302537  0  -0.054037  -0.213953  0  3.910061  0
C  C50  1  0.01981685  0.21093708  0.08494781  1  1.541887  0  0.338203  0.474014  0  4.154009  0
C  C51  1  0.17725011  0.70606000  0.10222353  1  1.569809  0  0.197767  0.604057  0  4.209869  0
C  C52  1  0.00655896  0.66285900  0.05634094  1  0.331766  0  -0.052091  -0.198877  0  3.910969  0
C  C53  1  0.57047275  0.77618324  0.99905904  1  1.584066  0  0.227602  0.657866  0  4.084367  0
C  C54  1  0.01981564  0.08494827  0.21093551  1  1.542244  0  0.338236  0.474048  0  4.153956  0
C  C55  1  0.98018161  0.78906387  0.91504939  1  1.5423  0  0.33822  0.474054  0  4.153837  0
C  C56  1  0.17724929  0.10222445  0.70606244  1  1.570019  0  0.197772  0.60401  0  4.20987  0
C  C57  1  0.85610219  0.01327395  0.01327440  1  1.567881  0  0.342975  0.485775  0  4.131579  0
C  C58  1  0.67170052  0.50722097  0.86085807  1  1.604674  0  0.228556  0.653951  0  4.147647  0
C  C59  1  0.42952767  0.22381232  0.00094348  1  1.583944  0  0.227649  0.657968  0  4.084235  0
C  C60  1  0.18666638  0.42734962  0.15746957  1  0.302487  0  -0.054075  -0.21397  0  3.910111  0
C  C61  1  0.14389779  0.98672610  0.98672569  1  1.567685  0  0.34297  0.485792  0  4.131619  0
C  C62  1  0.42952663  0.00094069  0.22381725  1  1.584067  0  0.227603  0.657892  0  4.084341  0
C  C63  1  0.67169981  0.86085965  0.50722231  1  1.604687  0  0.228536  0.653828  0  4.147737  0
C  C64  1  0.00655919  0.05634143  0.66285906  1  0.331742  0  -0.052104  -0.19886  0  3.910934  0
C  C65  1  0.32610464  0.19886977  0.06013746  1  0.30913  0  -0.05395  -0.208971  0  3.90846  0
C  C66  1  0.32610248  0.06013584  0.19886666  1  0.30892  0  -0.053936  -0.208956  0  3.908414  0
C  C67  1  0.82275086  0.29393827  0.89777528  1  1.570009  0  0.197833  0.604127  0  4.209764  0
C  C68  1  0.67389742  0.80113385  0.93986344  1  0.308925  0  -0.053914  -0.208915  0  3.908385  0
C  C69  1  0.57047028  0.99905751  0.77618648  1  1.584438  0  0.227598  0.657917  0  4.084337  0
C  C70  1  0.99343977  0.94365861  0.33714067  1  0.331738  0  -0.052068  -0.198824  0  3.910909  0
N  N71  1  0.06766003  0.06401027  0.32319744  1  -1.188177  0  -0.277533  -0.076071  0  3.677032  0
N  N72  1  0.93233987  0.67680233  0.93599013  1  -1.188178  0  -0.277523  -0.076077  0  3.677078  0
N  N73  1  0.73726984  0.92043554  0.92043598  1  -1.195124  0  -0.276201  -0.074985  0  3.642207  0
N  N74  1  0.91780251  0.80160684  0.80160721  1  -1.239909  0  -0.368087  -0.56044  0  3.278076  0
N  N75  1  0.09150693  0.87801469  0.01141800  1  -1.228205  0  -0.352928  -0.531167  0  3.292331  0
N  N76  1  0.26273167  0.07956540  0.07956467  1  -1.195304  0  -0.2761  -0.074917  0  3.642136  0
N  N77  1  0.09150561  0.01141836  0.87801530  1  -1.228189  0  -0.352934  -0.531206  0  3.29243  0
N  N78  1  0.90849560  0.12198626  0.98858141  1  -1.228356  0  -0.352902  -0.531166  0  3.29243  0
N  N79  1  0.08219746  0.19839319  0.19839367  1  -1.23952  0  -0.368078  -0.560417  0  3.27805  0
N  N80  1  0.06766010  0.32319772  0.06400917  1  -1.188193  0  -0.277537  -0.076138  0  3.677213  0
N  N81  1  0.90849489  0.98858257  0.12198578  1  -1.22835  0  -0.35295  -0.531187  0  3.292463  0
N  N82  1  0.93233841  0.93598888  0.67680129  1  -1.188205  0  -0.277462  -0.076006  0  3.677057  0
O  O83  1  0.34048891  0.43878822  0.06123448  1  -1.173693  0  -0.301244  -0.551074  0  2.35479  0
O  O84  1  0.50272626  0.01130877  0.67193583  1  -1.18749  0  -0.304059  -0.58551  0  2.336301  0
O  O85  1  0.57513623  0.79339284  0.40456694  1  -1.216572  0  -0.43115  -0.691269  0  2.352924  0
O  O86  1  0.57513853  0.40456576  0.79339196  1  -1.216579  0  -0.431138  -0.691322  0  2.352898  0
O  O87  1  0.43923130  0.13746474  0.95504241  1  -1.203308  0  -0.374096  -0.673225  0  2.482398  0
O  O88  1  0.69271426  0.56702807  0.17989247  1  -1.222217  0  -0.565926  -0.741726  0  2.024967  0
O  O89  1  0.73756675  0.78419826  0.25986179  1  -1.211592  0  -0.381135  -0.655739  0  2.312467  0
O  O90  1  0.56076819  0.86253616  0.04496070  1  -1.203388  0  -0.374169  -0.673301  0  2.482289  0
O  O91  1  0.50272876  0.67193602  0.01130778  1  -1.18754  0  -0.304017  -0.585407  0  2.336391  0
O  O92  1  0.65951058  0.93876460  0.56121182  1  -1.173691  0  -0.301241  -0.551097  0  2.354794  0
O  O93  1  0.26243280  0.74013648  0.21580222  1  -1.211582  0  -0.381126  -0.655768  0  2.31245  0
O  O94  1  0.43923217  0.95503976  0.13746380  1  -1.20338  0  -0.374172  -0.673316  0  2.48228  0
O  O95  1  0.69271473  0.17989255  0.56702864  1  -1.22222  0  -0.565921  -0.741737  0  2.02498  0
O  O96  1  0.23395503  0.03217114  0.70393639  1  -1.188057  0  -0.359524  -0.622032  0  2.186931  0
O  O97  1  0.49727481  0.32806675  0.98868966  1  -1.187415  0  -0.304107  -0.58555  0  2.336122  0
O  O98  1  0.70599333  0.13576595  0.13576743  1  -1.193644  0  -0.551017  -0.736683  0  2.079643  0
O  O99  1  0.42486452  0.59543609  0.20660766  1  -1.21657  0  -0.431167  -0.691249  0  2.352861  0
O  O100  1  0.30728519  0.43297108  0.82010742  1  -1.222212  0  -0.565919  -0.741739  0  2.024976  0
O  O101  1  0.56076677  0.04495850  0.86253509  1  -1.203771  0  -0.374128  -0.673259  0  2.48239  0
O  O102  1  0.34048838  0.06123542  0.43878950  1  -1.173649  0  -0.301246  -0.551125  0  2.354738  0
O  O103  1  0.42486019  0.20660626  0.59543584  1  -1.216593  0  -0.431161  -0.691284  0  2.352793  0
O  O104  1  0.76604597  0.96782887  0.29606723  1  -1.188073  0  -0.359546  -0.622045  0  2.186928  0
O  O105  1  0.23395532  0.70393306  0.03217095  1  -1.187908  0  -0.359552  -0.622055  0  2.186921  0
O  O106  1  0.29400665  0.86423410  0.86423186  1  -1.193659  0  -0.55104  -0.736646  0  2.079646  0
O  O107  1  0.30728371  0.82010660  0.43297089  1  -1.222138  0  -0.565927  -0.741731  0  2.024944  0
O  O108  1  0.73756663  0.25986089  0.78419682  1  -1.211629  0  -0.381131  -0.655783  0  2.312397  0
O  O109  1  0.65951002  0.56121006  0.93876202  1  -1.173643  0  -0.30127  -0.551169  0  2.354822  0
O  O110  1  0.49727168  0.98869126  0.32806354  1  -1.187542  0  -0.304031  -0.585427  0  2.336389  0
O  O111  1  0.26243224  0.21580357  0.74013720  1  -1.211603  0  -0.381146  -0.655736  0  2.312398  0
O  O112  1  0.76604567  0.29606700  0.96782791  1  -1.188059  0  -0.359586  -0.622101  0  2.186913  0
