# generated using pymatgen
data_Zn2H18C32S3(N2O5)3
_symmetry_space_group_name_H-M   'P 1'
_cell_length_a   12.80389974
_cell_length_b   15.96450065
_cell_length_c   17.22135573
_cell_angle_alpha   95.43539064
_cell_angle_beta   90.51365292
_cell_angle_gamma   93.69449972
_symmetry_Int_Tables_number   1
_chemical_formula_structural   Zn2H18C32S3(N2O5)3
_chemical_formula_sum   'Zn2 H18 C32 S3 N6 O15'
_cell_volume   3496.66756764
_cell_formula_units_Z   1
loop_
 _symmetry_equiv_pos_site_id
 _symmetry_equiv_pos_as_xyz
  1  'x, y, z'
loop_
 _atom_site_type_symbol
 _atom_site_label
 _atom_site_symmetry_multiplicity
 _atom_site_fract_x
 _atom_site_fract_y
 _atom_site_fract_z
 _atom_site_occupancy
 _atom_site_pbe_bader_charge
 _atom_site_pbe_bader_spin_density
 _atom_site_pbe_cm5_charge
 _atom_site_pbe_ddec_charge
 _atom_site_pbe_ddec_spin_density
 _atom_site_pbe_ddec_sum_bond_order
 _atom_site_pbe_magmom
Zn  Zn0  1  0.49732901  0.40942990  0.49738256  1  1.287104  0  0.679563  0.830652  0  2.402923  0
Zn  Zn1  1  0.49988753  0.59065654  0.50090449  1  1.285805  0  0.675249  0.832406  0  2.394184  0
H  H2  1  0.38100751  0.71838862  0.44154694  1  0.127972  0  0.126341  0.101771  0  0.970284  0
H  H3  1  0.38209621  0.87649337  0.44455903  1  0.123599  0  0.115557  0.129809  0  1.008548  0
H  H4  1  0.66886780  0.89033068  0.58124328  1  0.110657  0  0.127969  0.15693  0  0.96466  0
H  H5  1  0.36600905  0.10699846  0.39604868  1  0.137484  0  0.128219  0.156442  0  0.963719  0
H  H6  1  0.60657195  0.12839646  0.57623887  1  0.095996  0  0.116843  0.13109  0  1.005404  0
H  H7  1  0.60197017  0.28614770  0.57847581  1  0.137499  0  0.128613  0.104337  0  0.967018  0
H  H8  1  0.50453714  0.61904034  0.25825211  1  0.090915  0  0.103765  0.108992  0  0.993672  0
H  H9  1  0.50131065  0.61327623  0.11177178  1  0.097454  0  0.103234  0.10894  0  1.025769  0
H  H10  1  0.50592964  0.34262861  0.09904887  1  0.098758  0  0.11545  0.137231  0  0.982047  0
H  H11  1  0.50963147  0.65743371  0.89963290  1  0.132436  0  0.115062  0.137245  0  0.982509  0
H  H12  1  0.48459946  0.38581883  0.88506524  1  0.097589  0  0.103687  0.109504  0  1.021742  0
H  H13  1  0.47819660  0.38131050  0.73869845  1  0.090937  0  0.106614  0.112401  0  0.989752  0
H  H14  1  0.87396276  0.63447131  0.50401627  1  0.098326  0  0.120086  0.145205  0  0.974058  0
H  H15  1  0.67907252  0.66630560  0.55112539  1  0.675143  0  0.309682  0.366911  0  0.972887  0
H  H16  1  0.34187742  0.32718542  0.41865831  1  0.655624  0  0.320114  0.380383  0  0.930876  0
H  H17  1  0.51535724  0.34847831  0.30602561  1  0.638747  0  0.301081  0.351175  0  0.974867  0
H  H18  1  0.50768926  0.65332546  0.69272758  1  0.627155  0  0.301165  0.350726  0  0.977136  0
H  H19  1  0.06973362  0.27439287  0.39341822  1  0.61417  0  0.357752  0.405784  0  0.831391  0
C  C20  1  0.50845647  0.49122731  0.34698564  1  1.503286  0  0.215275  0.608636  0  4.145902  0
C  C21  1  0.29219967  0.49396271  0.49139936  1  1.644686  0  0.216928  0.612286  0  4.189223  0
C  C22  1  0.48956665  0.51048708  0.65099940  1  1.43818  0  0.216989  0.607813  0  4.143815  0
C  C23  1  0.70645643  0.50331729  0.51161078  1  1.604754  0  0.217701  0.616332  0  4.18485  0
C  C24  1  0.44353948  0.75958741  0.47078973  1  0.399372  0  0.050369  0.127056  0  3.95802  0
C  C25  1  0.44363646  0.84603950  0.47281185  1  0.052547  0  -0.092042  -0.230937  0  3.9671  0
C  C26  1  0.52647244  0.89429090  0.51370899  1  0.347317  0  0.10594  0.223835  0  4.051366  0
C  C27  1  0.60448834  0.85428399  0.54930672  1  0.127639  0  -0.073741  -0.283044  0  3.836281  0
C  C28  1  0.60106551  0.76551963  0.54131769  1  1.053979  0  0.226668  0.493145  0  4.05123  0
C  C29  1  0.41960563  0.14461239  0.43683200  1  0.049605  0  -0.067994  -0.271984  0  3.827757  0
C  C30  1  0.48596971  0.10675982  0.48512766  1  0.349918  0  0.104527  0.21992  0  4.050927  0
C  C31  1  0.55400257  0.15702187  0.53812632  1  0.057372  0  -0.089096  -0.225453  0  3.95316  0
C  C32  1  0.55106411  0.24331866  0.53961478  1  0.408971  0  0.05469  0.131905  0  3.942102  0
C  C33  1  0.42034968  0.23314584  0.44304816  1  1.111279  0  0.230183  0.494342  0  4.045776  0
C  C34  1  0.50790898  0.48513908  0.26091589  1  -0.0149  0  -0.040335  -0.192256  0  3.967327  0
C  C35  1  0.50500861  0.55913385  0.22221349  1  -0.01687  0  -0.084837  -0.054539  0  4.016435  0
C  C36  1  0.50312059  0.55645259  0.14188061  1  -0.029667  0  -0.102266  -0.184467  0  3.992859  0
C  C37  1  0.50325778  0.47721169  0.09767026  1  0.350701  0  0.090194  0.197088  0  4.061423  0
C  C38  1  0.50601443  0.40303920  0.13425699  1  -0.044923  0  -0.090319  -0.258525  0  3.892391  0
C  C39  1  0.50918871  0.40589106  0.21588459  1  0.560217  0  0.095166  0.329073  0  4.054358  0
C  C40  1  0.50308655  0.59710832  0.86406775  1  0.005592  0  -0.090202  -0.260048  0  3.892595  0
C  C41  1  0.49753506  0.52230353  0.90011738  1  0.338047  0  0.091022  0.197689  0  4.063141  0
C  C42  1  0.48878711  0.44314823  0.85542132  1  -0.041419  0  -0.101583  -0.184387  0  3.988445  0
C  C43  1  0.48564196  0.44112989  0.77511925  1  0.008555  0  -0.082518  -0.051348  0  4.011037  0
C  C44  1  0.49188019  0.51579192  0.73699717  1  0.017833  0  -0.036295  -0.19014  0  3.970724  0
C  C45  1  0.50111731  0.59502666  0.78250026  1  0.543486  0  0.093512  0.327889  0  4.055793  0
C  C46  1  0.10174950  0.42519629  0.50694801  1  -0.100426  0  -0.027355  -0.159485  0  3.998954  0
C  C47  1  0.89453780  0.56989626  0.50765970  1  0.08007  0  -0.090014  -0.136636  0  3.963148  0
C  C48  1  0.17674761  0.49115068  0.49959410  1  -0.173347  0  -0.008362  -0.101999  0  3.903317  0
C  C49  1  0.82138134  0.50313063  0.51265914  1  -0.223184  0  -0.024078  -0.119864  0  3.982362  0
C  C50  1  0.99687182  0.54142216  0.50675614  1  -0.153019  0  -0.020131  -0.001628  0  4.057171  0
C  C51  1  0.99893909  0.45368827  0.51110004  1  -0.132314  0  -0.021111  -0.036964  0  4.078114  0
S  S52  1  0.12141137  0.58756313  0.49993082  1  0.307433  0  0.108591  0.158362  0  2.751242  0
S  S53  1  0.87511373  0.40636965  0.51734795  1  0.323497  0  0.095939  0.157914  0  2.846668  0
S  S54  1  0.11952489  0.31647460  0.51010968  1  3.096716  0  0.541309  1.170196  0  6.00524  0
N  N55  1  0.52002651  0.71937604  0.50442729  1  -1.24812  0  -0.340319  -0.344029  0  3.467863  0
N  N56  1  0.53713513  0.98384052  0.52193247  1  -0.484893  0  -0.128926  -0.111663  0  3.21413  0
N  N57  1  0.47734122  0.01722098  0.47680224  1  -0.488121  0  -0.126077  -0.110252  0  3.226752  0
N  N58  1  0.48604666  0.28116583  0.49301410  1  -1.239162  0  -0.338485  -0.33746  0  3.47576  0
N  N59  1  0.50042646  0.46560575  0.01515633  1  -0.473366  0  -0.144011  -0.129147  0  3.260997  0
N  N60  1  0.50119286  0.53350341  0.98256824  1  -0.482693  0  -0.147032  -0.13217  0  3.268911  0
O  O61  1  0.51841452  0.42256706  0.38007632  1  -1.164682  0  -0.314707  -0.563407  0  2.370518  0
O  O62  1  0.49894508  0.56284470  0.38447654  1  -1.16658  0  -0.315941  -0.536847  0  2.346643  0
O  O63  1  0.33842395  0.56714864  0.50342890  1  -1.152121  0  -0.309865  -0.534267  0  2.316041  0
O  O64  1  0.33649115  0.42578199  0.47298605  1  -1.183873  0  -0.304397  -0.55414  0  2.376384  0
O  O65  1  0.50241595  0.58060049  0.61885001  1  -1.161709  0  -0.314761  -0.562005  0  2.377603  0
O  O66  1  0.47560239  0.43865258  0.61244801  1  -1.158465  0  -0.311358  -0.527695  0  2.336026  0
O  O67  1  0.65650114  0.43239241  0.51455315  1  -1.160882  0  -0.307541  -0.529343  0  2.331682  0
O  O68  1  0.66448036  0.57346323  0.50605942  1  -1.185872  0  -0.311338  -0.56334  0  2.361604  0
O  O69  1  0.68004151  0.72803964  0.57112467  1  -1.178501  0  -0.338028  -0.460534  0  2.250405  0
O  O70  1  0.35501485  0.26860199  0.39749154  1  -1.13654  0  -0.328811  -0.448299  0  2.29511  0
O  O71  1  0.51268975  0.33247705  0.24829878  1  -1.146354  0  -0.362125  -0.446709  0  2.247107  0
O  O72  1  0.50804439  0.66907947  0.75055257  1  -1.132643  0  -0.361101  -0.445721  0  2.241149  0
O  O73  1  0.13826285  0.28597490  0.41928484  1  -1.161884  0  -0.355008  -0.526692  0  2.1678  0
O  O74  1  0.21401291  0.30243484  0.55019367  1  -1.275123  0  -0.29313  -0.484106  0  2.137164  0
O  O75  1  0.01964224  0.27871176  0.53118211  1  -1.292769  0  -0.315804  -0.539884  0  2.152601  0
