# generated using pymatgen
data_AlHgH30C30N3(ClO3)2
_symmetry_space_group_name_H-M   'P 1'
_cell_length_a   15.02216227
_cell_length_b   16.28222621
_cell_length_c   16.71221539
_cell_angle_alpha   94.27724834
_cell_angle_beta   90.00012362
_cell_angle_gamma   90.00000081
_symmetry_Int_Tables_number   1
_chemical_formula_structural   AlHgH30C30N3(ClO3)2
_chemical_formula_sum   'Al4 Hg4 H120 C120 N12 Cl8 O24'
_cell_volume   4076.32671437
_cell_formula_units_Z   4
loop_
 _symmetry_equiv_pos_site_id
 _symmetry_equiv_pos_as_xyz
  1  'x, y, z'
loop_
 _atom_site_type_symbol
 _atom_site_label
 _atom_site_symmetry_multiplicity
 _atom_site_fract_x
 _atom_site_fract_y
 _atom_site_fract_z
 _atom_site_occupancy
 _atom_site_pbe_bader_charge
 _atom_site_pbe_bader_spin_density
 _atom_site_pbe_cm5_charge
 _atom_site_pbe_ddec_charge
 _atom_site_pbe_ddec_spin_density
 _atom_site_pbe_ddec_sum_bond_order
 _atom_site_pbe_magmom
Al  Al0  1  0.25149444  0.99683116  0.00246631  1  2.494308  0  0.380498  1.491919  0  2.786223  0
Al  Al1  1  0.75149228  0.50316996  0.49753614  1  2.494237  0  0.380546  1.491943  0  2.786056  0
Al  Al2  1  0.74850929  0.00316909  0.99753297  1  2.494263  0  0.380481  1.492037  0  2.786131  0
Al  Al3  1  0.24850611  0.49683214  0.50246446  1  2.494279  0  0.380451  1.491975  0  2.786255  0
Hg  Hg4  1  0.29030291  0.06366505  0.41341315  1  0.814281  0  0.499082  0.517821  0  2.647743  0
Hg  Hg5  1  0.79030711  0.43633913  0.08659213  1  0.814229  0  0.499067  0.517836  0  2.647734  0
Hg  Hg6  1  0.70969215  0.93634074  0.58658653  1  0.814169  0  0.499108  0.517933  0  2.647723  0
Hg  Hg7  1  0.20969528  0.56365989  0.91341125  1  0.814288  0  0.49908  0.517815  0  2.64776  0
H  H8  1  0.32300717  0.22184570  0.89358808  1  0.065185  0  0.102222  0.155974  0  0.980143  0
H  H9  1  0.82300542  0.27814939  0.60641085  1  0.065135  0  0.102221  0.155988  0  0.980085  0
H  H10  1  0.67698790  0.77815271  0.10641166  1  0.065131  0  0.102269  0.155957  0  0.980274  0
H  H11  1  0.17699697  0.72185332  0.39358920  1  0.065075  0  0.102231  0.155996  0  0.980137  0
H  H12  1  0.23580060  0.20225583  0.82253236  1  0.048155  0  0.099924  0.149224  0  0.993482  0
H  H13  1  0.73579702  0.29774602  0.67746749  1  0.048096  0  0.099958  0.149238  0  0.993473  0
H  H14  1  0.76419647  0.79774381  0.17746807  1  0.048217  0  0.099907  0.149235  0  0.993503  0
H  H15  1  0.26420404  0.70225670  0.32253496  1  0.048539  0  0.099939  0.149198  0  0.993484  0
H  H16  1  0.34715537  0.18230282  0.79280921  1  0.051427  0  0.09633  0.146167  0  1.005931  0
H  H17  1  0.84715519  0.31769228  0.70719217  1  0.051388  0  0.096341  0.146101  0  1.005916  0
H  H18  1  0.65283970  0.81769682  0.20719182  1  0.051521  0  0.096306  0.146134  0  1.005934  0
H  H19  1  0.15284720  0.68230613  0.29280997  1  0.051305  0  0.096337  0.14607  0  1.005971  0
H  H20  1  0.29264660  0.81426931  0.80653939  1  0.073502  0  0.098934  0.153417  0  1.004008  0
H  H21  1  0.79263573  0.68572888  0.69346435  1  0.0736  0  0.098983  0.153464  0  1.004042  0
H  H22  1  0.70736312  0.18572971  0.19346160  1  0.073538  0  0.098948  0.153387  0  1.004063  0
H  H23  1  0.20735334  0.31427260  0.30654159  1  0.073524  0  0.098978  0.153456  0  1.004036  0
H  H24  1  0.35985855  0.87337751  0.74406744  1  0.058046  0  0.100638  0.149153  0  0.989718  0
H  H25  1  0.85985116  0.62662438  0.75593610  1  0.058102  0  0.100599  0.149161  0  0.989656  0
H  H26  1  0.64014850  0.12662335  0.25593427  1  0.058128  0  0.100573  0.149093  0  0.989605  0
H  H27  1  0.14013858  0.37338080  0.24406772  1  0.058036  0  0.100628  0.149169  0  0.989635  0
H  H28  1  0.24328011  0.87320437  0.73141027  1  0.044425  0  0.100673  0.148151  0  0.981693  0
H  H29  1  0.74327342  0.62679320  0.76859393  1  0.044231  0  0.100762  0.148292  0  0.981867  0
H  H30  1  0.75672760  0.12679465  0.26859071  1  0.044404  0  0.100724  0.148251  0  0.981839  0
H  H31  1  0.25671898  0.37320521  0.23140881  1  0.044426  0  0.100742  0.148237  0  0.9818  0
H  H32  1  0.15467749  0.08479133  0.57186284  1  0.132899  0  0.108508  0.074575  0  1.026345  0
H  H33  1  0.65468383  0.41519450  0.92814587  1  0.132981  0  0.108603  0.074624  0  1.026231  0
H  H34  1  0.84531691  0.91521570  0.42814111  1  0.133032  0  0.108552  0.074588  0  1.02642  0
H  H35  1  0.34531723  0.58479713  0.07185937  1  0.132848  0  0.108549  0.07456  0  1.026383  0
H  H36  1  0.14885027  0.06858558  0.71985381  1  0.102176  0  0.109218  0.122635  0  0.999919  0
H  H37  1  0.64884828  0.43140210  0.78015264  1  0.102555  0  0.109293  0.12276  0  0.999993  0
H  H38  1  0.85114479  0.93142268  0.28014724  1  0.102267  0  0.109183  0.122578  0  1.000046  0
H  H39  1  0.35114679  0.56859138  0.21985094  1  0.102696  0  0.109255  0.122704  0  1.000042  0
H  H40  1  0.43051677  0.01374406  0.70873191  1  0.09966  0  0.105936  0.117873  0  1.007468  0
H  H41  1  0.93050814  0.48626398  0.79126816  1  0.099748  0  0.105966  0.117873  0  1.007489  0
H  H42  1  0.56947697  0.98625126  0.29126462  1  0.099566  0  0.105986  0.117916  0  1.007524  0
H  H43  1  0.06948360  0.51374120  0.20873147  1  0.099668  0  0.10595  0.117895  0  1.007469  0
H  H44  1  0.42392500  0.03053239  0.56245211  1  0.11191  0  0.097974  0.070276  0  1.05752  0
H  H45  1  0.92393004  0.46947688  0.93754744  1  0.112003  0  0.097951  0.070211  0  1.05748  0
H  H46  1  0.57606474  0.96946417  0.43754511  1  0.112244  0  0.097925  0.070184  0  1.057474  0
H  H47  1  0.07607235  0.53052583  0.06244962  1  0.111818  0  0.09793  0.070231  0  1.057497  0
H  H48  1  0.53738543  0.90759446  0.05458956  1  0.102535  0  0.110082  0.170982  0  0.973518  0
H  H49  1  0.03738797  0.59240785  0.44541256  1  0.102425  0  0.110095  0.171019  0  0.973437  0
H  H50  1  0.46262162  0.09241133  0.94541310  1  0.102416  0  0.110117  0.171029  0  0.973437  0
H  H51  1  0.96261642  0.40759055  0.55458360  1  0.102385  0  0.11008  0.170996  0  0.973485  0
H  H52  1  0.51527023  0.91774072  0.15899999  1  0.037197  0  0.090785  0.133582  0  1.033119  0
H  H53  1  0.01526653  0.58226405  0.34100346  1  0.037233  0  0.090774  0.13352  0  1.033218  0
H  H54  1  0.48473349  0.08226507  0.84100268  1  0.037456  0  0.09074  0.133451  0  1.033278  0
H  H55  1  0.98472987  0.41773989  0.65899488  1  0.037303  0  0.09074  0.133491  0  1.033192  0
H  H56  1  0.51593783  0.00662677  0.10094198  1  0.056094  0  0.104738  0.162729  0  0.971926  0
H  H57  1  0.01593427  0.49337737  0.39905978  1  0.056213  0  0.104676  0.162647  0  0.972002  0
H  H58  1  0.48406789  0.99337964  0.89906074  1  0.056057  0  0.104695  0.162677  0  0.971996  0
H  H59  1  0.98406013  0.50662534  0.60093489  1  0.056127  0  0.10468  0.162652  0  0.97213  0
H  H60  1  0.24399372  0.75398709  0.17135028  1  0.046271  0  0.089831  0.135383  0  1.03191  0
H  H61  1  0.74398917  0.74601649  0.32865113  1  0.046273  0  0.089846  0.135396  0  1.031891  0
H  H62  1  0.75601133  0.24601315  0.82864541  1  0.046507  0  0.089849  0.135409  0  1.031808  0
H  H63  1  0.25600190  0.25398438  0.67134460  1  0.046577  0  0.089829  0.135435  0  1.031891  0
H  H64  1  0.19930296  0.73541889  0.07342043  1  0.07661  0  0.096309  0.149685  0  1.006748  0
H  H65  1  0.69929865  0.76458530  0.42658334  1  0.076993  0  0.096315  0.149674  0  1.006689  0
H  H66  1  0.80070342  0.26457951  0.92657752  1  0.077136  0  0.09632  0.149735  0  1.006608  0
H  H67  1  0.30069109  0.23541618  0.57341184  1  0.076434  0  0.096371  0.149773  0  1.006641  0
H  H68  1  0.14378175  0.80476324  0.14393060  1  0.077584  0  0.101958  0.158287  0  0.99566  0
H  H69  1  0.64377660  0.69523847  0.35607228  1  0.077701  0  0.101963  0.158315  0  0.995574  0
H  H70  1  0.85622930  0.19523946  0.85606287  1  0.077496  0  0.102013  0.158419  0  0.995493  0
H  H71  1  0.35621581  0.30476054  0.64392451  1  0.077731  0  0.101898  0.158249  0  0.995457  0
H  H72  1  0.52546911  0.62247854  0.11849904  1  0.08756  0  0.11101  0.076745  0  0.973681  0
H  H73  1  0.02546551  0.87752809  0.38151055  1  0.087397  0  0.111029  0.076796  0  0.973639  0
H  H74  1  0.47453927  0.37751431  0.88149492  1  0.087395  0  0.111061  0.076851  0  0.973632  0
H  H75  1  0.97452889  0.12247279  0.61849656  1  0.087382  0  0.110996  0.076788  0  0.973568  0
H  H76  1  0.43968709  0.72202088  0.04146124  1  0.060171  0  0.100164  0.115292  0  1.013122  0
H  H77  1  0.93968552  0.77798458  0.45854488  1  0.059964  0  0.100226  0.115325  0  1.013175  0
H  H78  1  0.56031796  0.27797443  0.95852931  1  0.060379  0  0.100139  0.115309  0  1.013247  0
H  H79  1  0.06030821  0.22200951  0.54145216  1  0.059919  0  0.100203  0.11532  0  1.013161  0
H  H80  1  0.38102737  0.85678306  0.26768214  1  0.130417  0  0.089166  0.112616  0  1.056047  0
H  H81  1  0.88102725  0.64322547  0.23232110  1  0.130517  0  0.089117  0.112547  0  1.056082  0
H  H82  1  0.61898168  0.14321595  0.73230987  1  0.13042  0  0.089179  0.112734  0  1.056216  0
H  H83  1  0.11897314  0.35678278  0.76766858  1  0.130498  0  0.089122  0.112531  0  1.056056  0
H  H84  1  0.46866530  0.75281581  0.33486976  1  0.041522  0  0.103844  0.069952  0  1.003994  0
H  H85  1  0.96866702  0.74719335  0.16513728  1  0.041481  0  0.103861  0.069861  0  1.00404  0
H  H86  1  0.53134508  0.24718504  0.66512298  1  0.041339  0  0.103845  0.069927  0  1.004155  0
H  H87  1  0.03134070  0.25281676  0.83486150  1  0.041606  0  0.103818  0.069896  0  1.003906  0
H  H88  1  0.18898105  0.15081236  0.21734607  1  0.094805  0  0.094995  0.154783  0  1.004735  0
H  H89  1  0.68898371  0.34918564  0.28265677  1  0.09501  0  0.094957  0.15473  0  1.004722  0
H  H90  1  0.81101269  0.84917743  0.78265844  1  0.095158  0  0.094934  0.154719  0  1.004691  0
H  H91  1  0.31101668  0.65081522  0.71734375  1  0.094995  0  0.094993  0.154786  0  1.004666  0
H  H92  1  0.08858734  0.19985945  0.18783090  1  0.041737  0  0.094377  0.142989  0  1.000628  0
H  H93  1  0.58858875  0.30013668  0.31216983  1  0.04173  0  0.094334  0.142917  0  1.000685  0
H  H94  1  0.91140839  0.80013095  0.81217306  1  0.041773  0  0.094357  0.142945  0  1.000662  0
H  H95  1  0.41141098  0.69986295  0.68783061  1  0.041711  0  0.094337  0.142904  0  1.00066  0
H  H96  1  0.19342840  0.23584549  0.15673988  1  0.058786  0  0.101756  0.150493  0  0.986184  0
H  H97  1  0.69342988  0.26415252  0.34326596  1  0.05904  0  0.101735  0.150512  0  0.986134  0
H  H98  1  0.80656799  0.76414676  0.84326899  1  0.058975  0  0.101732  0.150499  0  0.986051  0
H  H99  1  0.30657118  0.73584404  0.65673245  1  0.059073  0  0.10173  0.150457  0  0.986192  0
H  H100  1  0.02613775  0.11671794  0.86507225  1  0.085337  0  0.096845  0.144338  0  1.030974  0
H  H101  1  0.52613674  0.38328388  0.63493138  1  0.085272  0  0.096829  0.14431  0  1.031073  0
H  H102  1  0.97386796  0.88328417  0.13493733  1  0.085136  0  0.096822  0.144335  0  1.03096  0
H  H103  1  0.47386698  0.61671329  0.36506888  1  0.085329  0  0.096864  0.144405  0  1.030957  0
H  H104  1  0.94387523  0.08801597  0.93323248  1  0.067626  0  0.100921  0.157893  0  1.037085  0
H  H105  1  0.44387753  0.41198345  0.56676939  1  0.06766  0  0.100906  0.157877  0  1.037146  0
H  H106  1  0.05612250  0.91198490  0.06677103  1  0.067651  0  0.100892  0.15785  0  1.037118  0
H  H107  1  0.55612486  0.58801373  0.43323385  1  0.067626  0  0.100898  0.157859  0  1.037068  0
H  H108  1  0.00411563  0.01103376  0.87339047  1  0.051389  0  0.100207  0.155463  0  0.978984  0
H  H109  1  0.50411527  0.48896682  0.62661003  1  0.051277  0  0.100189  0.155413  0  0.979006  0
H  H110  1  0.99588276  0.98896711  0.12660945  1  0.051349  0  0.100192  0.155407  0  0.979012  0
H  H111  1  0.49588978  0.51103035  0.37339082  1  0.051047  0  0.1002  0.155435  0  0.979003  0
H  H112  1  0.80670622  0.23754854  0.09692248  1  0.134395  0  0.109416  0.082398  0  1.020673  0
H  H113  1  0.30670400  0.26245809  0.40307643  1  0.134338  0  0.109405  0.082386  0  1.020758  0
H  H114  1  0.19329350  0.76245294  0.90307569  1  0.134385  0  0.109387  0.082331  0  1.020698  0
H  H115  1  0.69329506  0.73754709  0.59692799  1  0.134336  0  0.109364  0.082329  0  1.0207  0
H  H116  1  0.91133894  0.11866750  0.07650962  1  0.13259  0  0.113625  0.13021  0  1.036416  0
H  H117  1  0.41134076  0.38133792  0.42348701  1  0.13251  0  0.113646  0.130233  0  1.036231  0
H  H118  1  0.08865680  0.88133337  0.92349329  1  0.132621  0  0.113626  0.130155  0  1.036309  0
H  H119  1  0.58866096  0.61866542  0.57651489  1  0.132537  0  0.113672  0.130274  0  1.036292  0
H  H120  1  0.11406483  0.29160380  0.01503941  1  0.099116  0  0.106825  0.118778  0  0.992786  0
H  H121  1  0.61405999  0.20839419  0.48496209  1  0.098877  0  0.106869  0.1188  0  0.992838  0
H  H122  1  0.88594023  0.70839091  0.98496665  1  0.099355  0  0.106802  0.118764  0  0.992866  0
H  H123  1  0.38593641  0.79160483  0.51503889  1  0.099271  0  0.106848  0.118805  0  0.992767  0
H  H124  1  0.00254163  0.40366437  0.04221039  1  0.112177  0  0.098869  0.06841  0  1.055608  0
H  H125  1  0.50253406  0.09633606  0.45778868  1  0.112224  0  0.098909  0.068461  0  1.055496  0
H  H126  1  0.99746342  0.59633281  0.95779346  1  0.11209  0  0.09888  0.068419  0  1.055526  0
H  H127  1  0.49746034  0.90366480  0.54221364  1  0.112186  0  0.098868  0.068439  0  1.055569  0
C  C128  1  0.30057758  0.18014501  0.84318828  1  -0.054837  0  -0.239299  -0.478226  0  3.901494  0
C  C129  1  0.80057595  0.31985254  0.65681078  1  -0.054677  0  -0.239372  -0.478246  0  3.901309  0
C  C130  1  0.69941815  0.81985340  0.15681146  1  -0.054918  0  -0.239313  -0.478187  0  3.901566  0
C  C131  1  0.19942644  0.68014894  0.34319157  1  -0.054987  0  -0.239338  -0.478083  0  3.901473  0
C  C132  1  0.29078075  0.09463833  0.87066557  1  0.737681  0  0.151732  0.467604  0  3.981713  0
C  C133  1  0.79077973  0.40536168  0.62933485  1  0.737921  0  0.151704  0.467609  0  3.98199  0
C  C134  1  0.70921897  0.90536007  0.12933238  1  0.737577  0  0.151649  0.467492  0  3.981663  0
C  C135  1  0.20922333  0.59464103  0.37066460  1  0.737378  0  0.151647  0.467415  0  3.981806  0
C  C136  1  0.28785634  0.02552318  0.81399160  1  -0.01723  0  -0.063023  -0.331915  0  3.989539  0
C  C137  1  0.78785146  0.47447375  0.68601039  1  -0.017145  0  -0.063063  -0.332076  0  3.989902  0
C  C138  1  0.71214006  0.97447645  0.18600943  1  -0.017234  0  -0.063007  -0.331901  0  3.989672  0
C  C139  1  0.21214228  0.52553082  0.31399159  1  -0.016938  0  -0.063065  -0.33196  0  3.989799  0
C  C140  1  0.28817724  0.94393258  0.83799758  1  0.762288  0  0.154563  0.477123  0  3.963062  0
C  C141  1  0.78817162  0.55606500  0.66200611  1  0.762529  0  0.154544  0.477122  0  3.963484  0
C  C142  1  0.71182382  0.05606459  0.16200267  1  0.762031  0  0.154543  0.47709  0  3.963178  0
C  C143  1  0.21182278  0.44393772  0.33799574  1  0.762158  0  0.154655  0.477322  0  3.96276  0
C  C144  1  0.29636640  0.87176524  0.77664175  1  -0.07933  0  -0.237841  -0.478713  0  3.907743  0
C  C145  1  0.79635760  0.62823110  0.72336187  1  -0.079016  0  -0.23792  -0.478887  0  3.907993  0
C  C146  1  0.70364265  0.12823131  0.22335787  1  -0.079081  0  -0.237828  -0.478697  0  3.907768  0
C  C147  1  0.20363480  0.37177100  0.27664232  1  -0.079274  0  -0.237981  -0.478906  0  3.90782  0
C  C148  1  0.21389670  0.06833182  0.60490891  1  0.398635  0  0.042747  0.090344  0  3.979347  0
C  C149  1  0.71390230  0.43165772  0.89509959  1  0.398182  0  0.0426  0.090234  0  3.97943  0
C  C150  1  0.78609571  0.93167090  0.39509114  1  0.398119  0  0.042661  0.090313  0  3.9796  0
C  C151  1  0.28609876  0.56833514  0.10490455  1  0.398743  0  0.042691  0.09031  0  3.979626  0
C  C152  1  0.21128798  0.05965147  0.68708096  1  0.016904  0  -0.082937  -0.180303  0  3.91899  0
C  C153  1  0.71128540  0.44033929  0.81292283  1  0.01665  0  -0.083053  -0.180509  0  3.918884  0
C  C154  1  0.78870775  0.94035124  0.31291909  1  0.016883  0  -0.082869  -0.180145  0  3.919035  0
C  C155  1  0.28871166  0.55965665  0.18707853  1  0.016235  0  -0.082977  -0.180392  0  3.919022  0
C  C156  1  0.28922821  0.03840751  0.72695207  1  -0.026611  0  0.01455  0.164928  0  4.006331  0
C  C157  1  0.78922553  0.46158881  0.77305167  1  -0.026631  0  0.01466  0.165186  0  4.006225  0
C  C158  1  0.71076686  0.96159028  0.27304942  1  -0.026808  0  0.014643  0.165002  0  4.006477  0
C  C159  1  0.21076820  0.53841144  0.22694881  1  -0.026449  0  0.014689  0.1651  0  4.006261  0
C  C160  1  0.36735006  0.02875061  0.68121115  1  -0.057105  0  -0.084595  -0.183918  0  3.934204  0
C  C161  1  0.86734683  0.47125064  0.81878711  1  -0.057089  0  -0.084646  -0.18398  0  3.934092  0
C  C162  1  0.63264367  0.97124532  0.31878482  1  -0.057088  0  -0.084793  -0.184231  0  3.934521  0
C  C163  1  0.13264957  0.52875084  0.18121106  1  -0.057025  0  -0.084648  -0.184012  0  3.934314  0
C  C164  1  0.36416933  0.03834147  0.59932752  1  0.471764  0  0.038351  0.093909  0  3.968855  0
C  C165  1  0.86416629  0.46166225  0.90067510  1  0.471903  0  0.038429  0.094075  0  3.96872  0
C  C166  1  0.63582507  0.96165755  0.40066868  1  0.471644  0  0.038406  0.094125  0  3.968845  0
C  C167  1  0.13582877  0.53833800  0.09932597  1  0.47194  0  0.038382  0.09397  0  3.968745  0
C  C168  1  0.49771210  0.94157992  0.10150275  1  -0.071805  0  -0.241967  -0.486329  0  3.904711  0
C  C169  1  0.99771105  0.55842493  0.39850105  1  -0.072013  0  -0.241965  -0.48628  0  3.904653  0
C  C170  1  0.50229295  0.05842649  0.89849997  1  -0.072055  0  -0.242004  -0.486256  0  3.904679  0
C  C171  1  0.00228735  0.44157840  0.60149665  1  -0.072018  0  -0.24183  -0.486109  0  3.904898  0
C  C172  1  0.40067612  0.93131151  0.08265265  1  0.791076  0  0.15776  0.482038  0  3.959388  0
C  C173  1  0.90067511  0.56869456  0.41735165  1  0.791713  0  0.157897  0.482233  0  3.959065  0
C  C174  1  0.59933093  0.06869366  0.91734459  1  0.791841  0  0.15791  0.482151  0  3.958883  0
C  C175  1  0.09932262  0.43130816  0.58264960  1  0.791156  0  0.157725  0.482033  0  3.959389  0
C  C176  1  0.35334874  0.86148898  0.10563976  1  -0.041939  0  -0.059689  -0.320547  0  3.970231  0
C  C177  1  0.85334767  0.63851646  0.39436320  1  -0.041756  0  -0.059737  -0.320902  0  3.97037  0
C  C178  1  0.64666164  0.13851064  0.89435290  1  -0.042053  0  -0.059754  -0.320585  0  3.970398  0
C  C179  1  0.14665072  0.36148809  0.60562741  1  -0.041346  0  -0.059635  -0.320675  0  3.97056  0
C  C180  1  0.26078814  0.85328680  0.09260482  1  0.732408  0  0.154574  0.477759  0  3.959162  0
C  C181  1  0.76078445  0.64671616  0.40739838  1  0.732475  0  0.154592  0.4779  0  3.959368  0
C  C182  1  0.73921891  0.14671282  0.90738724  1  0.732264  0  0.154656  0.4778  0  3.959082  0
C  C183  1  0.23920662  0.35327977  0.59259999  1  0.732749  0  0.154545  0.477917  0  3.959162  0
C  C184  1  0.20945602  0.78282878  0.12306844  1  -0.100083  0  -0.242897  -0.476436  0  3.885796  0
C  C185  1  0.70945359  0.71717233  0.37693393  1  -0.10064  0  -0.242935  -0.476507  0  3.885742  0
C  C186  1  0.79055169  0.21716962  0.87692892  1  -0.100921  0  -0.242954  -0.476627  0  3.885667  0
C  C187  1  0.29053815  0.28283038  0.62306133  1  -0.100725  0  -0.242821  -0.476533  0  3.885741  0
C  C188  1  0.49252183  0.67550059  0.14991182  1  0.422927  0  0.037014  0.084289  0  4.02794  0
C  C189  1  0.99252133  0.82450795  0.35009582  1  0.422994  0  0.037037  0.084134  0  4.027549  0
C  C190  1  0.50748655  0.32449657  0.85008065  1  0.423364  0  0.036956  0.08423  0  4.027982  0
C  C191  1  0.00747574  0.17549476  0.64990483  1  0.422892  0  0.037052  0.084226  0  4.02766  0
C  C192  1  0.44482558  0.73114577  0.10670074  1  0.059006  0  -0.088382  -0.189848  0  3.936649  0
C  C193  1  0.94482319  0.76885908  0.39330594  1  0.05905  0  -0.088474  -0.189808  0  3.936372  0
C  C194  1  0.55518213  0.26885201  0.89329357  1  0.058946  0  -0.088336  -0.189887  0  3.936599  0
C  C195  1  0.05517122  0.23113809  0.60669312  1  0.059055  0  -0.088486  -0.189869  0  3.93685  0
C  C196  1  0.40280039  0.79839765  0.14818092  1  -0.119875  0  0.010033  0.16244  0  4.007608  0
C  C197  1  0.90279856  0.70160903  0.35182342  1  -0.119952  0  0.010003  0.162581  0  4.007398  0
C  C198  1  0.59720999  0.20160444  0.85181071  1  -0.119847  0  0.009995  0.162469  0  4.007155  0
C  C199  1  0.09719651  0.29839059  0.64816564  1  -0.120128  0  0.009995  0.162528  0  4.00734  0
C  C200  1  0.41134120  0.80541913  0.23196803  1  -0.047755  0  -0.094943  -0.19776  0  3.956637  0
C  C201  1  0.91134050  0.69458817  0.26803577  1  -0.045295  0  -0.094843  -0.197704  0  3.956408  0
C  C202  1  0.58867117  0.19457865  0.76802090  1  -0.048259  0  -0.094839  -0.197806  0  3.956493  0
C  C203  1  0.08865789  0.30541638  0.73195843  1  -0.045612  0  -0.094881  -0.197721  0  3.956394  0
C  C204  1  0.46077687  0.74697998  0.26952543  1  0.499712  0  0.030598  0.075636  0  4.038032  0
C  C205  1  0.96077875  0.75302979  0.23048044  1  0.497457  0  0.030541  0.075719  0  4.038065  0
C  C206  1  0.53923284  0.25302088  0.73046731  1  0.500011  0  0.030651  0.075784  0  4.038378  0
C  C207  1  0.03922364  0.24697723  0.76951753  1  0.497608  0  0.030592  0.075715  0  4.037928  0
C  C208  1  0.15552708  0.18021348  0.16872674  1  -0.09341  0  -0.241717  -0.480413  0  3.914317  0
C  C209  1  0.65552720  0.31978575  0.33127852  1  -0.093756  0  -0.241578  -0.480298  0  3.91435  0
C  C210  1  0.84446932  0.81977877  0.83127974  1  -0.093959  0  -0.2416  -0.480302  0  3.91428  0
C  C211  1  0.34447252  0.68021512  0.66872379  1  -0.09376  0  -0.241608  -0.480234  0  3.914216  0
C  C212  1  0.15522610  0.12221976  0.09440260  1  0.729817  0  0.157332  0.480443  0  3.956079  0
C  C213  1  0.65522308  0.37777762  0.40560014  1  0.729613  0  0.157269  0.480416  0  3.95594  0
C  C214  1  0.84477895  0.87777064  0.90559956  1  0.729523  0  0.157375  0.480534  0  3.955242  0
C  C215  1  0.34477865  0.62222263  0.59439854  1  0.729579  0  0.157334  0.480443  0  3.955739  0
C  C216  1  0.08839810  0.12730458  0.03483939  1  -0.009926  0  -0.060894  -0.327572  0  3.976144  0
C  C217  1  0.58839855  0.37269526  0.46516459  1  -0.009939  0  -0.060886  -0.327437  0  3.975829  0
C  C218  1  0.91160096  0.87269075  0.96516731  1  -0.009866  0  -0.060925  -0.327512  0  3.975948  0
C  C219  1  0.41160185  0.62730315  0.53483695  1  -0.010071  0  -0.060908  -0.327492  0  3.97605  0
C  C220  1  0.08121650  0.06727599  0.96937926  1  0.749637  0  0.151527  0.47702  0  3.958328  0
C  C221  1  0.58121923  0.43272584  0.53062268  1  0.75039  0  0.151484  0.476878  0  3.958322  0
C  C222  1  0.91878189  0.93271934  0.03062326  1  0.749914  0  0.151457  0.47692  0  3.958178  0
C  C223  1  0.41878848  0.56727749  0.46937742  1  0.749686  0  0.151566  0.477029  0  3.957799  0
C  C224  1  0.00906037  0.07081717  0.90777452  1  -0.067445  0  -0.246023  -0.490924  0  3.8918  0
C  C225  1  0.50905992  0.42918279  0.59222834  1  -0.067352  0  -0.245969  -0.490772  0  3.891802  0
C  C226  1  0.99094002  0.92918308  0.09222954  1  -0.067387  0  -0.24595  -0.490774  0  3.891581  0
C  C227  1  0.49094114  0.57081438  0.40777431  1  -0.067114  0  -0.245973  -0.490891  0  3.891864  0
C  C228  1  0.87612697  0.24685576  0.08044682  1  0.411882  0  0.043064  0.093712  0  3.95888  0
C  C229  1  0.37612479  0.25314966  0.41955393  1  0.412393  0  0.043136  0.093798  0  3.958905  0
C  C230  1  0.12387143  0.75314572  0.91955315  1  0.411972  0  0.043133  0.093828  0  3.958636  0
C  C231  1  0.62387028  0.74685429  0.58045159  1  0.411974  0  0.043156  0.093899  0  3.958926  0
C  C232  1  0.93450404  0.18092033  0.06851071  1  0.012053  0  -0.079614  -0.171406  0  3.905724  0
C  C233  1  0.43450255  0.31908017  0.43149040  1  0.011501  0  -0.079665  -0.171506  0  3.905705  0
C  C234  1  0.06549369  0.81907684  0.93149313  1  0.011937  0  -0.079603  -0.171329  0  3.905637  0
C  C235  1  0.56549851  0.68092070  0.56851252  1  0.012011  0  -0.079727  -0.171626  0  3.90578  0
C  C236  1  0.02253077  0.19519423  0.04522991  1  -0.044052  0  0.014496  0.163499  0  4.002899  0
C  C237  1  0.52253118  0.30480805  0.45477172  1  -0.04441  0  0.014529  0.163576  0  4.002645  0
C  C238  1  0.97746962  0.80480356  0.95477518  1  -0.044383  0  0.014523  0.163473  0  4.002451  0
C  C239  1  0.47746721  0.69518974  0.54522917  1  -0.04405  0  0.014594  0.163607  0  4.002609  0
C  C240  1  0.04706784  0.27683494  0.03454521  1  -0.046767  0  -0.086219  -0.183046  0  3.941941  0
C  C241  1  0.54706228  0.22316489  0.46545868  1  -0.04578  0  -0.086373  -0.183151  0  3.942066  0
C  C242  1  0.95293322  0.72315793  0.96545892  1  -0.046563  0  -0.086266  -0.183107  0  3.941874  0
C  C243  1  0.45293478  0.77683536  0.53454418  1  -0.046516  0  -0.086338  -0.183166  0  3.941964  0
C  C244  1  0.98504201  0.33957402  0.04911526  1  0.439351  0  0.033818  0.084091  0  3.982616  0
C  C245  1  0.48503924  0.16042957  0.45088557  1  0.438944  0  0.033785  0.084019  0  3.982612  0
C  C246  1  0.01496104  0.66042500  0.95088812  1  0.439626  0  0.03376  0.084048  0  3.982796  0
C  C247  1  0.51495649  0.83957192  0.54911858  1  0.43906  0  0.033845  0.084137  0  3.982685  0
N  N248  1  0.28877535  0.05720207  0.56166475  1  -1.210127  0  -0.318595  -0.220773  0  3.515403  0
N  N249  1  0.78878172  0.44279548  0.93833788  1  -1.210235  0  -0.318596  -0.220816  0  3.515944  0
N  N250  1  0.71121573  0.94279879  0.43833397  1  -1.209781  0  -0.318515  -0.220795  0  3.515686  0
N  N251  1  0.21122200  0.55720231  0.06166361  1  -1.210417  0  -0.318606  -0.220738  0  3.515581  0
N  N252  1  0.50120509  0.68228610  0.23017800  1  -1.184793  0  -0.334396  -0.293899  0  3.342891  0
N  N253  1  0.00120522  0.81772175  0.26982983  1  -1.184824  0  -0.334385  -0.293838  0  3.342934  0
N  N254  1  0.49880462  0.31771106  0.76981567  1  -1.184877  0  -0.334492  -0.294071  0  3.343464  0
N  N255  1  0.99879584  0.18228528  0.73017472  1  -1.184717  0  -0.334297  -0.293854  0  3.342798  0
N  N256  1  0.90109074  0.32497678  0.07186750  1  -1.207214  0  -0.320845  -0.22364  0  3.526332  0
N  N257  1  0.40108459  0.17502619  0.42813671  1  -1.207024  0  -0.320874  -0.22371  0  3.526231  0
N  N258  1  0.09890965  0.67502101  0.92813339  1  -1.207635  0  -0.320807  -0.223629  0  3.526255  0
N  N259  1  0.59891115  0.82497715  0.57187057  1  -1.207226  0  -0.320905  -0.223811  0  3.526358  0
Cl  Cl260  1  0.15769215  0.13951769  0.39317059  1  -0.508263  0  -0.303085  -0.411225  0  1.131333  0
Cl  Cl261  1  0.65769373  0.36048831  0.10683158  1  -0.508179  0  -0.303117  -0.411252  0  1.131224  0
Cl  Cl262  1  0.84230291  0.86048810  0.60682909  1  -0.50811  0  -0.30313  -0.411277  0  1.131212  0
Cl  Cl263  1  0.34230799  0.63951132  0.89316945  1  -0.508203  0  -0.303118  -0.41125  0  1.131245  0
Cl  Cl264  1  0.39556604  0.95252766  0.39540631  1  -0.525774  0  -0.275298  -0.412749  0  1.257729  0
Cl  Cl265  1  0.89556761  0.54747841  0.10459977  1  -0.525831  0  -0.27527  -0.412738  0  1.257802  0
Cl  Cl266  1  0.60442703  0.04747566  0.60458900  1  -0.525848  0  -0.275257  -0.412745  0  1.25786  0
Cl  Cl267  1  0.10443345  0.45252123  0.89540186  1  -0.525846  0  -0.275279  -0.412733  0  1.257785  0
O  O268  1  0.28789511  0.08940018  0.94682235  1  -1.234902  0  -0.234955  -0.537827  0  2.360064  0
O  O269  1  0.78789390  0.41059799  0.55318092  1  -1.235197  0  -0.234963  -0.537773  0  2.360197  0
O  O270  1  0.71211194  0.91059576  0.05317602  1  -1.234886  0  -0.234916  -0.537735  0  2.359939  0
O  O271  1  0.21211049  0.58940411  0.44682387  1  -1.234883  0  -0.234936  -0.537815  0  2.359902  0
O  O272  1  0.28218485  0.92596321  0.91122333  1  -1.224721  0  -0.233316  -0.531179  0  2.347754  0
O  O273  1  0.78218105  0.57403314  0.58878445  1  -1.225179  0  -0.233293  -0.531195  0  2.347986  0
O  O274  1  0.71781821  0.07403520  0.08877881  1  -1.224688  0  -0.233364  -0.531217  0  2.347828  0
O  O275  1  0.21781535  0.42596835  0.41122329  1  -1.224583  0  -0.233316  -0.53126  0  2.347625  0
O  O276  1  0.36575234  0.98926294  0.04512015  1  -1.24504  0  -0.23216  -0.534153  0  2.36699  0
O  O277  1  0.86575275  0.51074312  0.45488228  1  -1.245388  0  -0.232266  -0.534199  0  2.366824  0
O  O278  1  0.63425404  0.01073854  0.95488281  1  -1.245195  0  -0.232224  -0.534317  0  2.366773  0
O  O279  1  0.13425031  0.48926576  0.54512061  1  -1.245121  0  -0.232186  -0.534247  0  2.36665  0
O  O280  1  0.21428414  0.90420548  0.05456664  1  -1.2386  0  -0.234377  -0.541562  0  2.38329  0
O  O281  1  0.71428520  0.59579625  0.44543399  1  -1.238737  0  -0.234359  -0.541554  0  2.383456  0
O  O282  1  0.78572690  0.09578984  0.94543289  1  -1.238668  0  -0.234419  -0.54159  0  2.382775  0
O  O283  1  0.28571453  0.40420523  0.55456059  1  -1.238615  0  -0.234447  -0.541678  0  2.382959  0
O  O284  1  0.21801799  0.06881949  0.09034154  1  -1.216257  0  -0.232585  -0.523858  0  2.338651  0
O  O285  1  0.71801764  0.43118097  0.40965974  1  -1.216169  0  -0.232559  -0.523892  0  2.33838  0
O  O286  1  0.78197974  0.93118260  0.90965907  1  -1.216065  0  -0.232638  -0.523992  0  2.337728  0
O  O287  1  0.28198209  0.56881989  0.59034078  1  -1.216094  0  -0.23262  -0.523907  0  2.338163  0
O  O288  1  0.13638231  0.00698498  0.95772908  1  -1.251134  0  -0.23812  -0.554762  0  2.408114  0
O  O289  1  0.63637775  0.49301562  0.54226929  1  -1.251855  0  -0.238055  -0.554717  0  2.408365  0
O  O290  1  0.86362340  0.99301527  0.04227020  1  -1.251215  0  -0.238044  -0.55478  0  2.408194  0
O  O291  1  0.36361732  0.50697971  0.45773023  1  -1.251047  0  -0.238139  -0.554849  0  2.407646  0
