# generated using pymatgen
data_CuH8C10Se2BrN2
_symmetry_space_group_name_H-M   'P 1'
_cell_length_a   19.62881832
_cell_length_b   19.62864228
_cell_length_c   19.62871363
_cell_angle_alpha   100.62072692
_cell_angle_beta   114.06999394
_cell_angle_gamma   114.06975870
_symmetry_Int_Tables_number   1
_chemical_formula_structural   CuH8C10Se2BrN2
_chemical_formula_sum   'Cu16 H128 C160 Se32 Br16 N32'
_cell_volume   5719.86827302
_cell_formula_units_Z   16
loop_
 _symmetry_equiv_pos_site_id
 _symmetry_equiv_pos_as_xyz
  1  'x, y, z'
loop_
 _atom_site_type_symbol
 _atom_site_label
 _atom_site_symmetry_multiplicity
 _atom_site_fract_x
 _atom_site_fract_y
 _atom_site_fract_z
 _atom_site_occupancy
 _atom_site_pbe_bader_charge
 _atom_site_pbe_bader_spin_density
 _atom_site_pbe_cm5_charge
 _atom_site_pbe_ddec_charge
 _atom_site_pbe_ddec_spin_density
 _atom_site_pbe_ddec_sum_bond_order
 _atom_site_pbe_magmom
Cu  Cu0  1  0.03329471  0.49829852  0.58375478  1  0.621666  0  0.428311  0.31262  0  2.557315  0
Cu  Cu1  1  0.46670743  0.55045705  0.96500673  1  0.622561  0  0.428267  0.312467  0  2.557443  0
Cu  Cu2  1  0.03329924  0.53499538  0.94954601  1  0.622665  0  0.428296  0.312511  0  2.55735  0
Cu  Cu3  1  0.46670507  0.91624352  0.00169865  1  0.621697  0  0.42834  0.312665  0  2.557289  0
Cu  Cu4  1  0.96670766  0.50170064  0.41624500  1  0.62167  0  0.428307  0.312617  0  2.557314  0
Cu  Cu5  1  0.53329561  0.44954600  0.03499594  1  0.62258  0  0.42828  0.312414  0  2.557508  0
Cu  Cu6  1  0.96670843  0.46500328  0.05045593  1  0.622295  0  0.428285  0.312488  0  2.557399  0
Cu  Cu7  1  0.53329201  0.08375107  0.99829901  1  0.621772  0  0.428279  0.312547  0  2.557383  0
Cu  Cu8  1  0.91456240  0.96500326  0.49830476  1  0.623224  0  0.428222  0.312441  0  2.557332  0
Cu  Cu9  1  0.58546299  0.58375911  0.55046330  1  0.621828  0  0.428327  0.312557  0  2.557403  0
Cu  Cu10  1  0.58545860  0.00170606  0.53499495  1  0.623286  0  0.428304  0.312575  0  2.557418  0
Cu  Cu11  1  0.91456171  0.94956137  0.91625890  1  0.622086  0  0.428234  0.312473  0  2.557352  0
Cu  Cu12  1  0.08543931  0.03499241  0.50170199  1  0.623265  0  0.428244  0.312452  0  2.557493  0
Cu  Cu13  1  0.41453872  0.41624734  0.44954126  1  0.621881  0  0.428343  0.312608  0  2.557275  0
Cu  Cu14  1  0.41454245  0.99829428  0.46500051  1  0.623302  0  0.428301  0.312517  0  2.557319  0
Cu  Cu15  1  0.08544000  0.05044876  0.08373835  1  0.621946  0  0.428252  0.312516  0  2.557453  0
H  H16  1  0.19985468  0.37061735  0.70065596  1  0.096264  0  0.095874  0.105802  0  1.054605  0
H  H17  1  0.08826115  0.22773875  0.58585731  1  0.106319  0  0.100367  0.108929  0  1.005101  0
H  H18  1  0.94855182  0.20062623  0.47085482  1  0.115026  0  0.086883  0.100101  0  1.068973  0
H  H19  1  0.92368527  0.31776803  0.47381940  1  0.099943  0  0.102652  0.081197  0  1.031549  0
H  H20  1  0.95918306  0.61616907  0.77236797  1  0.082879  0  0.101477  0.118481  0  1.009291  0
H  H21  1  0.08027785  0.76287341  0.82909949  1  0.079313  0  0.105506  0.105223  0  0.997362  0
H  H22  1  0.18337900  0.79720040  0.77826450  1  0.104971  0  0.100594  0.112412  0  1.015784  0
H  H23  1  0.15648732  0.68133697  0.66813025  1  0.089693  0  0.101818  0.078834  0  1.034333  0
H  H24  1  0.30014806  0.50080445  0.67076544  1  0.097289  0  0.095851  0.105778  0  1.054594  0
H  H25  1  0.41173791  0.49760088  0.63948142  1  0.089452  0  0.100417  0.108987  0  1.005101  0
H  H26  1  0.55144798  0.52230708  0.75207665  1  0.104244  0  0.086871  0.10011  0  1.068922  0
H  H27  1  0.57631355  0.55013429  0.89408467  1  0.100001  0  0.102645  0.081108  0  1.031718  0
H  H28  1  0.54081381  0.81318457  0.15698320  1  0.115674  0  0.101471  0.118479  0  1.009278  0
H  H29  1  0.41971988  0.74882015  0.18258970  1  0.094763  0  0.10551  0.105183  0  0.997445  0
H  H30  1  0.31662330  0.59488182  0.11382200  1  0.092913  0  0.100594  0.112404  0  1.015816  0
H  H31  1  0.34351931  0.51163728  0.02485729  1  0.089325  0  0.101809  0.078796  0  1.034354  0
H  H32  1  0.19985100  0.82923616  0.99919647  1  0.097316  0  0.095844  0.105745  0  1.054608  0
H  H33  1  0.08825731  0.86052011  0.00239805  1  0.089846  0  0.10039  0.108922  0  1.005116  0
H  H34  1  0.94854794  0.74792078  0.97768865  1  0.104233  0  0.086883  0.100141  0  1.068972  0
H  H35  1  0.92368451  0.60591421  0.94986093  1  0.100244  0  0.102638  0.081113  0  1.031692  0
H  H36  1  0.95918708  0.34301434  0.68681129  1  0.115665  0  0.101467  0.118464  0  1.009317  0
H  H37  1  0.08027706  0.31740561  0.75117800  1  0.094648  0  0.105514  0.105251  0  0.997447  0
H  H38  1  0.18337375  0.38617264  0.90511499  1  0.092967  0  0.100595  0.112342  0  1.0159  0
H  H39  1  0.15648105  0.47514093  0.98835839  1  0.089406  0  0.101819  0.078813  0  1.034365  0
H  H40  1  0.30015006  0.79934546  0.12938480  1  0.09638  0  0.095873  0.105772  0  1.054577  0
H  H41  1  0.41174164  0.91414977  0.27226045  1  0.106613  0  0.100377  0.108965  0  1.005103  0
H  H42  1  0.55144784  0.02915451  0.29937038  1  0.115102  0  0.086929  0.100152  0  1.068835  0
H  H43  1  0.57631291  0.02618284  0.18222906  1  0.099713  0  0.102666  0.081149  0  1.031587  0
H  H44  1  0.54080945  0.72762766  0.88382610  1  0.083069  0  0.101469  0.118482  0  1.009241  0
H  H45  1  0.41971842  0.67089907  0.73712290  1  0.07936  0  0.105504  0.105233  0  0.997441  0
H  H46  1  0.31661649  0.72173379  0.70279045  1  0.10484  0  0.100632  0.11242  0  1.015738  0
H  H47  1  0.34350355  0.83186436  0.81865426  1  0.089476  0  0.101814  0.078758  0  1.034352  0
H  H48  1  0.80014835  0.62938062  0.29934676  1  0.096424  0  0.09586  0.105762  0  1.0546  0
H  H49  1  0.91173989  0.77225873  0.41414701  1  0.106384  0  0.100399  0.108987  0  1.005124  0
H  H50  1  0.05144923  0.79937318  0.52914896  1  0.114962  0  0.08687  0.100091  0  1.068951  0
H  H51  1  0.07631909  0.68223386  0.52618239  1  0.099804  0  0.102661  0.081162  0  1.031571  0
H  H52  1  0.04081534  0.38382953  0.22763188  1  0.082931  0  0.101462  0.118472  0  1.009299  0
H  H53  1  0.91971857  0.23712664  0.17089622  1  0.07918  0  0.105525  0.105224  0  0.997394  0
H  H54  1  0.81661609  0.20279747  0.22173058  1  0.104955  0  0.10064  0.112463  0  1.01573  0
H  H55  1  0.84351042  0.31866151  0.33186771  1  0.089727  0  0.101809  0.078818  0  1.034316  0
H  H56  1  0.69985233  0.49919594  0.32923955  1  0.097258  0  0.09585  0.105734  0  1.05459  0
H  H57  1  0.58825916  0.50239940  0.36051931  1  0.089485  0  0.100383  0.10895  0  1.005135  0
H  H58  1  0.44855174  0.47769321  0.24792125  1  0.104291  0  0.086878  0.100111  0  1.068977  0
H  H59  1  0.42368948  0.44986785  0.10591593  1  0.099987  0  0.102649  0.081097  0  1.031707  0
H  H60  1  0.45918393  0.18681390  0.84301736  1  0.115645  0  0.10146  0.118451  0  1.009336  0
H  H61  1  0.58027654  0.25117745  0.81740916  1  0.094767  0  0.105509  0.105172  0  0.997439  0
H  H62  1  0.68337311  0.40511559  0.88617582  1  0.092826  0  0.100584  0.112382  0  1.015837  0
H  H63  1  0.65647976  0.48836002  0.97514239  1  0.089376  0  0.101826  0.078788  0  1.03429  0
H  H64  1  0.80014475  0.17076122  0.00079998  1  0.097275  0  0.095855  0.105765  0  1.054637  0
H  H65  1  0.91173646  0.13947638  0.99759533  1  0.089813  0  0.10037  0.108904  0  1.005093  0
H  H66  1  0.05144781  0.25207476  0.02230886  1  0.104073  0  0.086871  0.100153  0  1.068969  0
H  H67  1  0.07631588  0.39408375  0.05014201  1  0.1003  0  0.102658  0.08113  0  1.031677  0
H  H68  1  0.04081794  0.65698087  0.31318623  1  0.115578  0  0.101458  0.118468  0  1.009257  0
H  H69  1  0.91972068  0.68258503  0.24882160  1  0.094813  0  0.105538  0.105191  0  0.997504  0
H  H70  1  0.81662531  0.61381755  0.09488217  1  0.092212  0  0.100571  0.112379  0  1.015902  0
H  H71  1  0.84352397  0.52485733  0.01163910  1  0.089368  0  0.101831  0.078863  0  1.034301  0
H  H72  1  0.69985231  0.20065482  0.87061808  1  0.096322  0  0.09586  0.105761  0  1.05463  0
H  H73  1  0.58826272  0.08585323  0.72774184  1  0.106366  0  0.100389  0.108979  0  1.005059  0
H  H74  1  0.44855320  0.97084949  0.70062815  1  0.11499  0  0.086892  0.100148  0  1.068919  0
H  H75  1  0.42368483  0.97381808  0.81776836  1  0.099785  0  0.102648  0.081147  0  1.031575  0
H  H76  1  0.45918762  0.27237120  0.11616997  1  0.083021  0  0.101461  0.11848  0  1.009259  0
H  H77  1  0.58028395  0.32910519  0.26287423  1  0.079177  0  0.105501  0.105215  0  0.997402  0
H  H78  1  0.68338323  0.27826732  0.29720122  1  0.104945  0  0.100587  0.112368  0  1.015852  0
H  H79  1  0.65649088  0.16813247  0.18133945  1  0.089715  0  0.101815  0.078838  0  1.034337  0
H  H80  1  0.66995343  0.67075911  0.37061129  1  0.090325  0  0.095863  0.105766  0  1.054563  0
H  H81  1  0.64187227  0.63947623  0.22773537  1  0.104859  0  0.100423  0.109012  0  1.004949  0
H  H82  1  0.72976873  0.75207244  0.20062586  1  0.105862  0  0.086847  0.100089  0  1.068903  0
H  H83  1  0.84394889  0.89407923  0.31777053  1  0.094979  0  0.102639  0.081159  0  1.031688  0
H  H84  1  0.84379478  0.15697721  0.61616720  1  0.101178  0  0.101456  0.118434  0  1.009184  0
H  H85  1  0.93376744  0.18258784  0.76287056  1  0.074595  0  0.105548  0.10526  0  0.997419  0
H  H86  1  0.01893895  0.11382325  0.79720241  1  0.094013  0  0.100608  0.112387  0  1.015844  0
H  H87  1  0.01321568  0.02485470  0.68134256  1  0.085249  0  0.101795  0.078729  0  1.034424  0
H  H88  1  0.83003880  0.70065525  0.50080545  1  0.090962  0  0.095866  0.105782  0  1.054526  0
H  H89  1  0.85811497  0.58585651  0.49759648  1  0.100376  0  0.100398  0.108956  0  1.005061  0
H  H90  1  0.77022642  0.47085460  0.52230318  1  0.109247  0  0.086863  0.10009  0  1.068988  0
H  H91  1  0.65604794  0.47381693  0.55013140  1  0.092981  0  0.102638  0.081161  0  1.031634  0
H  H92  1  0.65620011  0.77236647  0.81318479  1  0.065593  0  0.101445  0.118433  0  1.009263  0
H  H93  1  0.56622775  0.82909540  0.74881834  1  0.076168  0  0.105503  0.105152  0  0.997521  0
H  H94  1  0.48106138  0.77825532  0.59488068  1  0.094616  0  0.100571  0.11236  0  1.015907  0
H  H95  1  0.48678964  0.66812132  0.51163925  1  0.14513  0  0.101798  0.078834  0  1.03432  0
H  H96  1  0.83003933  0.12938674  0.82923437  1  0.090478  0  0.095849  0.105763  0  1.054598  0
H  H97  1  0.85811306  0.27226287  0.86052215  1  0.104995  0  0.100387  0.109027  0  1.005036  0
H  H98  1  0.77022171  0.29937364  0.74792471  1  0.10576  0  0.086873  0.100078  0  1.068902  0
H  H99  1  0.65604747  0.18223275  0.60591495  1  0.094833  0  0.102628  0.081161  0  1.031635  0
H  H100  1  0.65619831  0.88383291  0.34301680  1  0.100837  0  0.10146  0.118446  0  1.009214  0
H  H101  1  0.56622582  0.73713095  0.31741051  1  0.07456  0  0.105506  0.105139  0  0.997497  0
H  H102  1  0.48105965  0.70280593  0.38618007  1  0.09449  0  0.100553  0.112318  0  1.015941  0
H  H103  1  0.48678885  0.81866952  0.47514923  1  0.085206  0  0.101808  0.078847  0  1.034321  0
H  H104  1  0.66995720  0.99919546  0.79934393  1  0.090888  0  0.095872  0.105777  0  1.054596  0
H  H105  1  0.64187874  0.00240002  0.91414074  1  0.100437  0  0.100404  0.108972  0  1.005015  0
H  H106  1  0.72976745  0.97769101  0.02914236  1  0.109103  0  0.086878  0.100126  0  1.068952  0
H  H107  1  0.84394464  0.94986237  0.02617794  1  0.093119  0  0.102661  0.08118  0  1.031605  0
H  H108  1  0.84379291  0.68681834  0.72762597  1  0.065745  0  0.101471  0.118461  0  1.009182  0
H  H109  1  0.93376180  0.75118213  0.67089366  1  0.076358  0  0.105545  0.105223  0  0.997459  0
H  H110  1  0.01893456  0.90512029  0.72173688  1  0.094517  0  0.100596  0.112393  0  1.015858  0
H  H111  1  0.01321626  0.98836546  0.83187852  1  0.145198  0  0.101809  0.078783  0  1.034349  0
H  H112  1  0.33004630  0.32924351  0.62938815  1  0.090297  0  0.095885  0.105777  0  1.054604  0
H  H113  1  0.35812216  0.36052476  0.77226401  1  0.104882  0  0.100374  0.108927  0  1.00505  0
H  H114  1  0.27022901  0.24792613  0.79937262  1  0.105849  0  0.086845  0.10008  0  1.068913  0
H  H115  1  0.15605216  0.10591948  0.68222703  1  0.094957  0  0.102656  0.081155  0  1.031653  0
H  H116  1  0.15620494  0.84301545  0.38383338  1  0.101002  0  0.101485  0.118498  0  1.009277  0
H  H117  1  0.06623427  0.81741170  0.23713252  1  0.074809  0  0.105509  0.105154  0  0.997495  0
H  H118  1  0.98106011  0.88617598  0.20280452  1  0.09453  0  0.100566  0.112334  0  1.015929  0
H  H119  1  0.98678670  0.97514149  0.31866815  1  0.0854  0  0.101822  0.078796  0  1.03425  0
H  H120  1  0.16996291  0.29934938  0.49919757  1  0.091047  0  0.095866  0.105789  0  1.054557  0
H  H121  1  0.14188343  0.41414555  0.50240282  1  0.100315  0  0.100381  0.108957  0  1.005019  0
H  H122  1  0.22976999  0.52914626  0.47769409  1  0.109136  0  0.086905  0.10011  0  1.068956  0
H  H123  1  0.34394649  0.52618457  0.44986278  1  0.093035  0  0.102641  0.081178  0  1.031611  0
H  H124  1  0.34380027  0.22763891  0.18682223  1  0.065821  0  0.101474  0.118501  0  1.009167  0
H  H125  1  0.43377065  0.17090828  0.25118665  1  0.076386  0  0.105512  0.105103  0  0.997361  0
H  H126  1  0.51893835  0.22174871  0.40512342  1  0.094711  0  0.100505  0.112205  0  1.016075  0
H  H127  1  0.51321737  0.33188686  0.48836848  1  0.145132  0  0.101828  0.078843  0  1.034281  0
H  H128  1  0.16995841  0.87061022  0.17076101  1  0.09043  0  0.095854  0.105755  0  1.054582  0
H  H129  1  0.14188137  0.72773476  0.13947830  1  0.104952  0  0.1004  0.108998  0  1.005022  0
H  H130  1  0.22977140  0.70062464  0.25207663  1  0.105757  0  0.086894  0.100092  0  1.068921  0
H  H131  1  0.34394961  0.81776793  0.39408526  1  0.094843  0  0.102629  0.081145  0  1.031692  0
H  H132  1  0.34380340  0.11616400  0.65698059  1  0.100763  0  0.101482  0.118469  0  1.009166  0
H  H133  1  0.43377655  0.26286770  0.68259187  1  0.074646  0  0.105511  0.105172  0  0.997459  0
H  H134  1  0.51894074  0.29719712  0.61382022  1  0.094125  0  0.100577  0.112319  0  1.015877  0
H  H135  1  0.51321551  0.18133563  0.52485096  1  0.085097  0  0.101824  0.078802  0  1.034277  0
H  H136  1  0.33004120  0.00080009  0.20065336  1  0.090874  0  0.095882  0.105789  0  1.054582  0
H  H137  1  0.35811834  0.99759690  0.08585586  1  0.10033  0  0.100372  0.108982  0  1.005011  0
H  H138  1  0.27022698  0.02230428  0.97085396  1  0.108972  0  0.086874  0.100128  0  1.068953  0
H  H139  1  0.15605177  0.05013371  0.97382093  1  0.093097  0  0.10266  0.081178  0  1.031653  0
H  H140  1  0.15620748  0.31319335  0.27237423  1  0.065469  0  0.101453  0.118467  0  1.00933  0
H  H141  1  0.06623925  0.24882552  0.32910536  1  0.07627  0  0.105522  0.105197  0  0.997509  0
H  H142  1  0.98106583  0.09488643  0.27825869  1  0.094458  0  0.100571  0.112383  0  1.015915  0
H  H143  1  0.98678942  0.01164523  0.16812125  1  0.145282  0  0.101818  0.078842  0  1.034238  0
C  C144  1  0.11908213  0.41712600  0.64520005  1  0.331279  0  0.073275  0.151462  0  3.957504  0
C  C145  1  0.13816007  0.35613657  0.64895879  1  -0.090069  0  -0.098437  -0.171134  0  3.992247  0
C  C146  1  0.07625319  0.27730957  0.58567702  1  -0.030434  0  -0.07246  -0.011524  0  3.931971  0
C  C147  1  0.99786571  0.26184777  0.52083213  1  -0.000307  0  -0.100268  -0.142484  0  3.986605  0
C  C148  1  0.98376245  0.32570527  0.52175159  1  0.441646  0  0.035167  0.095786  0  3.92306  0
C  C149  1  0.99595310  0.57301731  0.69191116  1  0.314004  0  0.07891  0.163909  0  3.927514  0
C  C150  1  0.00407172  0.63338017  0.75075796  1  0.006281  0  -0.093155  -0.158974  0  3.981722  0
C  C151  1  0.07174616  0.71482210  0.78231954  1  -0.04355  0  -0.07351  -0.021961  0  3.974377  0
C  C152  1  0.12866560  0.73412622  0.75357363  1  -0.030934  0  -0.092655  -0.135457  0  3.978925  0
C  C153  1  0.11489761  0.67093317  0.69360543  1  0.465046  0  0.031906  0.091335  0  3.929005  0
C  C154  1  0.38091614  0.52611679  0.79804355  1  0.28203  0  0.073283  0.151475  0  3.957549  0
C  C155  1  0.36183997  0.51079870  0.71798031  1  -0.002553  0  -0.098491  -0.171195  0  3.992324  0
C  C156  1  0.42374592  0.50942734  0.70105808  1  -0.066302  0  -0.072443  -0.011512  0  3.931893  0
C  C157  1  0.50213347  0.52296843  0.76398532  1  0.004791  0  -0.100242  -0.142498  0  3.986493  0
C  C158  1  0.51623831  0.53798777  0.84194959  1  0.435002  0  0.035139  0.09585  0  3.923162  0
C  C159  1  0.50405053  0.69595696  0.07706943  1  0.329997  0  0.078895  0.163775  0  3.927606  0
C  C160  1  0.49592979  0.74668529  0.12930905  1  -0.030947  0  -0.093191  -0.158964  0  3.981768  0
C  C161  1  0.42825388  0.71057325  0.14307482  1  0.005913  0  -0.073529  -0.021933  0  3.974306  0
C  C162  1  0.37133632  0.62490421  0.10546221  1  -0.04883  0  -0.092601  -0.135421  0  3.978757  0
C  C163  1  0.38510702  0.57870189  0.05604149  1  0.428569  0  0.031908  0.091414  0  3.928687  0
C  C164  1  0.11908372  0.70195645  0.97388433  1  0.28196  0  0.073319  0.151489  0  3.957393  0
C  C165  1  0.13815847  0.78202115  0.98920108  1  -0.002515  0  -0.098497  -0.171189  0  3.992244  0
C  C166  1  0.07624985  0.79894238  0.99057140  1  -0.066707  0  -0.07241  -0.011381  0  3.931722  0
C  C167  1  0.99786114  0.73601256  0.97702742  1  0.004643  0  -0.100241  -0.142568  0  3.986553  0
C  C168  1  0.98375970  0.65805066  0.96200861  1  0.434862  0  0.035151  0.095837  0  3.92319  0
C  C169  1  0.99595041  0.42292798  0.80404036  1  0.32997  0  0.078789  0.163654  0  3.927635  0
C  C170  1  0.00407106  0.37068935  0.75331124  1  -0.03089  0  -0.093071  -0.158777  0  3.981513  0
C  C171  1  0.07174769  0.35692257  0.78942375  1  0.005545  0  -0.073539  -0.022049  0  3.974284  0
C  C172  1  0.12866333  0.39453428  0.87509241  1  -0.048932  0  -0.092545  -0.135232  0  3.978795  0
C  C173  1  0.11489528  0.44395839  0.92129611  1  0.428529  0  0.031893  0.091357  0  3.928705  0
C  C174  1  0.38091718  0.85480095  0.08287554  1  0.331422  0  0.073308  0.151456  0  3.957514  0
C  C175  1  0.36184463  0.85104504  0.14386685  1  -0.090305  0  -0.098484  -0.1711  0  3.992328  0
C  C176  1  0.42374954  0.91432587  0.22268984  1  -0.030395  0  -0.072513  -0.011635  0  3.93221  0
C  C177  1  0.50213373  0.97917309  0.23814812  1  -0.000544  0  -0.100266  -0.14252  0  3.986689  0
C  C178  1  0.51623625  0.97824991  0.17429033  1  0.441691  0  0.035176  0.09589  0  3.923169  0
C  C179  1  0.50403605  0.80808145  0.92697593  1  0.313826  0  0.078905  0.163729  0  3.9275  0
C  C180  1  0.49592065  0.74923804  0.86661293  1  0.012384  0  -0.093103  -0.15884  0  3.981412  0
C  C181  1  0.42824680  0.71767713  0.78517112  1  -0.049691  0  -0.073468  -0.021948  0  3.974367  0
C  C182  1  0.37132862  0.74642399  0.76586644  1  -0.031112  0  -0.092639  -0.135378  0  3.978775  0
C  C183  1  0.38509463  0.80639140  0.82905930  1  0.465213  0  0.031864  0.091323  0  3.92881  0
C  C184  1  0.88091759  0.58287356  0.35480202  1  0.331552  0  0.073318  0.151491  0  3.957435  0
C  C185  1  0.86184363  0.64386396  0.35104528  1  -0.090605  0  -0.098488  -0.171129  0  3.992316  0
C  C186  1  0.92374918  0.72269061  0.41432534  1  -0.030181  0  -0.072516  -0.011638  0  3.932037  0
C  C187  1  0.00213666  0.73815149  0.47917076  1  -0.000493  0  -0.100227  -0.14242  0  3.986581  0
C  C188  1  0.01623860  0.67429231  0.47825065  1  0.441816  0  0.035173  0.095824  0  3.923082  0
C  C189  1  0.00404596  0.42698183  0.30808746  1  0.31408  0  0.07891  0.163848  0  3.927528  0
C  C190  1  0.99592801  0.36661848  0.24924204  1  0.006261  0  -0.093135  -0.158921  0  3.981606  0
C  C191  1  0.92825092  0.28517604  0.21767809  1  -0.043355  0  -0.073528  -0.022002  0  3.974445  0
C  C192  1  0.87133148  0.26587233  0.24642348  1  -0.031111  0  -0.092632  -0.135388  0  3.978859  0
C  C193  1  0.88510079  0.32906482  0.30639391  1  0.46499  0  0.031879  0.0913  0  3.928876  0
C  C194  1  0.61908557  0.47388510  0.20195846  1  0.281985  0  0.073247  0.151362  0  3.957558  0
C  C195  1  0.63816107  0.48920356  0.28202240  1  -0.002602  0  -0.098465  -0.171084  0  3.992224  0
C  C196  1  0.57625314  0.49057352  0.29894416  1  -0.066312  0  -0.072431  -0.011523  0  3.931897  0
C  C197  1  0.49786559  0.47703274  0.23601328  1  0.004744  0  -0.100246  -0.142513  0  3.9865  0
C  C198  1  0.48376274  0.46201236  0.15805002  1  0.434993  0  0.035137  0.095876  0  3.923109  0
C  C199  1  0.49594655  0.30404250  0.92292975  1  0.329739  0  0.07883  0.163752  0  3.927593  0
C  C200  1  0.50406729  0.25331336  0.87069117  1  -0.030987  0  -0.093138  -0.158897  0  3.9817  0
C  C201  1  0.57174319  0.28942438  0.85692541  1  0.00609  0  -0.073469  -0.021887  0  3.974112  0
C  C202  1  0.62866141  0.37509395  0.89453680  1  -0.048741  0  -0.092624  -0.135472  0  3.978734  0
C  C203  1  0.61489204  0.42129521  0.94395975  1  0.428609  0  0.031913  0.091525  0  3.928631  0
C  C204  1  0.88091534  0.29804187  0.02611534  1  0.282098  0  0.073259  0.151395  0  3.957589  0
C  C205  1  0.86183794  0.21797626  0.01079414  1  -0.002722  0  -0.098484  -0.171181  0  3.992214  0
C  C206  1  0.92374524  0.20105386  0.00942317  1  -0.066652  0  -0.072377  -0.01134  0  3.931672  0
C  C207  1  0.00213594  0.26398365  0.02297075  1  0.005056  0  -0.100329  -0.142687  0  3.986626  0
C  C208  1  0.01623936  0.34194654  0.03799055  1  0.434633  0  0.035167  0.095869  0  3.92308  0
C  C209  1  0.00405395  0.57706710  0.19595786  1  0.329945  0  0.078924  0.163841  0  3.92764  0
C  C210  1  0.99593065  0.62930441  0.24668566  1  -0.031136  0  -0.093177  -0.158976  0  3.981721  0
C  C211  1  0.92825203  0.64306958  0.21057424  1  0.006152  0  -0.073498  -0.021883  0  3.974187  0
C  C212  1  0.87133640  0.60545736  0.12490559  1  -0.04807  0  -0.092544  -0.135293  0  3.978773  0
C  C213  1  0.88510842  0.55603666  0.07870334  1  0.428258  0  0.031859  0.091268  0  3.92873  0
C  C214  1  0.61908453  0.14519951  0.91712700  1  0.331245  0  0.073281  0.151384  0  3.957485  0
C  C215  1  0.63815841  0.14895792  0.85613530  1  -0.090176  0  -0.098484  -0.171078  0  3.992268  0
C  C216  1  0.57625350  0.08567657  0.77731232  1  -0.030239  0  -0.072419  -0.011516  0  3.932078  0
C  C217  1  0.49786665  0.02082966  0.76185061  1  -0.000443  0  -0.100286  -0.142621  0  3.986732  0
C  C218  1  0.48376546  0.02175320  0.82571011  1  0.441893  0  0.03518  0.095903  0  3.923183  0
C  C219  1  0.49595705  0.19191278  0.07301766  1  0.314173  0  0.078965  0.16391  0  3.927548  0
C  C220  1  0.50407510  0.25076026  0.13338039  1  0.011243  0  -0.09313  -0.158921  0  3.981514  0
C  C221  1  0.57175160  0.28232413  0.21482403  1  -0.048454  0  -0.073527  -0.022063  0  3.97439  0
C  C222  1  0.62867110  0.25357773  0.23412834  1  -0.031074  0  -0.092552  -0.135154  0  3.978859  0
C  C223  1  0.61490113  0.19360669  0.17093558  1  0.464988  0  0.03183  0.091102  0  3.928948  0
C  C224  1  0.77192424  0.79803830  0.41712484  1  0.306404  0  0.073249  0.151283  0  3.957724  0
C  C225  1  0.70717388  0.71797416  0.35613639  1  -0.037868  0  -0.098505  -0.171144  0  3.992299  0
C  C226  1  0.69162245  0.70105116  0.27730777  1  -0.001683  0  -0.072488  -0.011525  0  3.93189  0
C  C227  1  0.74101075  0.76397865  0.26184903  1  -0.064399  0  -0.100251  -0.142525  0  3.986559  0
C  C228  1  0.80395638  0.84194243  0.32570857  1  0.459058  0  0.0352  0.095815  0  3.923141  0
C  C229  1  0.88110643  0.07705777  0.57301786  1  0.313819  0  0.078892  0.16374  0  3.927711  0
C  C230  1  0.88261854  0.12930180  0.63337725  1  -0.009624  0  -0.09313  -0.158855  0  3.981448  0
C  C231  1  0.93249778  0.14307066  0.71482354  1  0.010085  0  -0.073543  -0.022039  0  3.974239  0
C  C232  1  0.98055309  0.10545804  0.73412833  1  -0.025141  0  -0.092555  -0.135274  0  3.978819  0
C  C233  1  0.97733488  0.05603660  0.67093669  1  0.425761  0  0.031915  0.091398  0  3.928735  0
C  C234  1  0.72807478  0.64520022  0.52611768  1  0.304096  0  0.073291  0.151548  0  3.957637  0
C  C235  1  0.79281698  0.64895564  0.51079767  1  -0.052263  0  -0.098501  -0.171213  0  3.992451  0
C  C236  1  0.80836681  0.58567750  0.50942510  1  -0.050448  0  -0.072418  -0.011471  0  3.931879  0
C  C237  1  0.75897916  0.52082907  0.52296419  1  0.005196  0  -0.100274  -0.142502  0  3.986577  0
C  C238  1  0.69604040  0.52174702  0.53798685  1  0.442305  0  0.035152  0.095786  0  3.923126  0
C  C239  1  0.61888927  0.69190539  0.69595691  1  0.348282  0  0.078944  0.163889  0  3.927615  0
C  C240  1  0.61737579  0.75075295  0.74668401  1  0.022259  0  -0.093186  -0.158953  0  3.981811  0
C  C241  1  0.56749773  0.78231672  0.71057105  1  0.000319  0  -0.073461  -0.021854  0  3.974332  0
C  C242  1  0.51944629  0.75356777  0.62490507  1  -0.054383  0  -0.092558  -0.135325  0  3.978956  0
C  C243  1  0.52266854  0.69359979  0.57870165  1  0.38308  0  0.031838  0.091249  0  3.928898  0
C  C244  1  0.72807371  0.08287472  0.70195692  1  0.309001  0  0.073271  0.151421  0  3.957549  0
C  C245  1  0.79281681  0.14386530  0.78202170  1  -0.041113  0  -0.098458  -0.1711  0  3.992209  0
C  C246  1  0.80836484  0.22269392  0.79894281  1  -0.001321  0  -0.072471  -0.011694  0  3.931935  0
C  C247  1  0.75897512  0.23815135  0.73601512  1  -0.064321  0  -0.10021  -0.142302  0  3.986465  0
C  C248  1  0.69603940  0.17429374  0.65805259  1  0.459179  0  0.035102  0.095677  0  3.923165  0
C  C249  1  0.61888937  0.92698533  0.42293182  1  0.313721  0  0.078946  0.163909  0  3.927766  0
C  C250  1  0.61737396  0.86662260  0.37069184  1  -0.00962  0  -0.093203  -0.15899  0  3.981909  0
C  C251  1  0.56749613  0.78518070  0.35692743  1  0.010405  0  -0.073529  -0.021923  0  3.974475  0
C  C252  1  0.51944421  0.76587801  0.39454077  1  -0.025908  0  -0.092507  -0.135196  0  3.978854  0
C  C253  1  0.52266703  0.82907079  0.44396517  1  0.42608  0  0.031885  0.091268  0  3.928774  0
C  C254  1  0.77192266  0.97388245  0.85479844  1  0.304499  0  0.073238  0.151335  0  3.957669  0
C  C255  1  0.70717647  0.98919943  0.85104112  1  -0.052617  0  -0.098484  -0.171138  0  3.992339  0
C  C256  1  0.69162605  0.99057068  0.91431765  1  -0.050437  0  -0.072441  -0.011481  0  3.931919  0
C  C257  1  0.74101050  0.97702791  0.97916323  1  0.00568  0  -0.100307  -0.142599  0  3.986648  0
C  C258  1  0.80395391  0.96201027  0.97824669  1  0.442215  0  0.035179  0.095812  0  3.923054  0
C  C259  1  0.88110635  0.80405031  0.80808924  1  0.348838  0  0.078863  0.163689  0  3.927941  0
C  C260  1  0.88261849  0.75331933  0.74924146  1  0.021376  0  -0.093131  -0.158878  0  3.981429  0
C  C261  1  0.93249580  0.78943218  0.71767387  1  0.000123  0  -0.073521  -0.021928  0  3.974238  0
C  C262  1  0.98054981  0.87509820  0.74642627  1  -0.053947  0  -0.092512  -0.135263  0  3.978941  0
C  C263  1  0.97733487  0.92130192  0.80640080  1  0.382765  0  0.031851  0.09133  0  3.928717  0
C  C264  1  0.22807879  0.20195936  0.58287633  1  0.309182  0  0.073239  0.151364  0  3.957504  0
C  C265  1  0.29282585  0.28202601  0.64386619  1  -0.040442  0  -0.098497  -0.171185  0  3.992168  0
C  C266  1  0.30837264  0.29894639  0.72269354  1  -0.001667  0  -0.072446  -0.011443  0  3.93175  0
C  C267  1  0.25898434  0.23601555  0.73814816  1  -0.064161  0  -0.100226  -0.142502  0  3.986636  0
C  C268  1  0.19604467  0.15805435  0.67428953  1  0.458758  0  0.035123  0.095785  0  3.923319  0
C  C269  1  0.11888866  0.92292930  0.42698459  1  0.313646  0  0.07884  0.163741  0  3.927473  0
C  C270  1  0.11738053  0.87069184  0.36662454  1  -0.010012  0  -0.093156  -0.158917  0  3.981556  0
C  C271  1  0.06750260  0.85692760  0.28518095  1  0.009812  0  -0.073529  -0.021943  0  3.974213  0
C  C272  1  0.01944597  0.89453833  0.26587967  1  -0.024748  0  -0.092543  -0.135308  0  3.97886  0
C  C273  1  0.02266683  0.94395825  0.32907111  1  0.425192  0  0.031873  0.091445  0  3.928712  0
C  C274  1  0.27192759  0.35480209  0.47388518  1  0.304458  0  0.073263  0.151471  0  3.957537  0
C  C275  1  0.20718341  0.35104670  0.48920159  1  -0.052464  0  -0.098543  -0.171266  0  3.99228  0
C  C276  1  0.19163159  0.41432456  0.49057420  1  -0.05041  0  -0.072462  -0.011541  0  3.931765  0
C  C277  1  0.24101593  0.47917164  0.47703241  1  0.005466  0  -0.100237  -0.142362  0  3.986487  0
C  C278  1  0.30395469  0.47825450  0.46200870  1  0.441925  0  0.035125  0.095719  0  3.923075  0
C  C279  1  0.38110847  0.30810069  0.30404876  1  0.348105  0  0.078968  0.163874  0  3.92792  0
C  C280  1  0.38262460  0.24925385  0.25332248  1  0.02237  0  -0.093272  -0.159168  0  3.981845  0
C  C281  1  0.43250199  0.21768995  0.28943614  1  0.000194  0  -0.073462  -0.021777  0  3.974267  0
C  C282  1  0.48055542  0.24643807  0.37510157  1  -0.054743  0  -0.092431  -0.135017  0  3.979191  0
C  C283  1  0.47733582  0.30640881  0.42130318  1  0.383113  0  0.031891  0.091348  0  3.928787  0
C  C284  1  0.27192602  0.91712424  0.29803945  1  0.308998  0  0.073261  0.151341  0  3.957714  0
C  C285  1  0.20718027  0.85613365  0.21797748  1  -0.040478  0  -0.098419  -0.170948  0  3.992156  0
C  C286  1  0.19163025  0.77730465  0.20105589  1  -0.001884  0  -0.072504  -0.011701  0  3.931833  0
C  C287  1  0.24101600  0.76184615  0.26398366  1  -0.064126  0  -0.100264  -0.142358  0  3.986505  0
C  C288  1  0.30395635  0.82570323  0.34194698  1  0.458931  0  0.035159  0.095745  0  3.923062  0
C  C289  1  0.38110970  0.07301301  0.57706265  1  0.313759  0  0.078909  0.163739  0  3.927949  0
C  C290  1  0.38262643  0.13337457  0.62930436  1  -0.009707  0  -0.09319  -0.158901  0  3.981722  0
C  C291  1  0.43250558  0.21481824  0.64307254  1  0.010538  0  -0.073522  -0.021992  0  3.97433  0
C  C292  1  0.48055684  0.23412304  0.60545832  1  -0.025306  0  -0.092476  -0.135111  0  3.978766  0
C  C293  1  0.47733534  0.17093183  0.55603405  1  0.425835  0  0.031802  0.091233  0  3.9287  0
C  C294  1  0.22807574  0.02611636  0.14519985  1  0.30373  0  0.073261  0.151391  0  3.957582  0
C  C295  1  0.29282061  0.01079668  0.14895653  1  -0.052158  0  -0.098497  -0.171159  0  3.992287  0
C  C296  1  0.30837169  0.00942515  0.08567982  1  -0.050288  0  -0.072393  -0.011447  0  3.931741  0
C  C297  1  0.25898393  0.02296616  0.02083207  1  0.00545  0  -0.100298  -0.14261  0  3.986556  0
C  C298  1  0.19604316  0.03798859  0.02175197  1  0.442435  0  0.035138  0.095777  0  3.923129  0
C  C299  1  0.11889337  0.19596137  0.19190958  1  0.348817  0  0.07884  0.163769  0  3.927428  0
C  C300  1  0.11738520  0.24669128  0.25076198  1  0.021767  0  -0.093144  -0.158946  0  3.981587  0
C  C301  1  0.06750591  0.21057702  0.28232651  1  2e-05  0  -0.073491  -0.021881  0  3.974108  0
C  C302  1  0.01944991  0.12490788  0.25357002  1  -0.053698  0  -0.092535  -0.135322  0  3.978894  0
C  C303  1  0.02267280  0.07871078  0.19359995  1  0.382837  0  0.031825  0.091229  0  3.92885  0
Se  Se304  1  0.19482739  0.53071905  0.72278911  1  0.133141  0  0.051063  -0.025883  0  2.592196  0
Se  Se305  1  0.90714582  0.45685165  0.64348816  1  0.139207  0  0.052887  -0.016369  0  2.656428  0
Se  Se306  1  0.30517552  0.52796293  0.83589394  1  0.136435  0  0.051057  -0.02589  0  2.592196  0
Se  Se307  1  0.59285362  0.73634000  0.04970717  1  0.141421  0  0.052914  -0.016263  0  2.656314  0
Se  Se308  1  0.19482637  0.66410885  0.97204457  1  0.136508  0  0.051034  -0.025887  0  2.59231  0
Se  Se309  1  0.90714193  0.45028679  0.76365570  1  0.141432  0  0.052868  -0.016369  0  2.656376  0
Se  Se310  1  0.30517302  0.77720977  0.96928350  1  0.133158  0  0.051046  -0.025896  0  2.592198  0
Se  Se311  1  0.59284559  0.85650686  0.04314336  1  0.139137  0  0.052853  -0.016425  0  2.656411  0
Se  Se312  1  0.80517498  0.46928163  0.27721324  1  0.133135  0  0.051051  -0.025918  0  2.592209  0
Se  Se313  1  0.09285324  0.54314668  0.35650892  1  0.139215  0  0.052865  -0.016395  0  2.656505  0
Se  Se314  1  0.69482884  0.47204464  0.16411090  1  0.136588  0  0.051065  -0.025831  0  2.592191  0
Se  Se315  1  0.40714014  0.26365588  0.95028829  1  0.141681  0  0.052882  -0.016323  0  2.656367  0
Se  Se316  1  0.80517534  0.33589119  0.02796109  1  0.136501  0  0.051081  -0.025847  0  2.592217  0
Se  Se317  1  0.09286111  0.54970966  0.23634444  1  0.141467  0  0.052888  -0.016326  0  2.656381  0
Se  Se318  1  0.69483134  0.22278652  0.03072095  1  0.133144  0  0.051075  -0.025826  0  2.592165  0
Se  Se319  1  0.40714884  0.14349219  0.95685396  1  0.139115  0  0.052865  -0.016413  0  2.656476  0
Se  Se320  1  0.80793326  0.83588843  0.53071780  1  0.138143  0  0.051078  -0.025803  0  2.592173  0
Se  Se321  1  0.81336352  0.04970231  0.45685316  1  0.139898  0  0.052882  -0.016368  0  2.656331  0
Se  Se322  1  0.69206974  0.72278561  0.52796233  1  0.133461  0  0.05108  -0.025894  0  2.592221  0
Se  Se323  1  0.68663593  0.64348586  0.73634600  1  0.144985  0  0.052875  -0.016385  0  2.656362  0
Se  Se324  1  0.69206989  0.96928526  0.66410550  1  0.138092  0  0.051083  -0.02585  0  2.592173  0
Se  Se325  1  0.68663566  0.04315052  0.45028822  1  0.136006  0  0.052889  -0.016357  0  2.656325  0
Se  Se326  1  0.80793290  0.97204548  0.77721643  1  0.133508  0  0.051096  -0.02582  0  2.592151  0
Se  Se327  1  0.81336577  0.76366319  0.85651263  1  0.148569  0  0.052866  -0.016337  0  2.656358  0
Se  Se328  1  0.19207308  0.16411222  0.46928137  1  0.138088  0  0.051068  -0.025869  0  2.592053  0
Se  Se329  1  0.18664017  0.95028663  0.54315155  1  0.135998  0  0.052859  -0.016396  0  2.656208  0
Se  Se330  1  0.30793528  0.27722087  0.47204339  1  0.133494  0  0.051111  -0.025803  0  2.59229  0
Se  Se331  1  0.31336777  0.35652249  0.26366422  1  0.148732  0  0.052889  -0.016259  0  2.656463  0
Se  Se332  1  0.30793381  0.03071642  0.33588869  1  0.138023  0  0.051072  -0.025853  0  2.592307  0
Se  Se333  1  0.31336539  0.95684749  0.54970311  1  0.139689  0  0.052907  -0.016291  0  2.656444  0
Se  Se334  1  0.19207212  0.02795785  0.22278620  1  0.133507  0  0.051079  -0.02586  0  2.592241  0
Se  Se335  1  0.18664190  0.23635479  0.14349171  1  0.144872  0  0.05286  -0.01641  0  2.656174  0
Br  Br336  1  0.13254165  0.57184303  0.53721228  1  -0.585249  0  -0.274399  -0.46168  0  1.586251  0
Br  Br337  1  0.36744973  0.40466468  0.93929735  1  -0.584725  0  -0.274367  -0.461596  0  1.586196  0
Br  Br338  1  0.13255331  0.56069668  0.09533649  1  -0.58472  0  -0.27439  -0.461637  0  1.586182  0
Br  Br339  1  0.36745846  0.96278883  0.92816047  1  -0.58524  0  -0.27439  -0.461636  0  1.586204  0
Br  Br340  1  0.86745675  0.42815435  0.46278655  1  -0.585249  0  -0.274405  -0.46168  0  1.586164  0
Br  Br341  1  0.63255066  0.59533370  0.06069728  1  -0.584725  0  -0.274381  -0.461612  0  1.586221  0
Br  Br342  1  0.86745171  0.43930015  0.90466413  1  -0.584743  0  -0.274374  -0.461601  0  1.58612  0
Br  Br343  1  0.63254193  0.03720782  0.07183832  1  -0.58525  0  -0.274404  -0.461642  0  1.586186  0
Br  Br344  1  0.03463620  0.93928972  0.57184350  1  -0.583675  0  -0.274353  -0.461575  0  1.586316  0
Br  Br345  1  0.46537039  0.53721882  0.40467210  1  -0.585681  0  -0.274378  -0.461633  0  1.586165  0
Br  Br346  1  0.46537140  0.92815655  0.56070041  1  -0.583663  0  -0.274386  -0.461631  0  1.58615  0
Br  Br347  1  0.03463972  0.09534692  0.96279151  1  -0.585624  0  -0.274358  -0.461617  0  1.586322  0
Br  Br348  1  0.96536948  0.06070034  0.42815233  1  -0.583636  0  -0.274379  -0.461579  0  1.586275  0
Br  Br349  1  0.53463795  0.46279612  0.59533884  1  -0.585709  0  -0.274366  -0.461626  0  1.58614  0
Br  Br350  1  0.53463958  0.07184672  0.43930263  1  -0.583626  0  -0.274382  -0.461634  0  1.586193  0
Br  Br351  1  0.96537126  0.90467128  0.03722021  1  -0.585672  0  -0.274361  -0.461587  0  1.5863  0
N  N352  1  0.04343612  0.40250744  0.58277449  1  -1.238814  0  -0.373968  -0.245069  0  3.702425  0
N  N353  1  0.04993957  0.59138969  0.66326926  1  -1.209705  0  -0.367829  -0.235553  0  3.681053  0
N  N354  1  0.45655949  0.53933544  0.85907215  1  -1.215824  0  -0.373938  -0.244988  0  3.70249  0
N  N355  1  0.45006653  0.61332603  0.04145636  1  -1.218341  0  -0.36781  -0.235507  0  3.680767  0
N  N356  1  0.04343845  0.64092797  0.96066461  1  -1.215844  0  -0.373975  -0.245015  0  3.702354  0
N  N357  1  0.04993570  0.45854317  0.88667080  1  -1.218244  0  -0.367815  -0.235537  0  3.68079  0
N  N358  1  0.45656180  0.91722413  0.09748801  1  -1.238832  0  -0.373994  -0.245082  0  3.702422  0
N  N359  1  0.45005075  0.83672528  0.90860387  1  -1.209295  0  -0.367903  -0.235573  0  3.680942  0
N  N360  1  0.95656427  0.59748981  0.41722482  1  -1.238908  0  -0.373966  -0.245055  0  3.702376  0
N  N361  1  0.95005949  0.40860904  0.33672989  1  -1.209524  0  -0.367863  -0.235595  0  3.68102  0
N  N362  1  0.54344222  0.46066665  0.14092830  1  -1.21582  0  -0.373925  -0.244927  0  3.70251  0
N  N363  1  0.54993319  0.38667252  0.95854312  1  -1.218394  0  -0.367781  -0.235513  0  3.68077  0
N  N364  1  0.95656260  0.35907063  0.03933762  1  -1.215602  0  -0.373949  -0.244938  0  3.702356  0
N  N365  1  0.95006932  0.54145417  0.11332722  1  -1.218001  0  -0.367863  -0.235581  0  3.680908  0
N  N366  1  0.54343792  0.08277544  0.90251147  1  -1.238936  0  -0.373966  -0.245056  0  3.702514  0
N  N367  1  0.54994302  0.16327050  0.09139107  1  -1.209762  0  -0.367861  -0.235523  0  3.680969  0
N  N368  1  0.81973818  0.85906779  0.40251228  1  -1.232028  0  -0.373886  -0.244856  0  3.702323  0
N  N369  1  0.92812696  0.04144900  0.59138977  1  -1.210134  0  -0.367873  -0.235517  0  3.680673  0
N  N370  1  0.68026744  0.58277434  0.53933741  1  -1.212196  0  -0.373981  -0.245069  0  3.702449  0
N  N371  1  0.57187726  0.66326477  0.61332749  1  -1.228906  0  -0.367828  -0.235518  0  3.68097  0
N  N372  1  0.68026628  0.09749326  0.64092885  1  -1.231939  0  -0.373968  -0.245012  0  3.702375  0
N  N373  1  0.57187619  0.90861432  0.45854717  1  -1.210257  0  -0.367856  -0.235579  0  3.681055  0
N  N374  1  0.81973606  0.96066548  0.91722511  1  -1.21285  0  -0.373941  -0.244926  0  3.702311  0
N  N375  1  0.92812689  0.88668058  0.83673881  1  -1.228868  0  -0.367873  -0.235587  0  3.680914  0
N  N376  1  0.18026485  0.14092805  0.59748734  1  -1.232211  0  -0.373918  -0.244896  0  3.702434  0
N  N377  1  0.07187343  0.95854438  0.40861581  1  -1.210089  0  -0.367799  -0.235595  0  3.680966  0
N  N378  1  0.31973096  0.41722883  0.46066239  1  -1.212328  0  -0.373939  -0.245064  0  3.702381  0
N  N379  1  0.42812709  0.33674249  0.38667839  1  -1.229006  0  -0.367939  -0.235723  0  3.681138  0
N  N380  1  0.31973212  0.90250636  0.35906839  1  -1.231825  0  -0.373958  -0.244984  0  3.702404  0
N  N381  1  0.42812419  0.09138691  0.54144898  1  -1.210268  0  -0.367833  -0.235496  0  3.680933  0
N  N382  1  0.18026300  0.03933559  0.08277557  1  -1.212384  0  -0.373933  -0.244947  0  3.702327  0
N  N383  1  0.07187813  0.11333008  0.16326219  1  -1.229053  0  -0.367781  -0.235496  0  3.680971  0
