# generated using pymatgen
data_CuPH9C11(NO3)2
_symmetry_space_group_name_H-M   'P 1'
_cell_length_a   8.16786635
_cell_length_b   8.72987068
_cell_length_c   9.44412011
_cell_angle_alpha   103.43115168
_cell_angle_beta   105.59591192
_cell_angle_gamma   103.98851204
_symmetry_Int_Tables_number   1
_chemical_formula_structural   CuPH9C11(NO3)2
_chemical_formula_sum   'Cu2 P2 H18 C22 N4 O12'
_cell_volume   596.69517961
_cell_formula_units_Z   2
loop_
 _symmetry_equiv_pos_site_id
 _symmetry_equiv_pos_as_xyz
  1  'x, y, z'
loop_
 _atom_site_type_symbol
 _atom_site_label
 _atom_site_symmetry_multiplicity
 _atom_site_fract_x
 _atom_site_fract_y
 _atom_site_fract_z
 _atom_site_occupancy
 _atom_site_hle17_ddec_charge
 _atom_site_hle17_ddec_spin_density
 _atom_site_hle17_ddec_sum_bond_order
 _atom_site_hle17_magmom
 _atom_site_hse06_10hf_ddec_charge
 _atom_site_hse06_10hf_ddec_spin_density
 _atom_site_hse06_10hf_ddec_sum_bond_order
 _atom_site_hse06_10hf_magmom
 _atom_site_hse06_ddec_charge
 _atom_site_hse06_ddec_spin_density
 _atom_site_hse06_ddec_sum_bond_order
 _atom_site_hse06_magmom
 _atom_site_pbe_cm5_charge
 _atom_site_pbe_ddec_charge
 _atom_site_pbe_ddec_spin_density
 _atom_site_pbe_ddec_sum_bond_order
 _atom_site_pbe_magmom
Cu  Cu0  1  0.60478517  0.75023288  0.74827489  1  0.93971  -0.707151  1.830909  -0.531  0.912206  -0.786657  2.232758  -0.64  0.996484  -0.846859  2.1636  -0.72  0.77328  0.858964  -0.743028  2.282079  -0.587
Cu  Cu1  1  0.39521554  0.24976751  0.25172529  1  0.939623  -0.707157  1.831033  -0.531  0.912167  -0.786654  2.232802  -0.64  0.996418  -0.846857  2.163713  -0.72  0.77328  0.85895  -0.743027  2.282103  -0.587
P  P2  1  0.71348954  0.46019087  0.58063782  1  1.764393  -0.001937  4.792272  0.0  1.597665  -0.00681  5.312564  -0.005  1.661043  -0.005128  5.257738  -0.005  0.428695  1.552664  -0.008073  5.350026  -0.005
P  P3  1  0.28651286  0.53980705  0.41936221  1  1.764525  -0.001939  4.792138  0.0  1.597793  -0.006807  5.312429  -0.005  1.661149  -0.005127  5.257683  -0.005  0.428777  1.552784  -0.008072  5.349892  -0.005
H  H4  1  0.75779102  0.52155649  0.37969070  1  0.431366  2.6e-05  0.87334  0.0  0.399641  -1e-06  0.937969  0.0  0.412027  1.4e-05  0.920096  0.0  0.305063  0.390701  -2.9e-05  0.950842  0.0
H  H5  1  0.24220841  0.47844390  0.62030919  1  0.431375  2.7e-05  0.873329  0.0  0.39965  -1e-06  0.937959  0.0  0.412037  1.4e-05  0.920085  0.0  0.30506  0.390708  -2.9e-05  0.950835  0.0
H  H6  1  0.95786661  0.43423905  0.72777985  1  0.426379  6.9e-05  0.884414  0.0  0.392866  -8.7e-05  0.951428  0.0  0.405526  -4.8e-05  0.933345  0.0  0.302947  0.383923  -0.000128  0.964149  0.0
H  H7  1  0.04213409  0.56576133  0.27222139  1  0.426417  6.9e-05  0.884356  0.0  0.392901  -8.7e-05  0.951374  0.0  0.405559  -4.8e-05  0.933293  0.0  0.302962  0.383959  -0.000128  0.964094  0.0
H  H8  1  0.87266036  0.67359376  0.98534403  1  0.116616  -0.001558  0.943071  -0.003  0.119021  -0.001176  1.010941  -0.002  0.122247  -0.000791  1.007533  -0.002  0.124964  0.116414  -0.001528  1.013574  -0.003
H  H9  1  0.12733738  0.32640537  0.01465517  1  0.116624  -0.001559  0.943066  -0.003  0.119035  -0.001176  1.010925  -0.002  0.122261  -0.000791  1.007516  -0.002  0.12496  0.116429  -0.001528  1.013558  -0.003
H  H10  1  0.07075624  0.82207374  0.26399121  1  0.124947  -0.000454  0.960676  0.0  0.13596  -0.000462  1.015267  -0.001  0.139228  -0.000331  1.014566  0.0  0.113515  0.133392  -0.000566  1.016133  -0.001
H  H11  1  0.92924447  0.17792665  0.73600898  1  0.124939  -0.000457  0.960654  0.0  0.135954  -0.000462  1.015245  -0.001  0.139222  -0.000331  1.014545  0.0  0.113525  0.133388  -0.000566  1.016112  -0.001
H  H12  1  0.06402855  0.10958035  0.39191394  1  0.10576  -0.000171  0.940378  0.0  0.117775  0.000138  0.99787  0.0  0.120513  0.000167  0.995422  0.0  0.113469  0.115774  8.2e-05  0.999569  0.0
H  H13  1  0.93596664  0.89041878  0.60808361  1  0.105733  -0.000173  0.940398  0.0  0.117749  0.000138  0.997894  0.0  0.120487  0.000167  0.995447  0.0  0.113452  0.115747  8.2e-05  0.99959  0.0
H  H14  1  0.86657770  0.22940657  0.24385221  1  0.121721  -0.000844  0.95888  -0.001  0.133644  -0.000703  1.012125  -0.001  0.136207  -0.000495  1.011754  -0.001  0.118198  0.131433  -0.000881  1.012929  -0.001
H  H15  1  0.13341749  0.77059256  0.75614534  1  0.121731  -0.000843  0.95887  -0.001  0.133641  -0.000703  1.012128  -0.001  0.136206  -0.000495  1.011756  -0.001  0.118196  0.13143  -0.000881  1.012932  -0.001
H  H16  1  0.49987822  0.39997300  0.86437326  1  0.115771  -0.000169  0.938122  0.0  0.125946  7.3e-05  0.997226  0.0  0.128698  8.5e-05  0.995308  0.0  0.11402  0.123595  4.1e-05  0.999242  0.0
H  H17  1  0.50012333  0.60002614  0.13562790  1  0.115784  -0.000171  0.938077  0.0  0.125938  7.3e-05  0.997199  0.0  0.128691  8.5e-05  0.995278  0.0  0.114027  0.123588  4.1e-05  0.999215  0.0
H  H18  1  0.33526116  0.18770749  0.60491359  1  0.121099  -0.000453  0.938184  -0.001  0.131891  -0.000421  0.993564  -0.001  0.134665  -0.000301  0.992702  0.0  0.116093  0.129687  -0.000524  0.994355  -0.001
H  H19  1  0.66474125  0.81229414  0.39508833  1  0.121102  -0.000453  0.938179  -0.001  0.131891  -0.000421  0.993562  -0.001  0.134664  -0.000301  0.992702  0.0  0.116098  0.129684  -0.000524  0.994354  -0.001
H  H20  1  0.37799351  0.90374062  0.56021589  1  0.101962  -0.001328  0.957228  -0.003  0.109622  -0.001116  1.018422  -0.002  0.11188  -0.000757  1.016558  -0.002  0.124027  0.107633  -0.001418  1.020306  -0.002
H  H21  1  0.62200422  0.09625850  0.43978437  1  0.101937  -0.001329  0.957259  -0.003  0.109605  -0.001116  1.018452  -0.002  0.11186  -0.000757  1.016593  -0.002  0.124024  0.107623  -0.001418  1.020325  -0.002
C  C22  1  0.87543442  0.79671209  0.04753063  1  0.147403  0.01283  3.643766  0.009  0.117603  0.003677  3.90432  0.003  0.128184  0.005466  3.920463  0.004  0.054528  0.110698  0.00232  3.893991  0.002
C  C23  1  0.12456501  0.20328828  0.95247031  1  0.147333  0.012829  3.643749  0.009  0.117548  0.003678  3.904317  0.003  0.12813  0.005464  3.920454  0.004  0.054522  0.110642  0.00232  3.893995  0.002
C  C24  1  0.98491600  0.88045820  0.20191843  1  -0.110307  -0.010068  3.684183  -0.012  -0.127251  -0.004269  3.939659  -0.006  -0.134349  -0.003619  3.958976  -0.005  -0.079312  -0.123064  -0.004869  3.927268  -0.006
C  C25  1  0.01508515  0.11954347  0.79808003  1  -0.110287  -0.010064  3.684147  -0.012  -0.127233  -0.004269  3.939628  -0.006  -0.13433  -0.003618  3.958947  -0.005  -0.079329  -0.123047  -0.00487  3.927243  -0.006
C  C26  1  0.98101639  0.03774539  0.27199648  1  -0.003184  0.013192  3.711434  0.008  -0.027005  0.005494  3.974803  0.003  -0.022956  0.005912  3.990292  0.003  -0.062861  -0.029787  0.005241  3.964691  0.003
C  C27  1  0.01898178  0.96225500  0.72800205  1  -0.003202  0.013198  3.711488  0.008  -0.027025  0.005494  3.974856  0.003  -0.022978  0.00591  3.990349  0.003  -0.062864  -0.029804  0.005241  3.964741  0.003
C  C28  1  0.86960882  0.10749066  0.18717662  1  -0.11622  -0.006166  3.667646  -0.007  -0.137202  -0.002373  3.915835  -0.003  -0.143257  -0.002157  3.936422  -0.002  -0.073245  -0.133566  -0.002607  3.90304  -0.003
C  C29  1  0.13038765  0.89250847  0.81282123  1  -0.116208  -0.006169  3.66761  -0.007  -0.137158  -0.002374  3.915761  -0.003  -0.143214  -0.002156  3.93635  -0.002  -0.073233  -0.133524  -0.002607  3.902964  -0.003
C  C30  1  0.76620875  0.01989409  0.03179881  1  0.163009  0.005754  3.758534  0.003  0.160922  0.00053  4.006291  0.0  0.167761  0.002015  4.029044  0.001  0.114193  0.156228  -0.000495  3.991294  -0.001
C  C31  1  0.23379069  0.98010631  0.96820002  1  0.163006  0.005754  3.758535  0.003  0.16093  0.000531  4.006313  0.0  0.167766  0.002011  4.029064  0.001  0.114211  0.156238  -0.000495  3.991314  -0.001
C  C32  1  0.64925069  0.08032151  0.92471485  1  0.142806  0.005593  3.740028  0.003  0.130331  0.000864  3.991357  0.0  0.138873  0.002237  4.011997  0.001  0.116374  0.12509  -0.000155  3.977609  -0.001
C  C33  1  0.35075086  0.91967764  0.07528526  1  0.142866  0.005596  3.739968  0.003  0.130376  0.000864  3.99131  0.0  0.138931  0.002236  4.011933  0.001  0.116405  0.125131  -0.000155  3.977561  -0.001
C  C34  1  0.63109427  0.23944858  0.95765572  1  -0.094548  -0.005631  3.66321  -0.006  -0.078086  -0.002361  3.90443  -0.003  -0.087133  -0.002114  3.922613  -0.002  0.00466  -0.072575  -0.002627  3.892625  -0.003
C  C35  1  0.36890473  0.76055055  0.04234378  1  -0.094537  -0.005633  3.663259  -0.006  -0.078067  -0.002361  3.904434  -0.003  -0.087118  -0.002112  3.922614  -0.002  0.004657  -0.072555  -0.002627  3.892623  -0.003
C  C36  1  0.51456896  0.27675756  0.84202566  1  0.003572  0.011634  3.640415  0.007  -0.025893  0.004696  3.888205  0.003  -0.019279  0.005141  3.901696  0.003  -0.055001  -0.031073  0.004401  3.880295  0.002
C  C37  1  0.48543132  0.72324158  0.15797415  1  0.003522  0.011643  3.64036  0.007  -0.025916  0.004697  3.888122  0.003  -0.019303  0.00514  3.901611  0.003  -0.055014  -0.031101  0.004401  3.88021  0.002
C  C38  1  0.42154709  0.15814429  0.69711567  1  -0.079869  -0.009006  3.685783  -0.01  -0.091443  -0.004088  3.934586  -0.005  -0.096982  -0.003554  3.952315  -0.004  -0.068627  -0.087268  -0.004564  3.923056  -0.006
C  C39  1  0.57845191  0.84185484  0.30288489  1  -0.079818  -0.009009  3.685704  -0.01  -0.091386  -0.004087  3.934497  -0.005  -0.096924  -0.003553  3.952224  -0.004  -0.068614  -0.087212  -0.004564  3.922962  -0.006
C  C40  1  0.44619523  0.00301588  0.67078052  1  0.133312  0.011645  3.67074  0.008  0.105062  0.003547  3.926213  0.003  0.114849  0.005118  3.943534  0.004  0.050778  0.097739  0.002373  3.916016  0.002
C  C41  1  0.55380292  0.99698448  0.32922012  1  0.133315  0.011648  3.670706  0.008  0.10504  0.003547  3.926212  0.003  0.114828  0.005118  3.943532  0.004  0.050775  0.097716  0.002373  3.916018  0.002
C  C42  1  0.73786882  0.37837188  0.10797661  1  0.663785  -0.00071  3.931705  -0.001  0.608178  -0.000595  4.241605  -0.001  0.643036  -0.000372  4.232019  0.0  0.21715  0.584956  -0.000834  4.24651  -0.001
C  C43  1  0.26212890  0.62162724  0.89202365  1  0.663696  -0.000711  3.931789  -0.001  0.608137  -0.000595  4.241617  -0.001  0.642995  -0.000373  4.232032  0.0  0.217145  0.584914  -0.000834  4.246518  -0.001
N  N44  1  0.77021204  0.86520941  0.96607561  1  -0.345659  -0.084387  3.347096  -0.111  -0.304562  -0.058868  3.64645  -0.082  -0.336182  -0.047573  3.669102  -0.071  -0.344675  -0.285272  -0.065588  3.63295  -0.087
N  N45  1  0.22978868  0.13479101  0.03392247  1  -0.345556  -0.084387  3.347136  -0.111  -0.304518  -0.058869  3.646522  -0.082  -0.336133  -0.047572  3.669182  -0.071  -0.34466  -0.28523  -0.065589  3.633024  -0.087
N  N46  1  0.55635716  0.96652714  0.78163621  1  -0.344698  -0.078372  3.355185  -0.103  -0.307969  -0.055224  3.665515  -0.077  -0.338288  -0.044715  3.685686  -0.067  -0.347883  -0.289589  -0.061616  3.654058  -0.082
N  N47  1  0.44364228  0.03347325  0.21836368  1  -0.344703  -0.07837  3.355193  -0.103  -0.307978  -0.055223  3.665535  -0.077  -0.338296  -0.044713  3.685709  -0.067  -0.347901  -0.289606  -0.061615  3.654082  -0.082
O  O48  1  0.70502721  0.56921938  0.72901286  1  -0.842491  -0.079464  2.00021  -0.109  -0.799022  -0.048383  2.309302  -0.072  -0.841642  -0.035539  2.288156  -0.057  -0.384894  -0.76851  -0.05799  2.32366  -0.081
O  O49  1  0.29497479  0.43078103  0.27098657  1  -0.842526  -0.079461  2.000241  -0.109  -0.799045  -0.048382  2.30932  -0.072  -0.841659  -0.03554  2.288196  -0.057  -0.384904  -0.768536  -0.057989  2.32368  -0.081
O  O50  1  0.53771266  0.32701226  0.47094472  1  -0.884572  -0.058239  2.084843  -0.081  -0.830947  -0.03812  2.393583  -0.057  -0.870809  -0.028834  2.370133  -0.046  -0.388678  -0.803018  -0.044831  2.409647  -0.063
O  O51  1  0.46228805  0.67298813  0.52905546  1  -0.884578  -0.058239  2.084815  -0.081  -0.830946  -0.038121  2.393571  -0.057  -0.87082  -0.028833  2.370129  -0.046  -0.388671  -0.80301  -0.044833  2.409629  -0.063
O  O52  1  0.79758574  0.57909477  0.49615777  1  -0.786312  0.000112  1.979342  -0.001  -0.722729  0.000671  2.202856  0.0  -0.745054  0.001092  2.173998  0.0  -0.394279  -0.706627  5.8e-05  2.223001  -0.001
O  O53  1  0.20241454  0.42090437  0.50384203  1  -0.786354  0.00011  1.979323  -0.001  -0.722772  0.00067  2.202832  0.0  -0.745098  0.001092  2.17399  0.0  -0.394282  -0.706672  5.8e-05  2.222991  -0.001
O  O54  1  0.84660663  0.36168440  0.63111324  1  -0.785815  -0.014235  1.978063  -0.019  -0.72233  -0.008609  2.200311  -0.012  -0.747102  -0.005387  2.172226  -0.008  -0.396882  -0.703617  -0.011841  2.219029  -0.016
O  O55  1  0.15339578  0.63831353  0.36888574  1  -0.785902  -0.014234  1.977977  -0.019  -0.722413  -0.008609  2.200233  -0.012  -0.747181  -0.005388  2.172156  -0.008  -0.396959  -0.703702  -0.011842  2.218951  -0.016
O  O56  1  0.65803334  0.40949268  0.20464346  1  -0.649837  0.000642  2.037985  -0.001  -0.60331  0.001126  2.291163  0.0  -0.632906  0.001583  2.277629  0.0  -0.307463  -0.582151  0.000499  2.299852  -0.001
O  O57  1  0.34196438  0.59050643  0.79535679  1  -0.649895  0.00064  2.03795  -0.001  -0.60338  0.001125  2.291116  0.0  -0.632978  0.001585  2.277578  0.0  -0.307522  -0.582215  0.000499  2.299803  -0.001
O  O58  1  0.89588748  0.45480954  0.12108828  1  -0.580093  -0.001157  1.989751  -0.002  -0.520596  -0.000497  2.205794  -0.001  -0.545272  -0.000256  2.195513  0.0  -0.288166  -0.502792  -0.000822  2.211827  -0.001
O  O59  1  0.10410897  0.54518955  0.87891273  1  -0.579971  -0.001153  1.989797  -0.002  -0.520503  -0.000495  2.205806  -0.001  -0.545182  -0.000259  2.195526  0.0  -0.288113  -0.5027  -0.000821  2.211837  -0.001
