# generated using pymatgen
data_CdH13C17(NO2)3
_symmetry_space_group_name_H-M   'P 1'
_cell_length_a   7.70316066
_cell_length_b   8.81154565
_cell_length_c   15.26423405
_cell_angle_alpha   83.20794538
_cell_angle_beta   78.87214542
_cell_angle_gamma   78.78197187
_symmetry_Int_Tables_number   1
_chemical_formula_structural   CdH13C17(NO2)3
_chemical_formula_sum   'Cd2 H26 C34 N6 O12'
_cell_volume   993.67053911
_cell_formula_units_Z   2
loop_
 _symmetry_equiv_pos_site_id
 _symmetry_equiv_pos_as_xyz
  1  'x, y, z'
loop_
 _atom_site_type_symbol
 _atom_site_label
 _atom_site_symmetry_multiplicity
 _atom_site_fract_x
 _atom_site_fract_y
 _atom_site_fract_z
 _atom_site_occupancy
 _atom_site_hle17_bader_spin_density
 _atom_site_hle17_ddec_charge
 _atom_site_hle17_ddec_spin_density
 _atom_site_hle17_ddec_sum_bond_order
 _atom_site_hle17_magmom
 _atom_site_hse06_10hf_bader_spin_density
 _atom_site_hse06_10hf_ddec_charge
 _atom_site_hse06_10hf_ddec_spin_density
 _atom_site_hse06_10hf_ddec_sum_bond_order
 _atom_site_hse06_10hf_magmom
 _atom_site_hse06_bader_spin_density
 _atom_site_hse06_ddec_charge
 _atom_site_hse06_ddec_spin_density
 _atom_site_hse06_ddec_sum_bond_order
 _atom_site_hse06_magmom
 _atom_site_pbe_bader_spin_density
 _atom_site_pbe_cm5_charge
 _atom_site_pbe_ddec_charge
 _atom_site_pbe_ddec_spin_density
 _atom_site_pbe_ddec_sum_bond_order
 _atom_site_pbe_magmom
Cd  Cd0  1  0.48233376  0.91796376  0.85918601  1  0  1.155065  0  1.650949  0  0  0.971993  0  2.098519  0  0  1.030483  0  2.042514  0  0  0.76547  0.930375  0  2.136969  0
Cd  Cd1  1  0.51766030  0.08204174  0.14081457  1  0  1.155061  0  1.650969  0  0  0.97197  0  2.098558  0  0  1.030461  0  2.042551  0  0  0.765472  0.930351  0  2.137008  0
H  H2  1  0.98465127  0.56657138  0.15474251  1  0  0.118425  0  0.932129  0  0  0.125049  0  0.997994  0  0  0.130698  0  0.991324  0  0  0.111056  0.120925  0  1.002785  0
H  H3  1  0.01534103  0.43342364  0.84525570  1  0  0.118406  0  0.932166  0  0  0.125036  0  0.998023  0  0  0.130682  0  0.991351  0  0  0.111058  0.120914  0  1.002816  0
H  H4  1  0.39680224  0.48759635  0.92045333  1  0  0.132668  0  0.906628  0  0  0.142017  0  0.963776  0  0  0.146274  0  0.958973  0  0  0.138508  0.138807  0  0.967427  0
H  H5  1  0.60319386  0.51241152  0.07954360  1  0  0.132622  0  0.906612  0  0  0.141964  0  0.963765  0  0  0.146223  0  0.958961  0  0  0.138485  0.138752  0  0.967415  0
H  H6  1  0.00882809  0.88487875  0.91523469  1  0  0.116603  0  0.947591  0  0  0.120861  0  1.018016  0  0  0.125311  0  1.012702  0  0  0.132276  0.117626  0  1.021836  0
H  H7  1  0.99116114  0.11512438  0.08476459  1  0  0.116617  0  0.947608  0  0  0.12088  0  1.018027  0  0  0.125331  0  1.01271  0  0  0.132309  0.117641  0  1.021846  0
H  H8  1  0.55466441  0.71854810  0.69451169  1  0  0.097464  0  0.916775  0  0  0.107596  0  0.973336  0  0  0.110692  0  0.970152  0  0  0.12523  0.10522  0  0.975806  0
H  H9  1  0.44534089  0.28144822  0.30548770  1  0  0.097453  0  0.916826  0  0  0.107589  0  0.973387  0  0  0.110708  0  0.970177  0  0  0.125197  0.105213  0  0.975857  0
H  H10  1  0.69812743  0.72686156  0.53396602  1  0  0.097901  0  0.95575  0  0  0.111694  0  1.00904  0  0  0.114784  0  1.008172  0  0  0.106154  0.109488  0  1.009822  0
H  H11  1  0.30187977  0.27313828  0.46603357  1  0  0.097922  0  0.955721  0  0  0.111699  0  1.009028  0  0  0.11479  0  1.008159  0  0  0.10616  0.109492  0  1.00981  0
H  H12  1  0.70366190  0.21401605  0.54721909  1  0  0.098108  0  0.954583  0  0  0.111644  0  1.009061  0  0  0.114809  0  1.008112  0  0  0.106244  0.109335  0  1.009946  0
H  H13  1  0.29633715  0.78598485  0.45278194  1  0  0.09809  0  0.954598  0  0  0.111628  0  1.009074  0  0  0.114783  0  1.008137  0  0  0.106253  0.109317  0  1.009961  0
H  H14  1  0.55426915  0.18400357  0.70658709  1  0  0.100396  0  0.910153  0  0  0.113345  0  0.962465  0  0  0.115681  0  0.960382  0  0  0.129063  0.111512  0  0.964157  0
H  H15  1  0.44573756  0.81599276  0.29341476  1  0  0.100391  0  0.910141  0  0  0.113327  0  0.962469  0  0  0.115663  0  0.960385  0  0  0.129055  0.111488  0  0.964159  0
H  H16  1  0.84649496  0.22193760  0.42268703  1  0  0.094241  0  0.955694  0  0  0.10809  0  1.009505  0  0  0.111234  0  1.008502  0  0  0.103647  0.105847  0  1.010368  0
H  H17  1  0.15350649  0.77806449  0.57731433  1  0  0.0943  0  0.955692  0  0  0.108082  0  1.009515  0  0  0.111226  0  1.008512  0  0  0.103666  0.10584  0  1.010375  0
H  H18  1  0.02340791  0.21919934  0.26812049  1  0  0.100151  0  0.944936  0  0  0.107559  0  1.008574  0  0  0.110535  0  1.00537  0  0  0.117836  0.105276  0  1.01103  0
H  H19  1  0.97659063  0.78080388  0.73188044  1  0  0.100231  0  0.944889  0  0  0.107558  0  1.008628  0  0  0.110534  0  1.005423  0  0  0.117836  0.105277  0  1.011084  0
H  H20  1  0.99094010  0.76017654  0.25450403  1  0  0.084331  0  0.931051  0  0  0.095009  0  0.98948  0  0  0.097026  0  0.987273  0  0  0.119357  0.093403  0  0.991242  0
H  H21  1  0.00906845  0.23982331  0.74549608  1  0  0.084355  0  0.931027  0  0  0.095007  0  0.989489  0  0  0.097018  0  0.987285  0  0  0.119372  0.093402  0  0.991251  0
H  H22  1  0.80875836  0.74213992  0.40574368  1  0  0.094969  0  0.958321  0  0  0.108378  0  1.012586  0  0  0.11146  0  1.011649  0  0  0.104023  0.10617  0  1.01342  0
H  H23  1  0.19124542  0.25786337  0.59425538  1  0  0.094988  0  0.958292  0  0  0.10836  0  1.012543  0  0  0.11144  0  1.011606  0  0  0.104003  0.106151  0  1.013376  0
H  H24  1  0.80546322  0.03833508  0.83000853  1  0  0.366213  0  0.967678  0  0  0.322335  0  1.053718  0  0  0.333495  0  1.038189  0  0  0.270474  0.314534  0  1.064538  0
H  H25  1  0.19453612  0.96166465  0.16999386  1  0  0.366201  0  0.967688  0  0  0.322328  0  1.053725  0  0  0.333489  0  1.038195  0  0  0.270468  0.314527  0  1.064545  0
H  H26  1  0.72053022  0.03361341  0.93444899  1  0  0.422999  0  0.881875  0  0  0.392543  0  0.944691  0  0  0.403322  0  0.929211  0  0  0.284357  0.384875  0  0.955682  0
H  H27  1  0.27946965  0.96638401  0.06555416  1  0  0.423026  0  0.881841  0  0  0.392587  0  0.944625  0  0  0.403364  0  0.929149  0  0  0.284391  0.384917  0  0.955618  0
C  C28  1  0.97177653  0.73802497  0.04110062  1  0  -0.082872  0  3.758366  0  0  -0.057497  0  4.002385  0  0  -0.069009  0  4.023823  0  0  -0.008778  -0.050634  0  3.988348  0
C  C29  1  0.02821500  0.26197354  0.95889743  1  0  -0.082895  0  3.758396  0  0  -0.057464  0  4.002338  0  0  -0.068975  0  4.023768  0  0  -0.008753  -0.050603  0  3.988305  0
C  C30  1  0.04690975  0.60198390  0.08710861  1  0  -0.046691  0  3.688236  0  0  -0.094134  0  3.947475  0  0  -0.086042  0  3.960871  0  0  -0.068035  -0.098762  0  3.938203  0
C  C31  1  0.95308391  0.39801696  0.91288906  1  0  -0.046598  0  3.68834  0  0  -0.094077  0  3.947539  0  0  -0.085966  0  3.960941  0  0  -0.068006  -0.098711  0  3.938271  0
C  C32  1  0.20114179  0.50978607  0.04466106  1  0  -0.081024  0  3.765945  0  0  -0.05339  0  4.005246  0  0  -0.065473  0  4.028728  0  0  -0.009301  -0.046184  0  3.98987  0
C  C33  1  0.79886002  0.49021372  0.95533517  1  0  -0.08116  0  3.76619  0  0  -0.053451  0  4.005424  0  0  -0.065585  0  4.028957  0  0  -0.009344  -0.046239  0  3.990037  0
C  C34  1  0.27853283  0.55509581  0.95784261  1  0  0.03627  0  3.530381  0  0  -0.018844  0  3.789154  0  0  -0.007283  0  3.797733  0  0  0.05571  -0.025985  0  3.783462  0
C  C35  1  0.72146611  0.44490510  0.04215450  1  0  0.036358  0  3.530333  0  0  -0.018742  0  3.789035  0  0  -0.007169  0  3.797626  0  0  0.055749  -0.025884  0  3.783343  0
C  C36  1  0.05513368  0.78000243  0.95499003  1  0  0.034651  0  3.537595  0  0  -0.020205  0  3.799273  0  0  -0.008609  0  3.807877  0  0  0.049354  -0.027436  0  3.793623  0
C  C37  1  0.94485693  0.22000071  0.04501107  1  0  0.034467  0  3.537709  0  0  -0.020414  0  3.7994  0  0  -0.008819  0  3.808002  0  0  0.049177  -0.027639  0  3.793743  0
C  C38  1  0.80660621  0.84118650  0.08503079  1  0  0.653272  0  3.911941  0  0  0.601056  0  4.204926  0  0  0.634957  0  4.200385  0  0  0.203351  0.578122  0  4.207206  0
C  C39  1  0.19338335  0.15880963  0.91497352  1  0  0.653445  0  3.911653  0  0  0.601209  0  4.204661  0  0  0.635113  0  4.200117  0  0  0.203475  0.578274  0  4.206943  0
C  C40  1  0.28739734  0.36221757  0.09167911  1  0  0.621857  0  3.983147  0  0  0.57489  0  4.275917  0  0  0.60774  0  4.273246  0  0  0.189396  0.552719  0  4.276802  0
C  C41  1  0.71261033  0.63778577  0.90831692  1  0  0.621948  0  3.983119  0  0  0.574876  0  4.276008  0  0  0.607759  0  4.273308  0  0  0.189383  0.552704  0  4.27689  0
C  C42  1  0.58867322  0.82596070  0.65804586  1  0  0.146398  0  3.698101  0  0  0.114419  0  3.950548  0  0  0.122665  0  3.968365  0  0  0.057191  0.109075  0  3.93842  0
C  C43  1  0.41133211  0.17403562  0.34195418  1  0  0.1463  0  3.698238  0  0  0.114298  0  3.950705  0  0  0.122526  0  3.968521  0  0  0.057175  0.108954  0  3.938573  0
C  C44  1  0.66963509  0.83253199  0.56842085  1  0  -0.167278  0  3.721702  0  0  -0.185523  0  3.971212  0  0  -0.194218  0  3.993033  0  0  -0.085379  -0.179941  0  3.956527  0
C  C45  1  0.33036839  0.16746664  0.43157856  1  0  -0.167187  0  3.721792  0  0  -0.185451  0  3.97124  0  0  -0.194148  0  3.993069  0  0  -0.085343  -0.179869  0  3.956554  0
C  C46  1  0.71696130  0.97196832  0.52465242  1  0  0.093772  0  3.765061  0  0  0.103277  0  4.003114  0  0  0.108087  0  4.025139  0  0  0.010728  0.10031  0  3.987933  0
C  C47  1  0.28304061  0.02803146  0.47534708  1  0  0.093425  0  3.765282  0  0  0.103209  0  4.003186  0  0  0.108019  0  4.025208  0  0  0.010672  0.10024  0  3.988008  0
C  C48  1  0.67237908  0.10123321  0.57563036  1  0  -0.164902  0  3.719681  0  0  -0.185653  0  3.975115  0  0  -0.194161  0  3.997203  0  0  -0.084797  -0.180106  0  3.960164  0
C  C49  1  0.32761915  0.89876535  0.42437091  1  0  -0.164724  0  3.719682  0  0  -0.18551  0  3.975038  0  0  -0.194009  0  3.997129  0  0  -0.084736  -0.179963  0  3.960086  0
C  C50  1  0.58981104  0.08625184  0.66489929  1  0  0.137354  0  3.701505  0  0  0.104255  0  3.957345  0  0  0.111992  0  3.976654  0  0  0.055723  0.099266  0  3.944109  0
C  C51  1  0.41019299  0.91374446  0.33510154  1  0  0.137361  0  3.701374  0  0  0.104269  0  3.957205  0  0  0.112006  0  3.976512  0  0  0.05574  0.099286  0  3.94396  0
C  C52  1  0.81315991  0.98032636  0.43072757  1  0  0.081758  0  3.768458  0  0  0.091111  0  4.006991  0  0  0.094539  0  4.029678  0  0  0.005164  0.089069  0  3.991301  0
C  C53  1  0.18684225  0.01967226  0.56927198  1  0  0.082242  0  3.76847  0  0  0.091008  0  4.007155  0  0  0.094436  0  4.029842  0  0  0.00513  0.08897  0  3.991463  0
C  C54  1  0.87322052  0.11593664  0.38858143  1  0  -0.159825  0  3.712765  0  0  -0.178907  0  3.964664  0  0  -0.186705  0  3.986229  0  0  -0.08589  -0.17381  0  3.949966  0
C  C55  1  0.12678092  0.88406545  0.61141927  1  0  -0.160068  0  3.713007  0  0  -0.178741  0  3.964706  0  0  -0.186539  0  3.986275  0  0  -0.085823  -0.173645  0  3.950014  0
C  C56  1  0.97256277  0.11613426  0.30204137  1  0  0.142454  0  3.687524  0  0  0.109198  0  3.947789  0  0  0.116716  0  3.964145  0  0  0.053673  0.104378  0  3.936666  0
C  C57  1  0.02743732  0.88386782  0.69795882  1  0  0.142399  0  3.687491  0  0  0.10911  0  3.947723  0  0  0.116626  0  3.96408  0  0  0.053615  0.104288  0  3.936604  0
C  C58  1  0.95601872  0.86006404  0.29438197  1  0  0.139404  0  3.722381  0  0  0.109254  0  3.975924  0  0  0.115949  0  3.994529  0  0  0.052624  0.104952  0  3.963304  0
C  C59  1  0.04398775  0.13993927  0.70561878  1  0  0.139394  0  3.722164  0  0  0.109191  0  3.975685  0  0  0.115892  0  3.99428  0  0  0.052536  0.10489  0  3.963066  0
C  C60  1  0.85408952  0.85096042  0.37999887  1  0  -0.164657  0  3.726485  0  0  -0.18367  0  3.976573  0  0  -0.191718  0  3.998925  0  0  -0.086494  -0.178405  0  3.961407  0
C  C61  1  0.14591370  0.14903937  0.62000049  1  0  -0.164999  0  3.726399  0  0  -0.18364  0  3.976322  0  0  -0.191688  0  3.998672  0  0  -0.086485  -0.178372  0  3.961153  0
N  N62  1  0.20831268  0.69079868  0.91491873  1  0  0.269893  0  3.718915  0  0  0.329582  0  3.979228  0  0  0.327558  0  4.000777  0  0  -0.114933  0.33008  0  3.964653  0
N  N63  1  0.79168076  0.30920333  0.08508019  1  0  0.270157  0  3.718924  0  0  0.329804  0  3.979233  0  0  0.327782  0  4.000776  0  0  -0.114748  0.330301  0  3.964657  0
N  N64  1  0.55083008  0.95044224  0.70583575  1  0  -0.317099  0  3.256535  0  0  -0.239447  0  3.525206  0  0  -0.260491  0  3.543979  0  0  -0.323983  -0.22517  0  3.512215  0
N  N65  1  0.44917393  0.04955407  0.29416443  1  0  -0.317036  0  3.256495  0  0  -0.239385  0  3.525151  0  0  -0.26043  0  3.543935  0  0  -0.323975  -0.225106  0  3.512151  0
N  N66  1  0.01658108  0.98914163  0.25616503  1  0  -0.296959  0  3.155316  0  0  -0.233968  0  3.405078  0  0  -0.249368  0  3.421714  0  0  -0.298765  -0.223637  0  3.393826  0
N  N67  1  0.98342061  0.01085930  0.74383572  1  0  -0.296917  0  3.155151  0  0  -0.233934  0  3.404921  0  0  -0.249332  0  3.421552  0  0  -0.298721  -0.223603  0  3.393671  0
O  O68  1  0.29063345  0.73888552  0.83528179  1  0  -0.569347  0  1.723016  0  0  -0.535883  0  1.961979  0  0  -0.559934  0  1.960161  0  0  -0.263776  -0.518787  0  1.962904  0
O  O69  1  0.70935610  0.26112227  0.16471779  1  0  -0.569478  0  1.723001  0  0  -0.535966  0  1.96195  0  0  -0.560016  0  1.96013  0  0  -0.263832  -0.518869  0  1.962875  0
O  O70  1  0.75373456  0.97082601  0.04044598  1  0  -0.67137  0  2.067074  0  0  -0.589316  0  2.306434  0  0  -0.621895  0  2.297556  0  0  -0.324302  -0.566409  0  2.31174  0
O  O71  1  0.24625466  0.02917241  0.95956410  1  0  -0.671456  0  2.066901  0  0  -0.589413  0  2.30625  0  0  -0.621989  0  2.297361  0  0  -0.324288  -0.5665  0  2.311553  0
O  O72  1  0.73232278  0.80220029  0.16274689  1  0  -0.613266  0  1.897881  0  0  -0.568824  0  2.124235  0  0  -0.593454  0  2.115751  0  0  -0.321482  -0.551392  0  2.129375  0
O  O73  1  0.26767091  0.19778891  0.83725615  1  0  -0.613353  0  1.897755  0  0  -0.568928  0  2.124148  0  0  -0.593554  0  2.115652  0  0  -0.321605  -0.551496  0  2.129294  0
O  O74  1  0.23073266  0.33140215  0.17375214  1  0  -0.642306  0  1.912512  0  0  -0.599835  0  2.139848  0  0  -0.623764  0  2.130553  0  0  -0.339304  -0.582667  0  2.145433  0
O  O75  1  0.76928357  0.66860478  0.82624603  1  0  -0.642335  0  1.912508  0  0  -0.599835  0  2.139895  0  0  -0.623759  0  2.130565  0  0  -0.33929  -0.582673  0  2.145486  0
O  O76  1  0.41665202  0.27847485  0.04302159  1  0  -0.634716  0  1.996536  0  0  -0.568753  0  2.238626  0  0  -0.599761  0  2.231638  0  0  -0.331505  -0.546932  0  2.242566  0
O  O77  1  0.58334333  0.72152372  0.95697081  1  0  -0.634806  0  1.996649  0  0  -0.568791  0  2.238768  0  0  -0.599805  0  2.231762  0  0  -0.331525  -0.546969  0  2.24271  0
O  O78  1  0.69071458  0.06666027  0.87372579  1  0  -0.82422  0  1.878104  0  0  -0.761263  0  2.078476  0  0  -0.784095  0  2.044397  0  0  -0.599875  -0.745061  0  2.102022  0
O  O79  1  0.30928527  0.93333715  0.12627670  1  0  -0.824232  0  1.878061  0  0  -0.761294  0  2.078437  0  0  -0.784116  0  2.044337  0  0  -0.599913  -0.745095  0  2.101984  0
