# generated using pymatgen
data_SrH11C11NO6
_symmetry_space_group_name_H-M   'P 1'
_cell_length_a   9.83686363
_cell_length_b   10.57800254
_cell_length_c   10.57891530
_cell_angle_alpha   119.99892701
_cell_angle_beta   90.00122213
_cell_angle_gamma   90.00205469
_symmetry_Int_Tables_number   1
_chemical_formula_structural   SrH11C11NO6
_chemical_formula_sum   'Sr3 H33 C33 N3 O18'
_cell_volume   953.31578622
_cell_formula_units_Z   3
loop_
 _symmetry_equiv_pos_site_id
 _symmetry_equiv_pos_as_xyz
  1  'x, y, z'
loop_
 _atom_site_type_symbol
 _atom_site_label
 _atom_site_symmetry_multiplicity
 _atom_site_fract_x
 _atom_site_fract_y
 _atom_site_fract_z
 _atom_site_occupancy
 _atom_site_hle17_bader_spin_density
 _atom_site_hle17_ddec_charge
 _atom_site_hle17_ddec_spin_density
 _atom_site_hle17_ddec_sum_bond_order
 _atom_site_hle17_magmom
 _atom_site_hse06_10hf_bader_spin_density
 _atom_site_hse06_10hf_ddec_charge
 _atom_site_hse06_10hf_ddec_spin_density
 _atom_site_hse06_10hf_ddec_sum_bond_order
 _atom_site_hse06_10hf_magmom
 _atom_site_hse06_bader_spin_density
 _atom_site_hse06_ddec_charge
 _atom_site_hse06_ddec_spin_density
 _atom_site_hse06_ddec_sum_bond_order
 _atom_site_hse06_magmom
 _atom_site_pbe_bader_spin_density
 _atom_site_pbe_cm5_charge
 _atom_site_pbe_ddec_charge
 _atom_site_pbe_ddec_spin_density
 _atom_site_pbe_ddec_sum_bond_order
 _atom_site_pbe_magmom
Sr  Sr0  1  0.33852205  0.90461479  0.03184476  1  0  1.610018  0  1.15053  0  0  1.464858  0  1.524635  0  0  1.505356  0  1.478434  0  0  0.994962  1.434284  0  1.558708  0
Sr  Sr1  1  0.00521124  0.96817595  0.87271918  1  0  1.609915  0  1.151959  0  0  1.46515  0  1.525505  0  0  1.505949  0  1.478751  0  0  0.99539  1.434596  0  1.559574  0
Sr  Sr2  1  0.67186912  0.12725864  0.09536135  1  0  1.610049  0  1.150985  0  0  1.465333  0  1.524457  0  0  1.506054  0  1.477838  0  0  0.995269  1.434783  0  1.558496  0
H  H3  1  0.73332261  0.15580593  0.48696267  1  0  0.381121  0  0.911517  0  0  0.356041  0  0.982349  0  0  0.368239  0  0.969347  0  0  0.299337  0.347482  0  0.991284  0
H  H4  1  0.39979947  0.51295908  0.66883664  1  0  0.381304  0  0.911734  0  0  0.355479  0  0.983793  0  0  0.367725  0  0.970763  0  0  0.299492  0.34688  0  0.992773  0
H  H5  1  0.06666944  0.33127046  0.84433364  1  0  0.381308  0  0.911764  0  0  0.355991  0  0.982963  0  0  0.368251  0  0.969878  0  0  0.299354  0.34739  0  0.991955  0
H  H6  1  0.62873169  0.10455746  0.77975341  1  0  0.125841  0  1.005062  0  0  0.131064  0  1.072673  0  0  0.135842  0  1.069441  0  0  0.114312  0.127362  0  1.075675  0
H  H7  1  0.29528705  0.22024541  0.32479800  1  0  0.12597  0  1.004865  0  0  0.131619  0  1.072207  0  0  0.136427  0  1.068919  0  0  0.114228  0.127887  0  1.075251  0
H  H8  1  0.96221617  0.67542378  0.89563287  1  0  0.125948  0  1.00517  0  0  0.131756  0  1.072317  0  0  0.136558  0  1.069028  0  0  0.114299  0.127997  0  1.075387  0
H  H9  1  0.22049310  0.00971401  0.60878944  1  0  0.094824  0  0.973929  0  0  0.102001  0  1.043037  0  0  0.105744  0  1.04053  0  0  0.103052  0.099218  0  1.04507  0
H  H10  1  0.88697371  0.39109288  0.40090400  1  0  0.094563  0  0.973497  0  0  0.101445  0  1.042896  0  0  0.105272  0  1.040326  0  0  0.10267  0.098689  0  1.044873  0
H  H11  1  0.55394948  0.59902031  0.99014051  1  0  0.095718  0  0.973678  0  0  0.102371  0  1.043218  0  0  0.106195  0  1.040625  0  0  0.103363  0.099619  0  1.045204  0
H  H12  1  0.29552026  0.03925376  0.39911273  1  0  0.09487  0  0.952966  0  0  0.105164  0  1.016103  0  0  0.108386  0  1.013612  0  0  0.111324  0.102535  0  1.018395  0
H  H13  1  0.96202780  0.60084709  0.64012493  1  0  0.094953  0  0.952883  0  0  0.105394  0  1.015909  0  0  0.108592  0  1.013405  0  0  0.111291  0.102783  0  1.018192  0
H  H14  1  0.62896132  0.35992060  0.96067861  1  0  0.094894  0  0.952877  0  0  0.104931  0  1.016265  0  0  0.108219  0  1.013701  0  0  0.111141  0.102272  0  1.018558  0
H  H15  1  0.30544332  0.54615099  0.97997694  1  0  0.044273  0  0.93283  0  0  0.051382  0  1.004015  0  0  0.053548  0  0.998506  0  0  0.127817  0.049791  0  1.007821  0
H  H16  1  0.97210840  0.02006733  0.56611294  1  0  0.0442  0  0.932787  0  0  0.051551  0  1.003656  0  0  0.053712  0  0.998152  0  0  0.127772  0.04996  0  1.00746  0
H  H17  1  0.63879543  0.43386403  0.45393937  1  0  0.044744  0  0.932542  0  0  0.051476  0  1.004065  0  0  0.053613  0  0.998595  0  0  0.127701  0.049889  0  1.007864  0
H  H18  1  0.31499632  0.34491862  0.97781170  1  0  0.105263  0  0.934096  0  0  0.127287  0  0.993622  0  0  0.127524  0  0.994016  0  0  0.113815  0.126709  0  0.993981  0
H  H19  1  0.98155937  0.02216156  0.36704316  1  0  0.105434  0  0.93361  0  0  0.12715  0  0.993637  0  0  0.12741  0  0.99398  0  0  0.113896  0.126544  0  0.994049  0
H  H20  1  0.64839305  0.63291239  0.65506456  1  0  0.105573  0  0.933642  0  0  0.127609  0  0.993078  0  0  0.127873  0  0.993424  0  0  0.114107  0.127027  0  0.99345  0
H  H21  1  0.19701561  0.33793188  0.10227995  1  0  0.103264  0  0.932881  0  0  0.122614  0  0.996459  0  0  0.123096  0  0.996836  0  0  0.110278  0.122161  0  0.996278  0
H  H22  1  0.86356864  0.89764971  0.23561384  1  0  0.103299  0  0.933373  0  0  0.122584  0  0.997061  0  0  0.123041  0  0.997449  0  0  0.110259  0.12214  0  0.996886  0
H  H23  1  0.53043734  0.76439814  0.66209880  1  0  0.103992  0  0.933055  0  0  0.123013  0  0.996991  0  0  0.123486  0  0.99737  0  0  0.110508  0.122583  0  0.996787  0
H  H24  1  0.37528141  0.34956889  0.13956435  1  0  0.108437  0  0.942093  0  0  0.126799  0  1.008056  0  0  0.127917  0  1.007818  0  0  0.114718  0.125947  0  1.008239  0
H  H25  1  0.04185144  0.86042697  0.20994083  1  0  0.108454  0  0.942604  0  0  0.126845  0  1.008504  0  0  0.127933  0  1.008293  0  0  0.114692  0.126022  0  1.008683  0
H  H26  1  0.70871302  0.79001194  0.65041365  1  0  0.109061  0  0.942041  0  0  0.127174  0  1.008238  0  0  0.128308  0  1.007985  0  0  0.114805  0.126329  0  1.00843  0
H  H27  1  0.35430840  0.58466882  0.37630366  1  0  0.099467  0  0.94698  0  0  0.12079  0  1.006883  0  0  0.120611  0  1.008178  0  0  0.106322  0.120831  0  1.00621  0
H  H28  1  0.02097639  0.62369001  0.20842102  1  0  0.09953  0  0.947067  0  0  0.120697  0  1.007255  0  0  0.120561  0  1.008502  0  0  0.106226  0.120725  0  1.006588  0
H  H29  1  0.68756642  0.79159584  0.41528513  1  0  0.099322  0  0.946572  0  0  0.120463  0  1.00684  0  0  0.120338  0  1.00806  0  0  0.106268  0.12048  0  1.006181  0
H  H30  1  0.17527542  0.58005126  0.35701040  1  0  0.095729  0  0.959817  0  0  0.114547  0  1.028159  0  0  0.113538  0  1.031084  0  0  0.103644  0.115123  0  1.026325  0
H  H31  1  0.84193575  0.64294955  0.22309100  1  0  0.095728  0  0.96054  0  0  0.114522  0  1.028963  0  0  0.113483  0  1.031965  0  0  0.103769  0.115096  0  1.027124  0
H  H32  1  0.50852843  0.77686351  0.41985363  1  0  0.095106  0  0.960433  0  0  0.113911  0  1.029007  0  0  0.112881  0  1.031964  0  0  0.103548  0.114489  0  1.027181  0
H  H33  1  0.26859186  0.73378981  0.37430093  1  0  0.110224  0  0.952933  0  0  0.127635  0  1.018365  0  0  0.128964  0  1.017579  0  0  0.109807  0.126405  0  1.019328  0
H  H34  1  0.93528483  0.62576263  0.35958190  1  0  0.110227  0  0.952856  0  0  0.1277  0  1.018259  0  0  0.128974  0  1.017545  0  0  0.109931  0.126505  0  1.019185  0
H  H35  1  0.60190237  0.64040946  0.26618237  1  0  0.110004  0  0.952466  0  0  0.127489  0  1.017944  0  0  0.128808  0  1.017176  0  0  0.109935  0.126256  0  1.018899  0
C  C36  1  0.50261453  0.09065880  0.47255602  1  0  -0.20604  0  3.744484  0  0  -0.189361  0  3.983774  0  0  -0.201241  0  4.003577  0  0  -0.030153  -0.181021  0  3.969852  0
C  C37  1  0.16905793  0.52731354  0.61814512  1  0  -0.206015  0  3.743176  0  0  -0.189677  0  3.983105  0  0  -0.201547  0  4.00287  0  0  -0.030148  -0.18135  0  3.969208  0
C  C38  1  0.83605867  0.38196940  0.90937855  1  0  -0.206707  0  3.744822  0  0  -0.189699  0  3.983795  0  0  -0.201646  0  4.003713  0  0  -0.030467  -0.181376  0  3.969861  0
C  C39  1  0.59723981  0.10967969  0.58202132  1  0  0.336546  0  3.801649  0  0  0.32551  0  4.058997  0  0  0.339599  0  4.073989  0  0  0.091979  0.315989  0  4.048665  0
C  C40  1  0.26369166  0.41787232  0.52772182  1  0  0.337381  0  3.800565  0  0  0.326027  0  4.058819  0  0  0.340113  0  4.073818  0  0  0.091987  0.31651  0  4.048469  0
C  C41  1  0.93068996  0.47251909  0.89050235  1  0  0.337755  0  3.799852  0  0  0.326155  0  4.058096  0  0  0.340257  0  4.073118  0  0  0.093131  0.316639  0  4.04774  0
C  C42  1  0.55434805  0.09132162  0.69803861  1  0  -0.206407  0  3.703916  0  0  -0.237282  0  3.957837  0  0  -0.243404  0  3.976251  0  0  -0.099175  -0.23366  0  3.946451  0
C  C43  1  0.22081649  0.30183224  0.39333024  1  0  -0.207156  0  3.704495  0  0  -0.238323  0  3.958506  0  0  -0.244518  0  3.976901  0  0  -0.099073  -0.23464  0  3.947115  0
C  C44  1  0.88783154  0.60692226  0.90885330  1  0  -0.206775  0  3.702415  0  0  -0.238124  0  3.956538  0  0  -0.24426  0  3.974895  0  0  -0.099172  -0.234455  0  3.94516  0
C  C45  1  0.41979748  0.05628525  0.70767508  1  0  -0.042392  0  3.788049  0  0  -0.022747  0  4.025997  0  0  -0.02539  0  4.046197  0  0  -0.016256  -0.020769  0  4.01263  0
C  C46  1  0.08626884  0.29215078  0.34865167  1  0  -0.041176  0  3.786772  0  0  -0.021723  0  4.025341  0  0  -0.024221  0  4.045351  0  0  -0.015876  -0.019838  0  4.012099  0
C  C47  1  0.75323909  0.65152913  0.94373571  1  0  -0.041632  0  3.787585  0  0  -0.022092  0  4.025826  0  0  -0.024664  0  4.045962  0  0  -0.016088  -0.02014  0  4.012478  0
C  C48  1  0.32521796  0.03723156  0.59955553  1  0  -0.117947  0  3.761785  0  0  -0.145782  0  4.022416  0  0  -0.149009  0  4.041265  0  0  -0.101591  -0.14332  0  4.009611  0
C  C49  1  0.99167943  0.40027056  0.43770201  1  0  -0.118026  0  3.760751  0  0  -0.145463  0  4.021472  0  0  -0.148808  0  4.040221  0  0  -0.10131  -0.142988  0  4.008724  0
C  C50  1  0.65867289  0.56237234  0.96268538  1  0  -0.119634  0  3.76219  0  0  -0.147047  0  4.023052  0  0  -0.150356  0  4.041832  0  0  -0.102363  -0.144612  0  4.010284  0
C  C51  1  0.36739809  0.05415740  0.48371545  1  0  -0.030331  0  3.753818  0  0  -0.057929  0  4.015028  0  0  -0.053741  0  4.031887  0  0  -0.077209  -0.060388  0  4.003252  0
C  C52  1  0.03384842  0.51615086  0.57044786  1  0  -0.030846  0  3.754742  0  0  -0.058523  0  4.016129  0  0  -0.054297  0  4.032987  0  0  -0.077362  -0.060999  0  4.004358  0
C  C53  1  0.70084923  0.42961853  0.94580184  1  0  -0.02965  0  3.753895  0  0  -0.057047  0  4.014782  0  0  -0.052901  0  4.031663  0  0  -0.07678  -0.059456  0  4.003032  0
C  C54  1  0.54782814  0.11103120  0.35060659  1  0  0.686437  0  3.885355  0  0  0.63318  0  4.179801  0  0  0.669414  0  4.169217  0  0  0.215762  0.60844  0  4.186205  0
C  C55  1  0.21426942  0.64931469  0.76045614  1  0  0.687255  0  3.883386  0  0  0.634302  0  4.177379  0  0  0.670544  0  4.166757  0  0  0.216568  0.609565  0  4.183784  0
C  C56  1  0.88120220  0.23958668  0.88891634  1  0  0.686716  0  3.883575  0  0  0.63395  0  4.176979  0  0  0.670183  0  4.166449  0  0  0.216378  0.609244  0  4.183348  0
C  C57  1  0.37797423  0.03613005  0.83284216  1  0  0.677614  0  3.907066  0  0  0.632056  0  4.193506  0  0  0.666087  0  4.183708  0  0  0.221843  0.608748  0  4.199324  0
C  C58  1  0.04456956  0.16707697  0.20322960  1  0  0.677833  0  3.907376  0  0  0.632106  0  4.194206  0  0  0.666084  0  4.184388  0  0  0.221427  0.608825  0  4.200059  0
C  C59  1  0.71132835  0.79681893  0.96382796  1  0  0.67768  0  3.907614  0  0  0.632307  0  4.193925  0  0  0.666279  0  4.184186  0  0  0.222028  0.609025  0  4.199725  0
C  C60  1  0.29354664  0.61738611  0.09908999  1  0  0.39756  0  3.835838  0  0  0.322464  0  4.131602  0  0  0.351254  0  4.130325  0  0  0.180181  0.303211  0  4.131549  0
C  C61  1  0.96022978  0.90095437  0.51826180  1  0  0.397716  0  3.835734  0  0  0.322656  0  4.131257  0  0  0.351451  0  4.129987  0  0  0.180698  0.303417  0  4.131187  0
C  C62  1  0.62685982  0.48170764  0.38268069  1  0  0.397093  0  3.837435  0  0  0.321734  0  4.133067  0  0  0.350511  0  4.131801  0  0  0.180727  0.302501  0  4.132998  0
C  C63  1  0.29370170  0.38491159  0.09341350  1  0  -0.16941  0  3.6448  0  0  -0.273917  0  3.901674  0  0  -0.270168  0  3.912121  0  0  -0.12384  -0.276107  0  3.89466  0
C  C64  1  0.96028117  0.90656551  0.29144254  1  0  -0.169704  0  3.644661  0  0  -0.274015  0  3.901463  0  0  -0.270259  0  3.912007  0  0  -0.12396  -0.276228  0  3.894424  0
C  C65  1  0.62709356  0.70853610  0.61510228  1  0  -0.171057  0  3.645041  0  0  -0.275613  0  3.901574  0  0  -0.271951  0  3.91203  0  0  -0.124524  -0.277799  0  3.894599  0
C  C66  1  0.26999093  0.61543871  0.32906890  1  0  -0.171624  0  3.638376  0  0  -0.269904  0  3.880658  0  0  -0.26594  0  3.891401  0  0  -0.133342  -0.272333  0  3.873682  0
C  C67  1  0.93665623  0.67091695  0.28640123  1  0  -0.171719  0  3.638437  0  0  -0.270157  0  3.881095  0  0  -0.26618  0  3.891846  0  0  -0.133541  -0.2726  0  3.874103  0
C  C68  1  0.60327855  0.71357797  0.38451292  1  0  -0.169564  0  3.63693  0  0  -0.268507  0  3.879096  0  0  -0.264593  0  3.889807  0  0  -0.133059  -0.270895  0  3.872114  0
N  N69  1  0.28622461  0.54357675  0.17140373  1  0  -0.092802  0  3.505764  0  0  0.010266  0  3.741825  0  0  -0.009964  0  3.766323  0  0  -0.282213  0.023597  0  3.724766  0
N  N70  1  0.95286563  0.82860440  0.37214568  1  0  -0.092146  0  3.504051  0  0  0.01098  0  3.740044  0  0  -0.009264  0  3.764526  0  0  -0.281996  0.024326  0  3.722979  0
N  N71  1  0.61954713  0.62783468  0.45644403  1  0  -0.093317  0  3.506215  0  0  0.011452  0  3.74039  0  0  -0.008694  0  3.764802  0  0  -0.282162  0.02473  0  3.72339  0
O  O72  1  0.46642666  0.09151808  0.24872599  1  0  -0.739643  0  2.048734  0  0  -0.673363  0  2.298614  0  0  -0.699487  0  2.285651  0  0  -0.401891  -0.65426  0  2.307777  0
O  O73  1  0.13290392  0.75126923  0.84273430  1  0  -0.740265  0  2.049715  0  0  -0.674118  0  2.299584  0  0  -0.700241  0  2.286554  0  0  -0.40235  -0.655015  0  2.308778  0
O  O74  1  0.79975312  0.15718189  0.90832766  1  0  -0.739644  0  2.047979  0  0  -0.673919  0  2.298119  0  0  -0.700004  0  2.285008  0  0  -0.402329  -0.654861  0  2.307309  0
O  O75  1  0.67265523  0.14912239  0.34964267  1  0  -0.686939  0  1.962587  0  0  -0.625974  0  2.189929  0  0  -0.651887  0  2.178748  0  0  -0.359242  -0.60808  0  2.197498  0
O  O76  1  0.33905153  0.65023588  0.79956841  1  0  -0.686897  0  1.961401  0  0  -0.625348  0  2.188217  0  0  -0.651299  0  2.177123  0  0  -0.359541  -0.607417  0  2.195746  0
O  O77  1  0.00602876  0.20052242  0.85085212  1  0  -0.686971  0  1.961952  0  0  -0.625806  0  2.188646  0  0  -0.651796  0  2.177565  0  0  -0.359613  -0.607879  0  2.196141  0
O  O78  1  0.46488163  0.06192781  0.93332667  1  0  -0.765134  0  1.990138  0  0  -0.698699  0  2.237106  0  0  -0.725232  0  2.225247  0  0  -0.409492  -0.679589  0  2.245164  0
O  O79  1  0.13154774  0.06668330  0.12853882  1  0  -0.765595  0  1.991604  0  0  -0.699036  0  2.238655  0  0  -0.725601  0  2.226896  0  0  -0.409135  -0.679896  0  2.246658  0
O  O80  1  0.79817019  0.87154462  0.93800055  1  0  -0.765704  0  1.990735  0  0  -0.699375  0  2.237747  0  0  -0.72594  0  2.225924  0  0  -0.409756  -0.680273  0  2.245785  0
O  O81  1  0.25873919  0.99056725  0.83444941  1  0  -0.731115  0  1.996363  0  0  -0.670005  0  2.237843  0  0  -0.696121  0  2.227722  0  0  -0.382914  -0.651241  0  2.244415  0
O  O82  1  0.92539852  0.16549519  0.15593421  1  0  -0.731277  0  1.996889  0  0  -0.669775  0  2.237972  0  0  -0.695961  0  2.227951  0  0  -0.382907  -0.650992  0  2.2445  0
O  O83  1  0.59208315  0.84395428  0.00940243  1  0  -0.731057  0  1.996584  0  0  -0.669661  0  2.237428  0  0  -0.695775  0  2.227415  0  0  -0.383048  -0.650889  0  2.243958  0
O  O84  1  0.72852514  0.14393637  0.57722992  1  0  -0.515728  0  2.083192  0  0  -0.46933  0  2.291631  0  0  -0.490523  0  2.283917  0  0  -0.349595  -0.454277  0  2.296321  0
O  O85  1  0.39499726  0.42271370  0.56671735  1  0  -0.516348  0  2.083269  0  0  -0.469371  0  2.292463  0  0  -0.4906  0  2.284709  0  0  -0.349921  -0.45429  0  2.297172  0
O  O86  1  0.06196476  0.43345268  0.85627777  1  0  -0.516428  0  2.083083  0  0  -0.469852  0  2.292108  0  0  -0.491103  0  2.284347  0  0  -0.350152  -0.454763  0  2.296826  0
O  O87  1  0.28721559  0.75357468  0.15610815  1  0  -0.59606  0  1.999518  0  0  -0.539779  0  2.248181  0  0  -0.563481  0  2.240378  0  0  -0.352405  -0.523257  0  2.252863  0
O  O88  1  0.95395625  0.84392835  0.59741836  1  0  -0.596901  0  2.000121  0  0  -0.540561  0  2.24855  0  0  -0.564312  0  2.240736  0  0  -0.352991  -0.524044  0  2.25323  0
O  O89  1  0.62049902  0.40253362  0.24650667  1  0  -0.596427  0  1.999804  0  0  -0.540081  0  2.248417  0  0  -0.563826  0  2.240636  0  0  -0.353067  -0.523557  0  2.253067  0
