# generated using pymatgen
data_ZnH10C21N(O5F)2
_symmetry_space_group_name_H-M   'P 1'
_cell_length_a   9.93084665
_cell_length_b   10.79693904
_cell_length_c   10.91960955
_cell_angle_alpha   98.85944169
_cell_angle_beta   90.64997231
_cell_angle_gamma   94.57875434
_symmetry_Int_Tables_number   1
_chemical_formula_structural   ZnH10C21N(O5F)2
_chemical_formula_sum   'Zn2 H20 C42 N2 O20 F4'
_cell_volume   1152.83725552
_cell_formula_units_Z   2
loop_
 _symmetry_equiv_pos_site_id
 _symmetry_equiv_pos_as_xyz
  1  'x, y, z'
loop_
 _atom_site_type_symbol
 _atom_site_label
 _atom_site_symmetry_multiplicity
 _atom_site_fract_x
 _atom_site_fract_y
 _atom_site_fract_z
 _atom_site_occupancy
 _atom_site_pbe_bader_charge
 _atom_site_pbe_bader_spin_density
 _atom_site_pbe_cm5_charge
 _atom_site_pbe_ddec_charge
 _atom_site_pbe_ddec_spin_density
 _atom_site_pbe_ddec_sum_bond_order
 _atom_site_pbe_magmom
Zn  Zn0  1  0.63858788  0.51445182  0.50344950  1  1.3028  0  0.680422  0.859485  0  2.276121  0
Zn  Zn1  1  0.34945377  0.52446930  0.50704286  1  1.296333  0  0.690341  0.844745  0  2.400117  0
H  H2  1  0.85410566  0.43478231  0.22820899  1  0.093435  0  0.107583  0.114058  0  0.988132  0
H  H3  1  0.12547989  0.76049567  0.38121112  1  0.09305  0  0.11137  0.13833  0  0.968009  0
H  H4  1  0.12790534  0.81669470  0.54403623  1  0.090559  0  0.112632  0.139389  0  0.967852  0
H  H5  1  0.94789438  0.63469588  0.15822228  1  0.138379  0  0.111454  0.138417  0  1.007969  0
H  H6  1  0.68136096  0.61144323  0.14067872  1  0.12883  0  0.104537  0.113505  0  1.03181  0
H  H7  1  0.04318895  0.57493433  0.80128968  1  0.17813  0  0.108809  0.129494  0  1.057967  0
H  H8  1  0.96773760  0.09979785  0.79555647  1  0.656762  0  0.338441  0.386206  0  0.867721  0
H  H9  1  0.94372735  0.98165396  0.32203940  1  0.639453  0  0.355244  0.395665  0  0.833235  0
H  H10  1  0.88734174  0.11449566  0.56144161  1  0.633061  0  0.341276  0.382411  0  0.863955  0
H  H11  1  0.30897385  0.11349003  0.21487590  1  0.653494  0  0.322813  0.37542  0  0.910462  0
H  H12  1  0.29671525  0.26512215  0.92218395  1  0.648658  0  0.300414  0.355705  0  0.986215  0
H  H13  1  0.05815539  0.80415032  0.79382473  1  0.113424  0  0.110864  0.11724  0  0.982059  0
H  H14  1  0.76638676  0.28893276  0.93646773  1  0.664327  0  0.340991  0.384954  0  0.858076  0
H  H15  1  0.42485741  0.93788611  0.69258867  1  0.083177  0  0.113821  0.12065  0  0.972116  0
H  H16  1  0.38080142  0.15658820  0.67262467  1  0.100227  0  0.10923  0.118723  0  1.002512  0
H  H17  1  0.67210913  0.13442298  0.25416474  1  0.09022  0  0.112081  0.090316  0  0.952701  0
H  H18  1  0.12493757  0.33571755  0.54412636  1  0.211925  0  0.138081  0.13219  0  0.999228  0
H  H19  1  0.00103949  0.25594712  0.22342708  1  0.074141  0  0.10277  0.107045  0  1.006655  0
H  H20  1  0.86985687  0.73914464  0.37872468  1  0.117949  0  0.102493  0.126919  0  1.022424  0
H  H21  1  0.87073196  0.79891559  0.54123267  1  0.116151  0  0.104664  0.134763  0  0.996937  0
C  C22  1  0.52281163  0.76109504  0.52104261  1  1.640224  0  0.219403  0.606235  0  4.186455  0
C  C23  1  0.95727341  0.62928719  0.82768714  1  0.005752  0  -0.091822  -0.124248  0  3.970359  0
C  C24  1  0.96518185  0.75759864  0.82292093  1  -0.053427  0  -0.078414  -0.069418  0  3.969751  0
C  C25  1  0.48441268  0.52514472  0.26930041  1  1.574889  0  0.215164  0.603697  0  4.145635  0
C  C26  1  0.85655427  0.82987900  0.85911905  1  0.015626  0  -0.021591  -0.145348  0  3.973147  0
C  C27  1  0.73990915  0.76594187  0.89820720  1  0.476561  0  0.118331  0.246816  0  3.97444  0
C  C28  1  0.72903681  0.63712013  0.90581227  1  0.100815  0  0.003511  -0.034526  0  3.934856  0
C  C29  1  0.56364158  0.95383179  0.41525956  1  0.025227  0  -0.016107  -0.048441  0  3.926353  0
C  C30  1  0.52510376  0.89947452  0.51872115  1  -0.098519  0  -0.002579  -0.02265  0  3.943987  0
C  C31  1  0.45934628  0.97690775  0.61080871  1  -0.007325  0  -0.07431  -0.09914  0  3.939922  0
C  C32  1  0.43303200  0.10017060  0.59927928  1  -0.010473  0  -0.0674  -0.066088  0  3.911796  0
C  C33  1  0.95779743  0.44315413  0.19662656  1  -0.056801  0  -0.089269  -0.059477  0  4.022356  0
C  C34  1  0.47197212  0.15323667  0.49430940  1  0.067597  0  -0.005993  -0.034395  0  3.961502  0
C  C35  1  0.53683203  0.07594492  0.40397602  1  -0.006554  0  -0.015658  -0.014627  0  3.975603  0
C  C36  1  0.58844411  0.06868020  0.27456544  1  0.514873  0  0.038237  0.112318  0  3.792072  0
C  C37  1  0.45877942  0.28717552  0.48437447  1  1.579915  0  0.215063  0.597212  0  4.187934  0
C  C38  1  0.62129589  0.92755815  0.28590690  1  0.573634  0  0.103837  0.114471  0  3.845081  0
C  C39  1  0.06859147  0.61395301  0.49472088  1  0.532748  0  0.153791  0.209399  0  3.863827  0
C  C40  1  0.06866020  0.41439085  0.52874453  1  0.465021  0  0.080809  0.066359  0  3.801357  0
C  C41  1  0.92704928  0.40414934  0.53037492  1  0.501573  0  0.131088  0.070893  0  3.873029  0
C  C42  1  0.92732066  0.60386260  0.49548607  1  0.576947  0  0.139644  0.188041  0  3.885352  0
C  C43  1  0.91805943  0.73611099  0.46881029  1  -0.051075  0  -0.152052  -0.245718  0  3.839443  0
C  C44  1  0.37321312  0.48180517  0.92710740  1  0.018966  0  -0.006191  -0.107646  0  3.911354  0
C  C45  1  0.07859576  0.74764646  0.46945194  1  -0.059162  0  -0.141736  -0.238204  0  3.828015  0
C  C46  1  0.50023710  0.53480932  0.73869584  1  1.612853  0  0.212896  0.59112  0  4.183901  0
C  C47  1  0.03937688  0.34317351  0.19275891  1  -0.076021  0  -0.092208  -0.117381  0  3.990179  0
C  C48  1  0.17025404  0.35269985  0.14646148  1  0.079079  0  -0.009127  -0.058344  0  3.97048  0
C  C49  1  0.22430200  0.46408250  0.10619092  1  0.046851  0  -0.00044  -0.036957  0  3.952851  0
C  C50  1  0.13955526  0.56246566  0.11444923  1  0.4429  0  0.104255  0.25085  0  4.01628  0
C  C51  1  0.00828835  0.55452679  0.15742928  1  0.0002  0  -0.096431  -0.199521  0  3.989568  0
C  C52  1  0.86845367  0.96931445  0.86392503  1  1.499404  0  0.234179  0.598979  0  4.09621  0
C  C53  1  0.76966432  0.90479074  0.26867730  1  1.540939  0  0.240766  0.536722  0  4.093694  0
C  C54  1  0.85689435  0.28368840  0.55731788  1  1.58276  0  0.236648  0.548651  0  4.133751  0
C  C55  1  0.49142285  0.53138053  0.87547204  1  -0.02459  0  0.006276  -0.05282  0  3.867502  0
C  C56  1  0.25579632  0.24552476  0.13710654  1  1.496117  0  0.246886  0.602099  0  4.060599  0
C  C57  1  0.26109749  0.41060499  0.84325185  1  1.542104  0  0.234998  0.587898  0  4.095955  0
C  C58  1  0.84206955  0.42881595  0.86925782  1  1.506546  0  0.237481  0.585862  0  4.080312  0
C  C59  1  0.60210684  0.58095952  0.95363825  1  0.002152  0  0.000411  0.072822  0  3.985864  0
C  C60  1  0.59483543  0.57667549  0.07984786  1  0.026833  0  -0.07356  -0.108632  0  3.945318  0
C  C61  1  0.47780359  0.53055445  0.13270070  1  0.051509  0  -0.01011  -0.058233  0  3.907576  0
C  C62  1  0.36258459  0.48758726  0.05641956  1  -0.003695  0  0.004543  0.044118  0  3.943981  0
C  C63  1  0.84062440  0.56812942  0.86982409  1  -0.024907  0  0.001828  -0.035255  0  3.901495  0
N  N64  1  0.14267598  0.52060303  0.50994280  1  -1.20235  0  -0.285328  -0.176472  0  3.452686  0
N  N65  1  0.85150199  0.50094862  0.51190321  1  -1.173746  0  -0.267449  -0.210922  0  3.393205  0
O  O66  1  0.62885605  0.71177203  0.54789208  1  -1.165925  0  -0.308529  -0.542936  0  2.28878  0
O  O67  1  0.95658198  0.00722182  0.77880101  1  -1.156126  0  -0.340806  -0.500535  0  2.207076  0
O  O68  1  0.81387496  0.82080411  0.19704417  1  -1.124927  0  -0.258105  -0.447773  0  2.185359  0
O  O69  1  0.84956050  0.99512864  0.34251795  1  -1.142819  0  -0.326666  -0.483347  0  2.287305  0
O  O70  1  0.73998056  0.26994517  0.58683011  1  -1.105856  0  -0.250066  -0.428069  0  2.235209  0
O  O71  1  0.94163215  0.18972821  0.54483296  1  -1.121913  0  -0.334065  -0.478307  0  2.264604  0
O  O72  1  0.33599958  0.22059930  0.05289206  1  -1.126355  0  -0.2727  -0.479647  0  2.17928  0
O  O73  1  0.23994256  0.17512740  0.22820219  1  -1.148  0  -0.328535  -0.467587  0  2.233092  0
O  O74  1  0.19151602  0.45607188  0.77209940  1  -1.116002  0  -0.262567  -0.443548  0  2.258776  0
O  O75  1  0.24577546  0.28616131  0.84845791  1  -1.143932  0  -0.343736  -0.493531  0  2.25512  0
O  O76  1  0.91785020  0.36341665  0.80506520  1  -1.128371  0  -0.279174  -0.492884  0  2.195028  0
O  O77  1  0.40616336  0.70732665  0.49131194  1  -1.154923  0  -0.307474  -0.529548  0  2.330347  0
O  O78  1  0.75526935  0.37975974  0.94717104  1  -1.160865  0  -0.317335  -0.462056  0  2.282053  0
O  O79  1  0.59993733  0.55186608  0.32345089  1  -1.165291  0  -0.317752  -0.551059  0  2.298088  0
O  O80  1  0.37504644  0.49202566  0.31972739  1  -1.163286  0  -0.311155  -0.548367  0  2.377909  0
O  O81  1  0.55462486  0.33931812  0.42916235  1  -1.155821  0  -0.316214  -0.549729  0  2.364872  0
O  O82  1  0.35874187  0.34082382  0.53344023  1  -1.165801  0  -0.304972  -0.533297  0  2.320686  0
O  O83  1  0.60302529  0.49135717  0.68366939  1  -1.151608  0  -0.306028  -0.539943  0  2.353018  0
O  O84  1  0.40538952  0.58254051  0.68918761  1  -1.16034  0  -0.310865  -0.530875  0  2.370345  0
O  O85  1  0.81106012  0.04451900  0.93654471  1  -1.124469  0  -0.295406  -0.49536  0  2.064056  0
F  F86  1  0.63050035  0.83029811  0.92833528  1  -0.621912  0  -0.085791  -0.120745  0  1.377578  0
F  F87  1  0.48655281  0.06744829  0.18334373  1  -0.620648  0  -0.113219  -0.168895  0  1.35366  0
F  F88  1  0.54526118  0.83771901  0.20377713  1  -0.619745  0  -0.110991  -0.146965  0  1.355447  0
F  F89  1  0.18808942  0.67318388  0.07969417  1  -0.631516  0  -0.100448  -0.140721  0  1.328992  0
