# generated using pymatgen
data_MnH9C7NO7
_symmetry_space_group_name_H-M   'P 1'
_cell_length_a   6.78463645
_cell_length_b   8.50750442
_cell_length_c   16.43987808
_cell_angle_alpha   89.99830495
_cell_angle_beta   89.99868086
_cell_angle_gamma   90.00161831
_symmetry_Int_Tables_number   1
_chemical_formula_structural   MnH9C7NO7
_chemical_formula_sum   'Mn4 H36 C28 N4 O28'
_cell_volume   948.91509724
_cell_formula_units_Z   4
loop_
 _symmetry_equiv_pos_site_id
 _symmetry_equiv_pos_as_xyz
  1  'x, y, z'
loop_
 _atom_site_type_symbol
 _atom_site_label
 _atom_site_symmetry_multiplicity
 _atom_site_fract_x
 _atom_site_fract_y
 _atom_site_fract_z
 _atom_site_occupancy
 _atom_site_hle17_ddec_charge
 _atom_site_hle17_ddec_spin_density
 _atom_site_hle17_ddec_sum_bond_order
 _atom_site_hle17_magmom
 _atom_site_hse06_10hf_ddec_charge
 _atom_site_hse06_10hf_ddec_spin_density
 _atom_site_hse06_10hf_ddec_sum_bond_order
 _atom_site_hse06_10hf_magmom
 _atom_site_hse06_ddec_charge
 _atom_site_hse06_ddec_spin_density
 _atom_site_hse06_ddec_sum_bond_order
 _atom_site_hse06_magmom
 _atom_site_pbe_cm5_charge
 _atom_site_pbe_ddec_charge
 _atom_site_pbe_ddec_spin_density
 _atom_site_pbe_ddec_sum_bond_order
 _atom_site_pbe_magmom
Mn  Mn0  1  0.93206577  0.94478262  0.40052049  1  1.221498  4.816431  1.675488  4.691  1.057176  4.745498  2.165063  4.555  1.113569  4.786248  2.096493  4.611  0.594472  1.013083  4.704699  2.216104  4.502
Mn  Mn1  1  0.06796088  0.44480624  0.59947942  1  1.221431  -4.809641  1.675494  -4.691  1.057137  -4.740453  2.164996  -4.556  1.113528  -4.777724  2.096488  -4.611  0.594452  1.013046  -4.70317  2.215957  -4.502
Mn  Mn2  1  0.06794362  0.94477624  0.90050884  1  1.22152  -4.8097  1.674969  -4.691  1.057193  -4.740446  2.164417  -4.556  1.113572  -4.777634  2.095926  -4.611  0.594497  1.013082  -4.703264  2.215407  -4.502
Mn  Mn3  1  0.93200491  0.44482438  0.09949594  1  1.221502  -4.810008  1.674957  -4.691  1.057173  -4.740683  2.16437  -4.556  1.113558  -4.777908  2.095878  -4.611  0.594446  1.013039  -4.703377  2.215393  -4.502
H  H4  1  0.66059155  0.88090846  0.53939921  1  0.431502  -0.000204  0.866799  0.001  0.39775  0.000209  0.934357  0.001  0.408488  7.9e-05  0.918846  0.001  0.299243  0.390034  0.000293  0.945539  0.001
H  H5  1  0.33942695  0.38088500  0.46060290  1  0.43134  0.000196  0.86705  -0.001  0.397766  -0.000235  0.934326  -0.001  0.408505  -9.6e-05  0.918815  -0.001  0.299278  0.390051  -0.000332  0.945508  -0.001
H  H6  1  0.33941216  0.88093790  0.03940494  1  0.431517  8.2e-05  0.866818  -0.001  0.397846  -0.000503  0.934257  -0.001  0.40858  -0.000272  0.918751  -0.001  0.299275  0.390133  -0.000771  0.945432  -0.001
H  H7  1  0.66054591  0.38092727  0.96058196  1  0.431496  7.3e-05  0.86685  -0.001  0.397858  -0.000528  0.934239  -0.001  0.40859  -0.000288  0.918737  -0.001  0.299303  0.390146  -0.000807  0.945414  -0.001
H  H8  1  0.88428736  0.88754656  0.57135637  1  0.434695  -0.000101  0.864147  0.0  0.402511  0.000396  0.929025  0.001  0.413184  0.000256  0.913589  0.001  0.304847  0.394713  0.000497  0.940409  0.001
H  H9  1  0.11573875  0.38753399  0.42863226  1  0.43477  2.4e-05  0.864034  -0.001  0.402564  -0.0006  0.928939  -0.001  0.413236  -0.000388  0.913507  -0.001  0.304919  0.39477  -0.000778  0.940315  -0.001
H  H10  1  0.11572365  0.88757565  0.07136604  1  0.434736  0.000236  0.864177  0.0  0.402504  -0.00027  0.92911  -0.001  0.41318  -0.000108  0.913672  -0.001  0.304858  0.394718  -0.000464  0.940475  -0.001
H  H11  1  0.88422729  0.38757895  0.92862319  1  0.434801  0.000157  0.86408  0.0  0.402591  -0.000475  0.928984  -0.001  0.413255  -0.000241  0.913563  -0.001  0.304837  0.394814  -0.000745  0.940336  -0.001
H  H12  1  0.52960970  0.72886130  0.41265249  1  0.08515  1.4e-05  0.932055  0.0  0.09273  0.000394  0.995892  0.0  0.096332  0.000272  0.992277  0.0  0.120335  0.089912  0.00056  0.998942  0.001
H  H13  1  0.47043733  0.22896758  0.58736898  1  0.085176  -3.8e-05  0.932951  0.0  0.092567  -0.000414  0.996793  0.0  0.096203  -0.000288  0.993156  0.0  0.120431  0.089755  -0.000582  0.999836  -0.001
H  H14  1  0.47046804  0.72898038  0.91262911  1  0.08525  0.0  0.93245  0.0  0.092509  -0.000505  0.996462  -0.001  0.096144  -0.000311  0.99283  0.0  0.120398  0.089697  -0.000759  0.999492  -0.001
H  H15  1  0.52953919  0.22892138  0.08737837  1  0.085162  2e-05  0.932651  0.0  0.092506  -0.000481  0.996592  0.0  0.096142  -0.000292  0.992955  0.0  0.120428  0.089697  -0.000738  0.999616  -0.001
H  H16  1  0.14526881  0.70178055  0.46514519  1  0.414991  0.000955  0.895157  0.001  0.383632  0.001698  0.960239  0.002  0.395185  0.001433  0.943532  0.002  0.294299  0.375401  0.001968  0.972139  0.002
H  H17  1  0.85475957  0.20178683  0.53484507  1  0.415151  -0.000958  0.894908  -0.001  0.38368  -0.001702  0.960173  -0.002  0.395241  -0.001436  0.943453  -0.002  0.294338  0.375448  -0.001973  0.972074  -0.002
H  H18  1  0.85474461  0.70180368  0.96515221  1  0.415153  0.000274  0.894901  -0.001  0.383749  -0.000529  0.960082  -0.002  0.395301  -0.000202  0.943375  -0.002  0.294381  0.375513  -0.000887  0.971987  -0.003
H  H19  1  0.14522629  0.20179660  0.03485082  1  0.414915  0.000274  0.895209  -0.001  0.383413  -0.000529  0.960538  -0.002  0.394968  -0.0002  0.943829  -0.002  0.294195  0.375173  -0.000888  0.972452  -0.003
H  H20  1  0.04042847  0.63043990  0.38596559  1  0.415346  0.000314  0.895884  0.001  0.381962  0.000919  0.964531  0.002  0.393173  0.000674  0.948319  0.002  0.292502  0.374002  0.001105  0.976145  0.002
H  H21  1  0.95959591  0.13043816  0.61403123  1  0.415465  -0.000246  0.895705  -0.001  0.382037  -0.000904  0.964453  -0.002  0.393256  -0.000632  0.948228  -0.002  0.292522  0.374075  -0.001127  0.976069  -0.002
H  H22  1  0.95957358  0.63045718  0.88596737  1  0.415539  -0.000158  0.895616  -0.001  0.382112  -0.000776  0.964333  -0.002  0.393325  -0.000503  0.948117  -0.002  0.292557  0.374165  -0.00101  0.975929  -0.002
H  H23  1  0.04039775  0.13043499  0.11403250  1  0.415477  -0.000223  0.895683  -0.001  0.381941  -0.000787  0.964575  -0.002  0.393153  -0.000542  0.948359  -0.002  0.29249  0.373989  -0.000984  0.976177  -0.002
H  H24  1  0.31658733  0.57976157  0.31462412  1  0.112424  0.000282  0.962662  0.0  0.117789  0.000275  1.028057  0.0  0.122429  0.000234  1.024581  0.0  0.11042  0.114529  0.000325  1.030462  0.0
H  H25  1  0.68342790  0.07980946  0.68537045  1  0.112337  -7.4e-05  0.962988  0.0  0.117817  -8.8e-05  1.02821  0.0  0.122436  6e-06  1.024782  0.0  0.110462  0.114558  -0.000205  1.030623  0.0
H  H26  1  0.68343607  0.57980669  0.81462122  1  0.112414  -4.7e-05  0.962723  0.0  0.117858  -8.8e-05  1.028025  0.0  0.122479  2.2e-05  1.024594  0.0  0.110509  0.114593  -0.000225  1.030437  0.0
H  H27  1  0.31656294  0.07981370  0.18540376  1  0.11242  -0.000255  0.962845  0.0  0.11785  -0.00027  1.028145  0.0  0.122466  -0.000215  1.024722  0.0  0.110567  0.114595  -0.000341  1.030549  0.0
H  H28  1  0.28076007  0.98048593  0.48893029  1  0.431315  0.000177  0.869844  0.001  0.398073  0.000857  0.936592  0.002  0.409097  0.000583  0.920737  0.002  0.29569  0.390533  0.001109  0.947422  0.002
H  H29  1  0.71925458  0.48049168  0.51106785  1  0.431288  -0.000193  0.869793  -0.001  0.398021  -0.000891  0.936588  -0.002  0.409045  -0.000604  0.920735  -0.002  0.295651  0.390474  -0.001164  0.947433  -0.002
H  H30  1  0.71925893  0.98050718  0.98892523  1  0.431122  -0.000128  0.870044  -0.001  0.397957  -0.000806  0.936649  -0.002  0.408976  -0.000528  0.920802  -0.002  0.295634  0.390426  -0.001127  0.947463  -0.002
H  H31  1  0.28073509  0.48050687  0.01106015  1  0.431119  -0.000143  0.870031  -0.001  0.397902  -0.000838  0.936727  -0.002  0.408928  -0.000548  0.920873  -0.002  0.295599  0.390367  -0.001178  0.947546  -0.002
H  H32  1  0.19791185  0.15574782  0.46877324  1  0.420578  0.000734  0.88373  0.001  0.389624  0.001394  0.947854  0.002  0.400304  0.001154  0.932371  0.002  0.294887  0.38194  0.001676  0.958937  0.002
H  H33  1  0.80210607  0.65579022  0.53122867  1  0.420301  -0.000737  0.884071  -0.001  0.38936  -0.0014  0.948235  -0.002  0.400048  -0.001159  0.93274  -0.002  0.294802  0.381659  -0.001687  0.959347  -0.002
H  H34  1  0.80208208  0.15577800  0.96875887  1  0.420607  0.000466  0.883619  -0.001  0.389664  -0.000129  0.947774  -0.002  0.40034  0.000128  0.932295  -0.002  0.294896  0.38197  -0.000511  0.958875  -0.002
H  H35  1  0.19788720  0.65577297  0.03122540  1  0.420474  0.000466  0.883801  -0.001  0.389582  -0.000129  0.947882  -0.002  0.400261  0.000128  0.932401  -0.002  0.294886  0.381888  -0.00051  0.958983  -0.002
H  H36  1  0.38325865  0.60111594  0.16620952  1  0.117131  0.00044  0.950025  0.0  0.12628  0.000565  1.010632  0.0  0.130216  0.000581  1.007503  0.0  0.112951  0.122986  0.000513  1.013796  0.0
H  H37  1  0.61673817  0.10106336  0.83379080  1  0.117377  0.000633  0.949709  0.0  0.126431  0.000496  1.010426  0.0  0.130371  0.000552  1.007292  0.0  0.113024  0.123132  0.000419  1.01359  0.0
H  H38  1  0.61672368  0.60104789  0.66621151  1  0.117237  0.000635  0.949901  0.0  0.126441  0.000547  1.010464  0.0  0.130382  0.000586  1.007323  0.0  0.112971  0.123136  0.000495  1.013638  0.0
H  H39  1  0.38326577  0.10107028  0.33380341  1  0.117211  -0.000446  0.949905  0.0  0.126414  -0.000616  1.010468  0.0  0.130357  -0.000616  1.007323  0.0  0.11299  0.123109  -0.00059  1.013634  0.0
C  C40  1  0.55759835  0.73297867  0.34738846  1  0.153703  0.004345  3.665036  0.004  0.118825  0.006242  3.928359  0.006  0.126557  0.005461  3.942901  0.005  0.059689  0.114125  0.007258  3.918137  0.006
C  C41  1  0.44246651  0.23305003  0.65260314  1  0.153368  -0.00428  3.666223  -0.004  0.118765  -0.006367  3.929444  -0.006  0.126461  -0.005454  3.943968  -0.005  0.05931  0.114067  -0.007774  3.919226  -0.007
C  C42  1  0.44246843  0.73304892  0.84737265  1  0.153327  -0.004282  3.665801  -0.004  0.118859  -0.006347  3.928981  -0.006  0.126559  -0.00544  3.943502  -0.005  0.059437  0.114169  -0.007723  3.918745  -0.007
C  C43  1  0.55754042  0.23300917  0.15262261  1  0.15347  -0.00445  3.666093  -0.005  0.11899  -0.006447  3.929156  -0.006  0.126682  -0.005576  3.943678  -0.005  0.059536  0.114296  -0.007653  3.918931  -0.007
C  C44  1  0.43872396  0.65072679  0.29289716  1  -0.072364  -0.002199  3.684352  -0.002  -0.089163  -0.00133  3.94397  -0.001  -0.093212  -0.002015  3.961127  -0.001  -0.069823  -0.086045  -0.000842  3.931704  -0.001
C  C45  1  0.56130704  0.15074014  0.70707441  1  -0.072237  0.00234  3.684517  0.002  -0.089152  0.001429  3.944073  0.001  -0.093204  0.002192  3.961222  0.001  -0.070004  -0.086036  0.000704  3.931798  0.0
C  C46  1  0.56130316  0.65073273  0.79289846  1  -0.071955  0.002329  3.684379  0.002  -0.088861  0.001447  3.943927  0.001  -0.092912  0.002182  3.961074  0.001  -0.069802  -0.085742  0.000803  3.931653  0.0
C  C47  1  0.43867772  0.15074125  0.20710292  1  -0.07194  0.002224  3.684467  0.002  -0.088876  0.001261  3.944033  0.001  -0.092922  0.001989  3.961175  0.001  -0.069889  -0.085765  0.000676  3.931771  0.0
C  C48  1  0.47615958  0.66274603  0.21009458  1  -0.024345  0.003911  3.659648  0.003  -0.053144  0.005015  3.910282  0.004  -0.05039  0.00468  3.926923  0.004  -0.061154  -0.055754  0.005738  3.899431  0.004
C  C49  1  0.52384973  0.16271854  0.78988351  1  -0.024749  -0.003677  3.658664  -0.003  -0.053481  -0.005168  3.909447  -0.004  -0.050722  -0.004492  3.926083  -0.004  -0.061159  -0.056078  -0.006474  3.898569  -0.005
C  C50  1  0.52384900  0.66271468  0.71010110  1  -0.024884  -0.003598  3.659517  -0.003  -0.053766  -0.004971  3.910351  -0.004  -0.051009  -0.004369  3.926985  -0.004  -0.061291  -0.056356  -0.006152  3.899488  -0.005
C  C51  1  0.47613378  0.16272756  0.28989949  1  -0.024807  -0.004001  3.659162  -0.003  -0.0537  -0.005207  3.909978  -0.004  -0.050951  -0.004784  3.926615  -0.004  -0.061313  -0.056291  -0.006092  3.899113  -0.005
C  C52  1  0.63439593  0.75536915  0.18367078  1  -0.099208  -0.002503  3.714874  -0.002  -0.08488  -0.002109  3.961426  -0.002  -0.092493  -0.002473  3.981404  -0.002  0.002995  -0.079945  -0.001878  3.948346  -0.002
C  C53  1  0.36557833  0.25535068  0.81633022  1  -0.098877  0.00216  3.713291  0.002  -0.084574  0.000649  3.959905  0.001  -0.092191  0.001512  3.979887  0.002  0.00319  -0.079645  -6.1e-05  3.946803  0.001
C  C54  1  0.36558497  0.75532952  0.68366420  1  -0.098879  0.002174  3.71421  0.002  -0.084637  0.000743  3.960801  0.001  -0.092246  0.001565  3.980785  0.002  0.003186  -0.079727  0.000136  3.947721  0.001
C  C55  1  0.63442762  0.25534212  0.31633436  1  -0.099104  0.002534  3.714199  0.002  -0.084776  0.001965  3.960821  0.002  -0.092381  0.00239  3.980797  0.002  0.003183  -0.079854  0.001615  3.947737  0.002
C  C56  1  0.74866267  0.83300141  0.24211776  1  0.072018  0.003434  3.738127  0.003  0.065995  0.005058  3.981976  0.004  0.067279  0.004536  4.002351  0.004  0.113783  0.063854  0.005958  3.968338  0.005
C  C57  1  0.25132171  0.33302484  0.75788387  1  0.071801  -0.003375  3.737813  -0.004  0.065938  -0.005334  3.981592  -0.005  0.067212  -0.004552  4.001979  -0.004  0.113724  0.063802  -0.006439  3.967934  -0.006
C  C58  1  0.25133393  0.83299564  0.74209828  1  0.07188  -0.003326  3.738178  -0.004  0.06598  -0.005228  3.981945  -0.005  0.067261  -0.004477  4.002322  -0.004  0.113736  0.06384  -0.00623  3.968316  -0.006
C  C59  1  0.74866518  0.33300592  0.25790152  1  0.07212  -0.00352  3.738434  -0.003  0.06608  -0.005156  3.982325  -0.005  0.067362  -0.004589  4.002697  -0.004  0.113771  0.063935  -0.006167  3.968703  -0.005
C  C60  1  0.92100007  0.93698747  0.22012085  1  0.638827  0.002773  3.895706  0.003  0.584355  0.006537  4.194817  0.006  0.618264  0.004884  4.187755  0.005  0.224518  0.561256  0.008178  4.198303  0.007
C  C61  1  0.07900125  0.43699165  0.77988953  1  0.638778  -0.002768  3.895505  -0.003  0.584109  -0.006717  4.194896  -0.006  0.61801  -0.004861  4.187841  -0.005  0.224385  0.561035  -0.008702  4.19837  -0.008
C  C62  1  0.07903533  0.93697429  0.72010301  1  0.638448  -0.002614  3.896186  -0.003  0.584044  -0.006407  4.195262  -0.006  0.617951  -0.00466  4.188198  -0.005  0.224372  0.560917  -0.008198  4.198777  -0.007
C  C63  1  0.92095272  0.43694959  0.27989459  1  0.638297  -0.002888  3.89627  -0.003  0.583907  -0.006836  4.19535  -0.006  0.617804  -0.005065  4.188287  -0.005  0.224296  0.560791  -0.008682  4.198848  -0.007
C  C64  1  0.67467199  0.76718761  0.09401715  1  0.714115  -0.002164  3.85577  -0.003  0.646282  -0.004762  4.171221  -0.005  0.683588  -0.003442  4.158484  -0.004  0.234992  0.620726  -0.006115  4.179467  -0.006
C  C65  1  0.32529090  0.26717135  0.90600982  1  0.714129  -0.003187  3.855187  -0.004  0.646146  -0.006135  4.170925  -0.006  0.683471  -0.004326  4.158159  -0.005  0.23509  0.620616  -0.008295  4.179137  -0.008
C  C66  1  0.32532023  0.76713180  0.59399211  1  0.714309  -0.002869  3.855092  -0.004  0.646657  -0.005457  4.17035  -0.006  0.683961  -0.00394  4.157613  -0.004  0.235183  0.621138  -0.006981  4.178565  -0.007
C  C67  1  0.67472372  0.26713901  0.40601175  1  0.714568  0.001824  3.85508  0.003  0.646771  0.004078  4.170501  0.004  0.684086  0.003057  4.157754  0.004  0.235306  0.621228  0.004783  4.178734  0.005
N  N68  1  0.70919312  0.82187438  0.32249697  1  -0.369171  0.026281  3.273053  0.012  -0.305365  0.030249  3.549315  0.011  -0.323749  0.026889  3.565717  0.009  -0.315323  -0.291256  0.033077  3.537342  0.013
N  N69  1  0.29083951  0.32191621  0.67749631  1  -0.368917  -0.026356  3.272602  -0.012  -0.305156  -0.030501  3.548647  -0.011  -0.323538  -0.027029  3.56507  -0.009  -0.315101  -0.291056  -0.033632  3.536655  -0.014
N  N70  1  0.29085756  0.82190946  0.82247469  1  -0.36911  -0.02637  3.272902  -0.012  -0.305367  -0.030509  3.548955  -0.011  -0.323748  -0.027064  3.565378  -0.009  -0.31522  -0.291258  -0.033592  3.536945  -0.014
N  N71  1  0.70913527  0.32187642  0.17752346  1  -0.369125  -0.026228  3.272735  -0.012  -0.305405  -0.030276  3.548847  -0.011  -0.323793  -0.026861  3.565274  -0.009  -0.315297  -0.291284  -0.033222  3.536856  -0.013
O  O72  1  0.80019818  0.85851495  0.52397160  1  -0.84467  0.02214  1.908531  0.01  -0.775349  0.03084  2.106109  0.016  -0.798831  0.028343  2.071095  0.015  -0.551394  -0.758269  0.033138  2.131258  0.018
O  O73  1  0.19980184  0.35847336  0.47602964  1  -0.844663  -0.022225  1.908451  -0.011  -0.775543  -0.031129  2.105927  -0.016  -0.799023  -0.028505  2.070923  -0.015  -0.551562  -0.758484  -0.033578  2.131061  -0.018
O  O74  1  0.19980560  0.85853889  0.02397743  1  -0.844824  -0.022535  1.908362  -0.012  -0.775634  -0.03208  2.106031  -0.018  -0.79911  -0.029042  2.070998  -0.016  -0.551542  -0.758564  -0.034603  2.131191  -0.02
O  O75  1  0.80016052  0.35853641  0.97601772  1  -0.844894  -0.022639  1.908244  -0.012  -0.775794  -0.03239  2.105894  -0.019  -0.799256  -0.029249  2.070879  -0.016  -0.551594  -0.758732  -0.035028  2.131047  -0.02
O  O76  1  0.09492768  0.72915974  0.40985831  1  -0.850695  0.03416  1.930924  0.022  -0.787956  0.042307  2.148337  0.027  -0.814095  0.037989  2.113151  0.023  -0.579115  -0.767814  0.045991  2.173037  0.03
O  O77  1  0.90507366  0.22917223  0.59013457  1  -0.851  -0.034134  1.93045  -0.022  -0.788197  -0.042383  2.147947  -0.027  -0.814338  -0.037981  2.112761  -0.023  -0.579263  -0.768052  -0.046167  2.172635  -0.03
O  O78  1  0.90511190  0.72918636  0.90987398  1  -0.850997  -0.033821  1.93089  -0.023  -0.788247  -0.041993  2.148367  -0.027  -0.814392  -0.037489  2.113189  -0.023  -0.579244  -0.768094  -0.045919  2.173054  -0.03
O  O79  1  0.09490271  0.22917382  0.09014323  1  -0.850839  -0.033753  1.930511  -0.022  -0.787902  -0.041825  2.148059  -0.027  -0.814041  -0.037378  2.112896  -0.023  -0.579115  -0.767752  -0.04569  2.172739  -0.03
O  O80  1  0.19821842  0.04395762  0.45087068  1  -0.844526  0.031567  1.884056  0.019  -0.773362  0.039935  2.087593  0.024  -0.797749  0.036067  2.051393  0.021  -0.574764  -0.754976  0.043219  2.112906  0.027
O  O81  1  0.80181618  0.54397901  0.54912930  1  -0.84429  -0.031518  1.884079  -0.019  -0.773186  -0.039924  2.087512  -0.024  -0.79756  -0.036012  2.051292  -0.021  -0.574662  -0.754794  -0.04327  2.112828  -0.027
O  O82  1  0.80178729  0.04398426  0.95085875  1  -0.844396  -0.031379  1.884014  -0.02  -0.773265  -0.039943  2.087389  -0.025  -0.797628  -0.035877  2.05118  -0.021  -0.574686  -0.754903  -0.043462  2.112705  -0.028
O  O83  1  0.19820751  0.54398057  0.04914245  1  -0.844228  -0.031408  1.883938  -0.02  -0.773199  -0.04  2.087366  -0.025  -0.797553  -0.035919  2.051125  -0.021  -0.574667  -0.754837  -0.043548  2.112713  -0.028
O  O84  1  0.01185591  0.00489730  0.27770695  1  -0.612712  0.034504  1.999592  0.025  -0.551998  0.039484  2.255819  0.026  -0.581802  0.035307  2.244783  0.022  -0.298173  -0.529532  0.043697  2.262078  0.03
O  O85  1  0.98808445  0.50486599  0.72230458  1  -0.612717  -0.034357  1.999188  -0.025  -0.551941  -0.039496  2.255426  -0.026  -0.581737  -0.035168  2.244399  -0.022  -0.298192  -0.529494  -0.043925  2.261677  -0.031
O  O86  1  0.98814040  0.00487878  0.77768291  1  -0.612595  -0.034317  1.999337  -0.025  -0.551855  -0.039344  2.255391  -0.026  -0.581657  -0.035071  2.244371  -0.022  -0.298139  -0.5294  -0.043668  2.261661  -0.03
O  O87  1  0.01185597  0.50487981  0.22231828  1  -0.612513  -0.03451  1.999267  -0.025  -0.551729  -0.039573  2.255219  -0.026  -0.581533  -0.035324  2.2442  -0.022  -0.298083  -0.529267  -0.043922  2.261486  -0.03
O  O88  1  0.96062875  0.95298653  0.14487789  1  -0.639917  0.003739  2.047712  0.004  -0.574411  0.006189  2.268557  0.006  -0.600789  0.004915  2.258872  0.005  -0.304421  -0.556568  0.007231  2.275438  0.007
O  O89  1  0.03939967  0.45299140  0.85513893  1  -0.639865  -0.002983  2.047579  -0.004  -0.574289  -0.00575  2.268428  -0.007  -0.600659  -0.004154  2.258755  -0.006  -0.304334  -0.556481  -0.007653  2.275306  -0.009
O  O90  1  0.03941142  0.95300184  0.64486590  1  -0.639599  -0.003399  2.048034  -0.004  -0.574369  -0.006157  2.269013  -0.007  -0.600749  -0.004647  2.259327  -0.006  -0.304377  -0.556477  -0.007962  2.275871  -0.009
O  O91  1  0.96060815  0.45294553  0.35513085  1  -0.639789  -0.003328  2.047953  -0.004  -0.574438  -0.005767  2.268764  -0.006  -0.600819  -0.004415  2.259084  -0.005  -0.304395  -0.556522  -0.006928  2.275596  -0.007
O  O92  1  0.78704258  0.66358126  0.06220027  1  -0.660179  -0.02829  2.079203  -0.014  -0.584468  -0.036156  2.341917  -0.019  -0.615658  -0.033101  2.326288  -0.016  -0.294911  -0.561756  -0.038847  2.35202  -0.021
O  O93  1  0.21290781  0.16358298  0.93782525  1  -0.659806  -0.028475  2.079108  -0.015  -0.584089  -0.036679  2.341925  -0.019  -0.615285  -0.033335  2.32631  -0.017  -0.294846  -0.561412  -0.03969  2.352048  -0.022
O  O94  1  0.21292712  0.66353231  0.56217994  1  -0.659992  -0.02846  2.07929  -0.014  -0.584458  -0.036204  2.342005  -0.018  -0.615655  -0.033173  2.326395  -0.016  -0.29482  -0.561759  -0.038711  2.352073  -0.02
O  O95  1  0.78709843  0.16351086  0.43781516  1  -0.660275  0.028298  2.079314  0.014  -0.584643  0.035694  2.342118  0.018  -0.615844  0.032979  2.326486  0.016  -0.295041  -0.561965  0.037852  2.35224  0.019
O  O96  1  0.58549555  0.87239723  0.05354445  1  -0.645389  -0.001955  1.999753  -0.003  -0.582606  -0.003734  2.226583  -0.005  -0.608605  -0.00278  2.214073  -0.004  -0.306419  -0.564885  -0.004286  2.235342  -0.005
O  O97  1  0.41447696  0.37241241  0.94645231  1  -0.64565  -0.00206  1.999838  -0.003  -0.5827  -0.004107  2.226702  -0.005  -0.608722  -0.002907  2.214181  -0.004  -0.306538  -0.564958  -0.005007  2.235448  -0.006
O  O98  1  0.41452181  0.87234225  0.55352890  1  -0.645695  -0.002524  1.999459  -0.003  -0.582885  -0.00412  2.226313  -0.004  -0.608889  -0.00323  2.213796  -0.004  -0.306625  -0.565162  -0.004663  2.235072  -0.005
O  O99  1  0.58548902  0.37233221  0.44646726  1  -0.64571  0.00241  1.999744  0.003  -0.582861  0.003727  2.226583  0.004  -0.608869  0.00309  2.21407  0.003  -0.306627  -0.565144  0.003914  2.235356  0.004
