# generated using pymatgen
data_MnH9(CN)9
_symmetry_space_group_name_H-M   'P 1'
_cell_length_a   10.10266109
_cell_length_b   10.10266550
_cell_length_c   12.29826179
_cell_angle_alpha   102.64985532
_cell_angle_beta   102.65004165
_cell_angle_gamma   91.99814050
_symmetry_Int_Tables_number   1
_chemical_formula_structural   MnH9(CN)9
_chemical_formula_sum   'Mn4 H36 C36 N36'
_cell_volume   1190.47887555
_cell_formula_units_Z   4
loop_
 _symmetry_equiv_pos_site_id
 _symmetry_equiv_pos_as_xyz
  1  'x, y, z'
loop_
 _atom_site_type_symbol
 _atom_site_label
 _atom_site_symmetry_multiplicity
 _atom_site_fract_x
 _atom_site_fract_y
 _atom_site_fract_z
 _atom_site_occupancy
 _atom_site_hle17_ddec_charge
 _atom_site_hle17_ddec_spin_density
 _atom_site_hle17_ddec_sum_bond_order
 _atom_site_hle17_magmom
 _atom_site_hse06_10hf_ddec_charge
 _atom_site_hse06_10hf_ddec_spin_density
 _atom_site_hse06_10hf_ddec_sum_bond_order
 _atom_site_hse06_10hf_magmom
 _atom_site_hse06_ddec_charge
 _atom_site_hse06_ddec_spin_density
 _atom_site_hse06_ddec_sum_bond_order
 _atom_site_hse06_magmom
 _atom_site_pbe_cm5_charge
 _atom_site_pbe_ddec_charge
 _atom_site_pbe_ddec_spin_density
 _atom_site_pbe_ddec_sum_bond_order
 _atom_site_pbe_magmom
Mn  Mn0  1  0.80151507  0.06729673  0.84762038  1  0.968673  4.739883  2.11299  4.601  0.813741  4.644538  2.641209  4.442  0.865922  4.710621  2.582395  4.528  0.643978  0.771828  4.576661  2.685191  4.355
Mn  Mn1  1  0.93269791  0.19848649  0.65237763  1  0.968733  4.739875  2.112962  4.601  0.813801  4.644532  2.641163  4.442  0.865978  4.710615  2.582349  4.528  0.643983  0.771891  4.576657  2.685145  4.355
Mn  Mn2  1  0.19848338  0.93269599  0.15237343  1  0.968759  4.73986  2.113017  4.601  0.813851  4.644508  2.641214  4.442  0.866023  4.710594  2.582401  4.528  0.643973  0.771937  4.576632  2.685199  4.355
Mn  Mn3  1  0.06729726  0.80151538  0.34762133  1  0.968708  4.739878  2.113037  4.601  0.813797  4.644525  2.641242  4.442  0.865966  4.710611  2.582431  4.528  0.64395  0.771884  4.57665  2.685228  4.355
H  H4  1  0.78256975  0.37410462  0.93148349  1  0.079067  0.000249  0.94934  0.0  0.082731  0.000868  1.021851  0.001  0.084935  0.000609  1.019847  0.0  0.116038  0.080957  0.00115  1.023689  0.001
H  H5  1  0.62589650  0.21743299  0.56850898  1  0.079093  0.000249  0.949307  0.0  0.082786  0.000868  1.021767  0.001  0.084993  0.00061  1.019759  0.0  0.116012  0.08097  0.00115  1.023645  0.001
H  H6  1  0.21743504  0.62589114  0.06851447  1  0.079078  0.00025  0.949402  0.0  0.082802  0.000868  1.021831  0.001  0.085006  0.00061  1.019827  0.0  0.116055  0.081005  0.00115  1.023693  0.001
H  H7  1  0.37410618  0.78257298  0.43148477  1  0.07906  0.000249  0.94928  0.0  0.082719  0.000868  1.021791  0.001  0.084925  0.000609  1.019777  0.0  0.116013  0.080943  0.00115  1.023627  0.001
H  H8  1  0.62337977  0.55425345  0.93636308  1  0.105385  0.000289  0.977278  0.0  0.114024  0.000507  1.041646  0.0  0.116395  0.000406  1.041594  0.0  0.105078  0.111935  0.000624  1.042654  0.0
H  H9  1  0.44574292  0.37661777  0.56363202  1  0.105486  0.000289  0.977132  0.0  0.114123  0.000506  1.041508  0.0  0.116492  0.000406  1.041459  0.0  0.105108  0.112034  0.000624  1.042518  0.0
H  H10  1  0.37662852  0.44574740  0.06363564  1  0.10544  0.000289  0.977258  0.0  0.114146  0.000506  1.04155  0.0  0.116518  0.000406  1.041496  0.0  0.105119  0.112045  0.000624  1.042574  0.0
H  H11  1  0.55425540  0.62338513  0.43636445  1  0.105482  0.000289  0.97714  0.0  0.114143  0.000507  1.041498  0.0  0.116512  0.000406  1.041449  0.0  0.105108  0.112033  0.000624  1.042531  0.0
H  H12  1  0.37260917  0.48893971  0.84528293  1  0.093935  -5.3e-05  0.932632  0.0  0.106397  9.2e-05  0.988188  0.0  0.108636  4.7e-05  0.987338  0.0  0.108416  0.105128  0.000131  0.988296  0.0
H  H13  1  0.51105247  0.62738589  0.65471478  1  0.093932  -5.3e-05  0.932664  0.0  0.106379  9.3e-05  0.988232  0.0  0.108636  4.7e-05  0.987333  0.0  0.108404  0.105113  0.000131  0.988337  0.0
H  H14  1  0.62739615  0.51106215  0.15471787  1  0.093926  -5.3e-05  0.932579  0.0  0.106359  9.2e-05  0.988158  0.0  0.108598  4.7e-05  0.987308  0.0  0.10839  0.105069  0.000131  0.988288  0.0
H  H15  1  0.48894565  0.37261495  0.34528615  1  0.093955  -5.4e-05  0.932674  0.0  0.106407  9.2e-05  0.988231  0.0  0.108653  4.7e-05  0.987363  0.0  0.108419  0.105147  0.000131  0.988329  0.0
H  H16  1  0.29812722  0.24230140  0.75221795  1  0.113639  -0.000187  0.97917  0.0  0.117023  6e-05  1.049812  0.0  0.119835  -0.000108  1.049738  0.0  0.106731  0.114966  0.000263  1.050075  0.0
H  H17  1  0.75769088  0.70187278  0.74777846  1  0.113648  -0.000187  0.979241  0.0  0.117065  6e-05  1.049821  0.0  0.119878  -0.000107  1.049743  0.0  0.106704  0.115004  0.000263  1.05008  0.0
H  H18  1  0.70187717  0.75770147  0.24778530  1  0.113638  -0.000187  0.979097  0.0  0.117017  6e-05  1.049758  0.0  0.119831  -0.000108  1.049682  0.0  0.106713  0.114959  0.000263  1.050023  0.0
H  H19  1  0.24230649  0.29813112  0.25222289  1  0.113595  -0.000186  0.979321  0.0  0.117004  6e-05  1.04991  0.0  0.119814  -0.000107  1.049842  0.0  0.106703  0.114942  0.000263  1.05017  0.0
H  H20  1  0.35014574  0.02156360  0.69508358  1  0.102574  -0.00012  0.952039  0.0  0.114039  8.5e-05  1.019491  0.0  0.114527  4e-06  1.020046  0.0  0.122511  0.113434  0.000192  1.019532  0.0
H  H21  1  0.97843159  0.64985497  0.80491466  1  0.102541  -0.00012  0.952042  0.0  0.113978  8.5e-05  1.019533  0.0  0.114461  4e-06  1.020092  0.0  0.122505  0.113373  0.000192  1.019574  0.0
H  H22  1  0.64985322  0.97843520  0.30491632  1  0.102569  -0.00012  0.952055  0.0  0.114014  8.6e-05  1.019518  0.0  0.1145  4e-06  1.020077  0.0  0.122514  0.113409  0.000192  1.019559  0.0
H  H23  1  0.02156862  0.35014686  0.19509252  1  0.10252  -0.00012  0.952049  0.0  0.114039  8.6e-05  1.019501  0.0  0.114509  4e-06  1.020039  0.0  0.122497  0.11343  0.000192  1.019543  0.0
H  H24  1  0.50817182  0.00652634  0.65586417  1  0.099854  7.8e-05  0.944019  0.0  0.107636  0.00056  1.019017  0.0  0.108243  0.000386  1.018833  0.0  0.121118  0.106532  0.000769  1.019876  0.0
H  H25  1  0.99346563  0.49182833  0.84413198  1  0.099836  7.9e-05  0.943979  0.0  0.107646  0.00056  1.018953  0.0  0.108254  0.000386  1.01876  0.0  0.121111  0.106542  0.000769  1.019813  0.0
H  H26  1  0.49182882  0.99346840  0.34413367  1  0.099905  7.9e-05  0.943988  0.0  0.107682  0.00056  1.018988  0.0  0.108291  0.000387  1.018798  0.0  0.121117  0.106578  0.000769  1.019848  0.0
H  H27  1  0.00652815  0.50816945  0.15587085  1  0.099796  7.9e-05  0.944015  0.0  0.107612  0.00056  1.019018  0.0  0.108198  0.000387  1.018826  0.0  0.1211  0.106507  0.000769  1.019877  0.0
H  H28  1  0.30241593  0.88502176  0.83106036  1  0.113513  -0.000216  0.956189  0.0  0.122338  0.000274  1.020576  0.0  0.125042  0.000111  1.017969  0.0  0.123906  0.12066  0.000428  1.021926  0.0
H  H29  1  0.11497150  0.69758554  0.66893405  1  0.11345  -0.000215  0.956231  0.0  0.122289  0.000274  1.020602  0.0  0.124994  0.00011  1.017997  0.0  0.123901  0.120613  0.000428  1.02195  0.0
H  H30  1  0.69758466  0.11498417  0.16894276  1  0.11357  -0.000217  0.956132  0.0  0.122384  0.000274  1.020534  0.0  0.125091  0.000111  1.017924  0.0  0.123915  0.120705  0.000428  1.021884  0.0
H  H31  1  0.88501960  0.30241632  0.33106741  1  0.113484  -0.000216  0.956248  0.0  0.122326  0.000274  1.020603  0.0  0.125029  0.000111  1.018004  0.0  0.123933  0.12065  0.000428  1.021947  0.0
H  H32  1  0.45729986  0.74204461  0.97003346  1  0.117291  2.9e-05  0.995334  0.0  0.127087  6.2e-05  1.055118  0.0  0.129074  -0.0  1.05716  0.0  0.103677  0.126089  7e-05  1.053084  0.0
H  H33  1  0.25795165  0.54269989  0.52996319  1  0.117273  2.9e-05  0.995372  0.0  0.127087  6.2e-05  1.055131  0.0  0.129072  -0.0  1.057177  0.0  0.103671  0.126092  7e-05  1.053088  0.0
H  H34  1  0.54269640  0.25795826  0.02996994  1  0.117283  3e-05  0.995307  0.0  0.12712  6.2e-05  1.055055  0.0  0.129106  -0.0  1.057098  0.0  0.103683  0.126123  7e-05  1.053016  0.0
H  H35  1  0.74204269  0.45730403  0.47003517  1  0.117262  2.9e-05  0.995421  0.0  0.127086  6.2e-05  1.055174  0.0  0.129071  -0.0  1.057219  0.0  0.103671  0.12609  7e-05  1.053134  0.0
H  H36  1  0.72062646  0.80386979  0.95533994  1  0.096248  -0.000208  0.977611  0.0  0.10082  0.000389  1.048113  0.0  0.102849  0.000255  1.046322  0.0  0.116333  0.099258  0.000557  1.04956  0.0
H  H37  1  0.19612854  0.27937476  0.54466250  1  0.096277  -0.000207  0.977543  0.0  0.100826  0.000389  1.048075  0.0  0.102854  0.000254  1.046284  0.0  0.116322  0.099264  0.000557  1.049522  0.0
H  H38  1  0.27937112  0.19612494  0.04466058  1  0.096293  -0.000209  0.977511  0.0  0.100842  0.000389  1.048043  0.0  0.102871  0.000254  1.046254  0.0  0.116316  0.099279  0.000557  1.049492  0.0
H  H39  1  0.80387371  0.72062709  0.45534262  1  0.096246  -0.000207  0.977604  0.0  0.100831  0.000389  1.048091  0.0  0.102858  0.000255  1.046302  0.0  0.116328  0.099269  0.000557  1.049538  0.0
C  C40  1  0.67452592  0.34892708  0.89172239  1  0.129188  0.001531  3.705739  0.002  0.099868  0.003889  3.960797  0.003  0.106822  0.00316  3.978495  0.003  0.049208  0.095053  0.004783  3.948573  0.004
C  C41  1  0.65106794  0.32547469  0.60827010  1  0.129063  0.001538  3.705693  0.002  0.099763  0.003889  3.960685  0.003  0.106709  0.003164  3.978378  0.003  0.049207  0.094988  0.004784  3.948476  0.004
C  C42  1  0.32547795  0.65106970  0.10827559  1  0.129167  0.001538  3.705984  0.002  0.099804  0.003888  3.96103  0.003  0.106751  0.003164  3.978726  0.003  0.049189  0.09501  0.004783  3.948812  0.004
C  C43  1  0.34893326  0.67452618  0.39172489  1  0.129192  0.001547  3.705688  0.002  0.099888  0.003889  3.960722  0.003  0.106841  0.00316  3.97843  0.003  0.049203  0.095079  0.004783  3.948498  0.004
C  C44  1  0.58405927  0.44964642  0.89500744  1  -0.130959  -0.000549  3.754574  0.0  -0.143672  -0.000352  4.003585  0.0  -0.150915  -0.000843  4.026515  0.0  -0.084849  -0.139026  9.8e-05  3.988771  0.0
C  C45  1  0.55035325  0.41593649  0.60498802  1  -0.130999  -0.00056  3.754632  0.0  -0.143742  -0.000353  4.003674  0.0  -0.15099  -0.000844  4.026612  0.0  -0.08488  -0.139095  9.7e-05  3.988851  0.0
C  C46  1  0.41594589  0.55035342  0.10498971  1  -0.131081  -0.000562  3.754789  0.0  -0.143866  -0.000351  4.003829  0.0  -0.151112  -0.000844  4.026763  0.0  -0.08493  -0.139208  9.8e-05  3.989005  0.0
C  C47  1  0.44964896  0.58406437  0.39500878  1  -0.131045  -0.000573  3.754647  0.0  -0.143805  -0.000352  4.003678  0.0  -0.151055  -0.000843  4.026618  0.0  -0.084917  -0.139143  9.7e-05  3.988879  0.0
C  C48  1  0.44642555  0.41277407  0.84452747  1  0.006082  0.001326  3.729948  0.001  -0.010405  0.002875  3.97558  0.002  -0.006658  0.002453  3.994239  0.002  -0.063793  -0.012724  0.003683  3.962873  0.003
C  C49  1  0.58721567  0.55357308  0.65546738  1  0.006222  0.001335  3.729937  0.001  -0.010252  0.002877  3.975534  0.002  -0.006497  0.002453  3.994199  0.002  -0.063663  -0.012577  0.003684  3.962831  0.003
C  C50  1  0.55358154  0.58722474  0.15547147  1  0.006191  0.001335  3.730027  0.001  -0.010252  0.002876  3.97564  0.002  -0.006504  0.002452  3.994298  0.002  -0.063699  -0.012553  0.003683  3.962928  0.003
C  C51  1  0.41278559  0.44642879  0.34453268  1  0.006133  0.001344  3.729877  0.001  -0.01034  0.002876  3.975493  0.002  -0.00659  0.002453  3.994157  0.002  -0.063704  -0.012668  0.003684  3.96278  0.003
C  C52  1  0.40459120  0.27661851  0.79221622  1  -0.157643  -0.000319  3.691629  0.0  -0.172635  -1.8e-05  3.93544  0.0  -0.18082  -0.00055  3.95767  0.0  -0.080525  -0.167691  0.000361  3.921135  0.0
C  C53  1  0.72337738  0.59541300  0.70777927  1  -0.157772  -0.000329  3.691736  0.0  -0.172755  -2e-05  3.935538  0.0  -0.180943  -0.00055  3.95777  0.0  -0.080573  -0.167802  0.000361  3.921228  0.0
C  C54  1  0.59541082  0.72338031  0.20778261  1  -0.157681  -0.000328  3.691695  0.0  -0.172667  -1.9e-05  3.935514  0.0  -0.180854  -0.000551  3.957749  0.0  -0.080561  -0.167724  0.000361  3.921199  0.0
C  C55  1  0.27662204  0.40459092  0.29221920  1  -0.157663  -0.000343  3.691618  0.0  -0.172658  -1.8e-05  3.935422  0.0  -0.180848  -0.000552  3.957661  0.0  -0.080525  -0.167707  0.000361  3.921112  0.0
C  C56  1  0.50229632  0.18244443  0.78965895  1  0.242852  0.001291  3.706998  0.001  0.242217  0.003321  3.956595  0.003  0.249342  0.002637  3.977387  0.002  0.125548  0.237275  0.004028  3.942533  0.004
C  C57  1  0.81755081  0.49770653  0.71033399  1  0.242813  0.001298  3.70726  0.001  0.24213  0.003323  3.956935  0.003  0.249248  0.002637  3.977727  0.002  0.125522  0.237191  0.004029  3.942875  0.004
C  C58  1  0.49770791  0.81755642  0.21033985  1  0.242791  0.001298  3.706991  0.001  0.242124  0.003322  3.956647  0.003  0.249244  0.002638  3.977439  0.002  0.125524  0.237187  0.004028  3.942586  0.004
C  C59  1  0.18244658  0.50229738  0.28966493  1  0.242871  0.001307  3.707192  0.002  0.242251  0.003321  3.956799  0.003  0.249348  0.002638  3.977582  0.002  0.125552  0.23731  0.004028  3.942736  0.004
C  C60  1  0.46043250  0.03549565  0.72865261  1  -0.101589  0.000606  3.661073  0.0  -0.181095  0.001631  3.912055  0.001  -0.177752  0.001263  3.921009  0.001  -0.041376  -0.183065  0.002061  3.906698  0.001
C  C61  1  0.96449922  0.53957026  0.77134363  1  -0.101493  0.000605  3.661076  0.0  -0.180987  0.00163  3.912048  0.001  -0.177634  0.001264  3.92099  0.001  -0.041355  -0.182956  0.002061  3.906691  0.001
C  C62  1  0.53956959  0.96450417  0.27134885  1  -0.101577  0.000605  3.661075  0.0  -0.181051  0.001631  3.91205  0.001  -0.177707  0.001261  3.921004  0.001  -0.041375  -0.183024  0.002061  3.906696  0.001
C  C63  1  0.03549880  0.46042956  0.22865872  1  -0.101402  0.000604  3.661082  0.0  -0.181074  0.001631  3.91217  0.001  -0.177629  0.001262  3.920998  0.001  -0.04135  -0.183039  0.002061  3.906803  0.001
C  C64  1  0.41130112  0.87643902  0.84948057  1  0.00874  0.007809  3.667424  0.007  -0.052213  0.008526  3.926801  0.007  -0.043483  0.007573  3.940274  0.006  0.025017  -0.057609  0.009933  3.917268  0.008
C  C65  1  0.12355707  0.58869785  0.65051730  1  0.008815  0.007799  3.667424  0.007  -0.052162  0.008526  3.926828  0.007  -0.043435  0.00757  3.940302  0.006  0.025017  -0.057558  0.009932  3.917294  0.008
C  C66  1  0.58869726  0.12356487  0.15052340  1  0.008641  0.007811  3.66729  0.007  -0.052311  0.008525  3.926686  0.007  -0.043584  0.007574  3.940157  0.006  0.025011  -0.057704  0.009932  3.917148  0.008
C  C67  1  0.87643791  0.41130197  0.34948531  1  0.008794  0.007801  3.667337  0.007  -0.05218  0.008526  3.92673  0.007  -0.043454  0.00757  3.940206  0.006  0.025018  -0.057576  0.009932  3.917197  0.008
C  C68  1  0.49208680  0.80629940  0.92039707  1  -0.204416  -0.003303  3.778566  -0.002  -0.22018  -0.00082  4.046837  -0.001  -0.229322  -0.001748  4.067876  -0.001  -0.118567  -0.214118  0.000177  4.032321  0.0
C  C69  1  0.19369610  0.50791083  0.57959983  1  -0.204413  -0.003292  3.778568  -0.002  -0.220187  -0.000821  4.046817  -0.001  -0.229332  -0.001745  4.067861  -0.001  -0.118538  -0.214122  0.000177  4.032302  0.0
C  C70  1  0.50790957  0.19370450  0.07960328  1  -0.204366  -0.003306  3.778438  -0.002  -0.220179  -0.00082  4.046714  -0.001  -0.229322  -0.001749  4.067752  -0.001  -0.11855  -0.214117  0.000177  4.032196  0.0
C  C71  1  0.80629676  0.49208797  0.42040139  1  -0.204464  -0.003294  3.778444  -0.002  -0.220265  -0.00082  4.046739  -0.001  -0.229408  -0.001746  4.067773  -0.001  -0.118609  -0.214202  0.000177  4.032226  0.0
C  C72  1  0.62608736  0.83833227  0.91397718  1  0.060626  0.007692  3.725108  0.008  0.0204  0.009775  4.00412  0.009  0.029467  0.008652  4.018242  0.008  0.022319  0.013983  0.011088  3.994708  0.01
C  C73  1  0.16166674  0.37391371  0.58602275  1  0.060619  0.007683  3.724996  0.008  0.020386  0.009774  4.004007  0.009  0.029457  0.008648  4.018123  0.008  0.02226  0.013971  0.011086  3.994597  0.01
C  C74  1  0.37391059  0.16166654  0.08602334  1  0.060632  0.007695  3.724924  0.008  0.020409  0.009774  4.003934  0.009  0.029477  0.008649  4.018052  0.008  0.022305  0.013993  0.011086  3.994523  0.01
C  C75  1  0.83833460  0.62608915  0.41398076  1  0.060583  0.007686  3.724976  0.008  0.020344  0.009776  4.003989  0.009  0.029414  0.008648  4.018106  0.008  0.022244  0.013926  0.011088  3.994581  0.01
N  N76  1  0.63542679  0.21752187  0.83926314  1  -0.358495  0.026308  3.207859  0.016  -0.296622  0.030901  3.479849  0.018  -0.315457  0.027582  3.495594  0.015  -0.309764  -0.282211  0.033756  3.468154  0.02
N  N77  1  0.78247843  0.36457683  0.66073180  1  -0.358446  0.026302  3.207842  0.016  -0.296574  0.030899  3.479842  0.018  -0.315401  0.027577  3.495587  0.015  -0.309733  -0.282163  0.033753  3.468121  0.02
N  N78  1  0.36457505  0.78247492  0.16073366  1  -0.358469  0.026303  3.207879  0.016  -0.296569  0.0309  3.479862  0.018  -0.315392  0.027579  3.495601  0.015  -0.309726  -0.28216  0.033754  3.468146  0.02
N  N79  1  0.21752201  0.63542709  0.33926605  1  -0.358577  0.026296  3.207909  0.016  -0.296695  0.030902  3.479902  0.018  -0.315496  0.027583  3.495577  0.015  -0.309775  -0.282294  0.033756  3.468213  0.02
N  N80  1  0.49574354  0.94340655  0.80399126  1  0.077169  -0.000644  3.581453  0.0  0.195285  0.001654  3.758524  0.003  0.185621  0.000734  3.785778  0.002  -0.141544  0.200211  0.00259  3.74212  0.004
N  N81  1  0.05659284  0.50425946  0.69600798  1  0.077208  -0.00064  3.581586  0.0  0.195314  0.001652  3.758647  0.003  0.18565  0.000734  3.785896  0.002  -0.141499  0.200236  0.002589  3.742252  0.004
N  N82  1  0.50425661  0.05659429  0.19601004  1  0.077193  -0.000646  3.581572  0.0  0.195314  0.001653  3.758614  0.003  0.185651  0.000736  3.785868  0.002  -0.141504  0.200235  0.00259  3.742216  0.004
N  N83  1  0.94340729  0.49574136  0.30399738  1  0.077195  -0.00064  3.581478  0.0  0.195382  0.001653  3.758531  0.003  0.18569  0.000737  3.785768  0.002  -0.141501  0.200309  0.002589  3.742119  0.004
N  N84  1  0.62787790  0.92208725  0.84272000  1  -0.294534  0.023338  3.097304  0.01  -0.25736  0.028484  3.376204  0.011  -0.273624  0.024936  3.391669  0.008  -0.240904  -0.244957  0.032439  3.364812  0.014
N  N85  1  0.07791296  0.37212671  0.65728231  1  -0.294665  0.023347  3.097338  0.01  -0.257425  0.028485  3.37615  0.011  -0.273686  0.02494  3.391607  0.008  -0.240895  -0.24502  0.03244  3.364758  0.014
N  N86  1  0.37212309  0.07791155  0.15728108  1  -0.294667  0.023337  3.097311  0.01  -0.257448  0.028485  3.376144  0.011  -0.273705  0.024938  3.391596  0.008  -0.240934  -0.245044  0.032439  3.364751  0.014
N  N87  1  0.92208956  0.62787819  0.34272341  1  -0.294522  0.023342  3.097194  0.01  -0.257341  0.028484  3.376032  0.011  -0.273602  0.024939  3.391494  0.008  -0.240851  -0.244938  0.032438  3.364639  0.014
N  N88  1  0.93123513  0.89883174  0.84877150  1  -0.486249  0.04562  2.637975  0.031  -0.471856  0.054039  2.927522  0.031  -0.490041  0.044835  2.933197  0.024  -0.24653  -0.457425  0.063761  2.923645  0.039
N  N89  1  0.10116602  0.06876637  0.65122697  1  -0.486333  0.045622  2.638002  0.031  -0.47195  0.054047  2.927574  0.031  -0.490136  0.044833  2.933249  0.024  -0.246534  -0.45752  0.063765  2.923701  0.039
N  N90  1  0.06877151  0.10116198  0.15122643  1  -0.486374  0.04562  2.637699  0.031  -0.472005  0.054037  2.927295  0.031  -0.490193  0.044848  2.93297  0.024  -0.24656  -0.457571  0.063764  2.92342  0.039
N  N91  1  0.89883423  0.93123551  0.34877128  1  -0.486384  0.045618  2.637843  0.031  -0.471992  0.054041  2.927416  0.031  -0.490179  0.044821  2.933093  0.024  -0.246585  -0.457558  0.063761  2.923543  0.039
N  N92  1  0.03753908  0.88647475  0.90780614  1  0.40047  0.013458  4.224355  0.016  0.438857  0.026435  4.499523  0.03  0.45551  0.021275  4.531569  0.025  0.091385  0.426873  0.031434  4.477227  0.034
N  N93  1  0.11352183  0.96246197  0.59219171  1  0.400551  0.013456  4.224368  0.016  0.438935  0.026433  4.499548  0.03  0.455588  0.021272  4.531595  0.025  0.091379  0.426951  0.03143  4.477252  0.034
N  N94  1  0.96245964  0.11352103  0.09218828  1  0.400495  0.01346  4.224222  0.016  0.438879  0.026439  4.4994  0.03  0.45553  0.02128  4.531447  0.025  0.091319  0.426894  0.031438  4.477103  0.034
N  N95  1  0.88647868  0.03754294  0.40781040  1  0.400588  0.013456  4.224526  0.016  0.438958  0.026433  4.499714  0.03  0.45561  0.021275  4.531759  0.025  0.0914  0.426973  0.03143  4.477419  0.034
N  N96  1  0.14431121  0.86950882  0.96430798  1  -0.501184  0.042026  2.604957  0.027  -0.488017  0.052958  2.891253  0.03  -0.506827  0.043407  2.897976  0.022  -0.256187  -0.47324  0.062833  2.886151  0.038
N  N97  1  0.13048571  0.85569139  0.53568831  1  -0.501209  0.042024  2.604981  0.027  -0.488041  0.05295  2.891278  0.03  -0.506846  0.043408  2.897991  0.022  -0.256172  -0.473264  0.062829  2.886177  0.038
N  N98  1  0.85569045  0.13048593  0.03568841  1  -0.501131  0.042032  2.605174  0.027  -0.487945  0.052966  2.891444  0.03  -0.506745  0.043395  2.898151  0.022  -0.2561  -0.473172  0.062837  2.886342  0.038
N  N99  1  0.86951538  0.14430845  0.46431054  1  -0.501186  0.042029  2.605347  0.027  -0.488004  0.052957  2.891638  0.03  -0.506813  0.043417  2.898364  0.022  -0.256143  -0.473232  0.062834  2.886538  0.038
N  N100  1  0.95832863  0.21926471  0.83925166  1  -0.585466  0.011023  2.840351  -0.012  -0.549492  0.028463  3.174282  -0.004  -0.578227  0.013234  3.177648  -0.015  -0.29925  -0.527167  0.041588  3.171734  0.005
N  N101  1  0.78073455  0.04167059  0.66074758  1  -0.585405  0.011016  2.840374  -0.012  -0.549424  0.028455  3.174285  -0.004  -0.578156  0.013231  3.177648  -0.015  -0.299248  -0.527099  0.041582  3.171732  0.005
N  N102  1  0.04167227  0.78073308  0.16074841  1  -0.585497  0.011041  2.840153  -0.012  -0.549503  0.028467  3.174082  -0.004  -0.57824  0.013246  3.177445  -0.015  -0.299264  -0.527174  0.041593  3.171528  0.005
N  N103  1  0.21926322  0.95832619  0.33925010  1  -0.585602  0.011049  2.840262  -0.012  -0.549653  0.028474  3.174201  -0.004  -0.578391  0.013262  3.177567  -0.015  -0.299318  -0.527324  0.041601  3.17165  0.005
N  N104  1  0.04683264  0.28845224  0.91426339  1  0.397778  -0.001069  4.202975  0.002  0.431844  0.015777  4.483347  0.018  0.448646  0.008054  4.513131  0.011  0.09046  0.41983  0.022296  4.461985  0.023
N  N105  1  0.71154925  0.95316771  0.58573764  1  0.397773  -0.001071  4.202914  0.002  0.431861  0.015778  4.483241  0.018  0.448664  0.008049  4.513022  0.011  0.090487  0.419848  0.022296  4.46188  0.023
N  N106  1  0.95316275  0.71154046  0.08573473  1  0.397761  -0.001054  4.202976  0.002  0.431817  0.015787  4.483357  0.018  0.44862  0.008062  4.513136  0.011  0.090417  0.419806  0.022307  4.461993  0.023
N  N107  1  0.28845294  0.04683314  0.41426160  1  0.397901  -0.001056  4.203095  0.002  0.432003  0.015782  4.483406  0.018  0.448803  0.008059  4.513189  0.011  0.090548  0.419989  0.0223  4.462044  0.023
N  N108  1  0.13225092  0.35795624  0.98607666  1  -0.392527  0.084115  2.400145  0.083  -0.390782  0.085034  2.630961  0.077  -0.397773  0.081021  2.640848  0.075  -0.188424  -0.3848  0.092256  2.624014  0.082
N  N109  1  0.64204375  0.86774665  0.51392442  1  -0.392591  0.084124  2.400058  0.083  -0.390858  0.085043  2.630862  0.077  -0.397851  0.081028  2.640746  0.075  -0.188471  -0.384875  0.092264  2.623918  0.082
N  N110  1  0.86774867  0.64203847  0.01392748  1  -0.392469  0.084092  2.400362  0.083  -0.39072  0.085026  2.631179  0.077  -0.397705  0.081008  2.641062  0.075  -0.188361  -0.384746  0.092247  2.624238  0.082
N  N111  1  0.35795378  0.13224710  0.48606860  1  -0.392567  0.084083  2.40043  0.083  -0.390824  0.085018  2.631229  0.077  -0.397812  0.080997  2.641115  0.075  -0.188446  -0.384846  0.092237  2.624283  0.082
