# generated using pymatgen
data_ZnH10C14(NO2)2
_symmetry_space_group_name_H-M   'P 1'
_cell_length_a   7.43672574
_cell_length_b   10.22844116
_cell_length_c   16.35486826
_cell_angle_alpha   89.99986968
_cell_angle_beta   92.63619931
_cell_angle_gamma   90.00043441
_symmetry_Int_Tables_number   1
_chemical_formula_structural   ZnH10C14(NO2)2
_chemical_formula_sum   'Zn4 H40 C56 N8 O16'
_cell_volume   1242.73466791
_cell_formula_units_Z   4
loop_
 _symmetry_equiv_pos_site_id
 _symmetry_equiv_pos_as_xyz
  1  'x, y, z'
loop_
 _atom_site_type_symbol
 _atom_site_label
 _atom_site_symmetry_multiplicity
 _atom_site_fract_x
 _atom_site_fract_y
 _atom_site_fract_z
 _atom_site_occupancy
 _atom_site_hle17_bader_spin_density
 _atom_site_hle17_ddec_charge
 _atom_site_hle17_ddec_spin_density
 _atom_site_hle17_ddec_sum_bond_order
 _atom_site_hle17_magmom
 _atom_site_hse06_10hf_bader_spin_density
 _atom_site_hse06_10hf_ddec_charge
 _atom_site_hse06_10hf_ddec_spin_density
 _atom_site_hse06_10hf_ddec_sum_bond_order
 _atom_site_hse06_10hf_magmom
 _atom_site_hse06_bader_spin_density
 _atom_site_hse06_ddec_charge
 _atom_site_hse06_ddec_spin_density
 _atom_site_hse06_ddec_sum_bond_order
 _atom_site_hse06_magmom
 _atom_site_pbe_bader_spin_density
 _atom_site_pbe_cm5_charge
 _atom_site_pbe_ddec_charge
 _atom_site_pbe_ddec_spin_density
 _atom_site_pbe_ddec_sum_bond_order
 _atom_site_pbe_magmom
Zn  Zn0  1  0.13375456  0.16933713  0.49654236  1  0  1.067282  0  1.772295  0  0  0.888607  0  2.234877  0  0  0.938528  0  2.176287  0  0  0.691093  0.853642  0  2.275166  0
Zn  Zn1  1  0.36623593  0.66933858  0.00345751  1  0  1.06729  0  1.772416  0  0  0.888594  0  2.23498  0  0  0.938508  0  2.176403  0  0  0.691098  0.853623  0  2.275284  0
Zn  Zn2  1  0.86624047  0.83066475  0.50345763  1  0  1.067309  0  1.772371  0  0  0.888608  0  2.234968  0  0  0.938534  0  2.176367  0  0  0.691058  0.853626  0  2.275262  0
Zn  Zn3  1  0.63376314  0.33066036  0.99654197  1  0  1.067422  0  1.77229  0  0  0.888695  0  2.234877  0  0  0.938624  0  2.176278  0  0  0.691116  0.853725  0  2.275162  0
H  H4  1  0.79762883  0.10799602  0.64580973  1  0  0.280727  0  0.904788  0  0  0.269181  0  0.96325  0  0  0.274618  0  0.960063  0  0  0.304978  0.265292  0  0.965652  0
H  H5  1  0.70238191  0.60799534  0.85419099  1  0  0.280767  0  0.90476  0  0  0.269252  0  0.963193  0  0  0.274691  0  0.96  0  0  0.305027  0.265363  0  0.965593  0
H  H6  1  0.20237156  0.89200585  0.35419162  1  0  0.280733  0  0.904773  0  0  0.269232  0  0.96318  0  0  0.274672  0  0.959989  0  0  0.304999  0.265345  0  0.965574  0
H  H7  1  0.29762392  0.39200752  0.14580743  1  0  0.280718  0  0.904789  0  0  0.269229  0  0.963187  0  0  0.274668  0  0.959997  0  0  0.305023  0.265344  0  0.965586  0
H  H8  1  0.18170052  0.79481437  0.72931648  1  0  0.111143  0  0.957125  0  0  0.118065  0  1.023987  0  0  0.122915  0  1.019295  0  0  0.103961  0.114688  0  1.027159  0
H  H9  1  0.31830232  0.29480593  0.77068618  1  0  0.111206  0  0.957057  0  0  0.118054  0  1.024015  0  0  0.122906  0  1.01932  0  0  0.103966  0.114678  0  1.027191  0
H  H10  1  0.81829855  0.20518946  0.27068361  1  0  0.111181  0  0.956995  0  0  0.118051  0  1.023923  0  0  0.122901  0  1.019232  0  0  0.103968  0.114674  0  1.027099  0
H  H11  1  0.68169671  0.70518910  0.22931574  1  0  0.11116  0  0.957012  0  0  0.118075  0  1.023894  0  0  0.122926  0  1.019201  0  0  0.103974  0.114697  0  1.02707  0
H  H12  1  0.69157910  0.92354489  0.83229505  1  0  0.104307  0  0.971446  0  0  0.112225  0  1.039049  0  0  0.115977  0  1.036701  0  0  0.101473  0.109505  0  1.040947  0
H  H13  1  0.80842546  0.42353774  0.66770505  1  0  0.104261  0  0.971375  0  0  0.112207  0  1.038956  0  0  0.115958  0  1.03661  0  0  0.101439  0.109472  0  1.040875  0
H  H14  1  0.30841996  0.07645698  0.16770566  1  0  0.104317  0  0.971403  0  0  0.112231  0  1.039014  0  0  0.115981  0  1.036668  0  0  0.101472  0.109519  0  1.040911  0
H  H15  1  0.19157502  0.57646120  0.33229202  1  0  0.104287  0  0.971473  0  0  0.112251  0  1.039024  0  0  0.115998  0  1.036674  0  0  0.101476  0.109496  0  1.040964  0
H  H16  1  0.51596419  0.04239200  0.58717383  1  0  0.112994  0  0.950493  0  0  0.121488  0  1.016831  0  0  0.125111  0  1.013791  0  0  0.107568  0.118848  0  1.019085  0
H  H17  1  0.98404185  0.54239169  0.91282626  1  0  0.113016  0  0.950495  0  0  0.1215  0  1.016849  0  0  0.125129  0  1.013792  0  0  0.107521  0.118856  0  1.019105  0
H  H18  1  0.48403353  0.95760988  0.41282622  1  0  0.112975  0  0.950516  0  0  0.121477  0  1.016838  0  0  0.125095  0  1.01381  0  0  0.107545  0.118836  0  1.019087  0
H  H19  1  0.01596129  0.45760921  0.08717210  1  0  0.113016  0  0.950431  0  0  0.121509  0  1.016787  0  0  0.125133  0  1.013748  0  0  0.107562  0.118869  0  1.019043  0
H  H20  1  0.05466496  0.07424676  0.71798287  1  0  0.082157  0  0.942179  0  0  0.101346  0  1.000742  0  0  0.100163  0  1.002871  0  0  0.114938  0.102089  0  0.999293  0
H  H21  1  0.44534369  0.57424767  0.78202027  1  0  0.082191  0  0.942121  0  0  0.101347  0  1.000727  0  0  0.100165  0  1.002854  0  0  0.114913  0.10209  0  0.999272  0
H  H22  1  0.94533138  0.92575316  0.28201899  1  0  0.082203  0  0.942108  0  0  0.101374  0  1.000717  0  0  0.100192  0  1.002845  0  0  0.114971  0.102113  0  0.999264  0
H  H23  1  0.55466075  0.42575420  0.21798057  1  0  0.082187  0  0.94212  0  0  0.101352  0  1.000722  0  0  0.100169  0  1.002851  0  0  0.114929  0.102097  0  0.999268  0
H  H24  1  0.95476366  0.93453277  0.75794343  1  0  0.07105  0  0.922864  0  0  0.089847  0  0.984974  0  0  0.089599  0  0.98459  0  0  0.108531  0.089863  0  0.985463  0
H  H25  1  0.54523832  0.43453367  0.74205598  1  0  0.071039  0  0.922932  0  0  0.089864  0  0.985005  0  0  0.089614  0  0.984618  0  0  0.108527  0.089876  0  0.985498  0
H  H26  1  0.04523273  0.06546911  0.24205537  1  0  0.071034  0  0.922767  0  0  0.089842  0  0.9849  0  0  0.089592  0  0.984514  0  0  0.10854  0.089858  0  0.985385  0
H  H27  1  0.45475940  0.56546723  0.25794408  1  0  0.071047  0  0.922851  0  0  0.089828  0  0.984989  0  0  0.089579  0  0.984605  0  0  0.108549  0.089847  0  0.985471  0
H  H28  1  0.21950427  0.02093875  0.85986371  1  0  0.101096  0  0.948334  0  0  0.114979  0  1.003322  0  0  0.116654  0  1.003184  0  0  0.109115  0.113612  0  1.003673  0
H  H29  1  0.28049979  0.52093729  0.64013939  1  0  0.101081  0  0.948199  0  0  0.114964  0  1.003191  0  0  0.116637  0  1.003054  0  0  0.109125  0.113599  0  1.003544  0
H  H30  1  0.78049478  0.97906117  0.14013699  1  0  0.101106  0  0.948251  0  0  0.114984  0  1.003242  0  0  0.116657  0  1.003106  0  0  0.109113  0.113617  0  1.00359  0
H  H31  1  0.71949652  0.47906361  0.35986369  1  0  0.101126  0  0.94831  0  0  0.11501  0  1.003288  0  0  0.116684  0  1.00315  0  0  0.109151  0.11365  0  1.003634  0
H  H32  1  0.25095803  0.11910780  0.00143620  1  0  0.119544  0  0.947853  0  0  0.129801  0  1.003587  0  0  0.133529  0  1.00204  0  0  0.10969  0.127094  0  1.004892  0
H  H33  1  0.24904669  0.61911273  0.49856716  1  0  0.119562  0  0.947883  0  0  0.129825  0  1.003602  0  0  0.133553  0  1.002053  0  0  0.109718  0.127116  0  1.004911  0
H  H34  1  0.74904509  0.88088821  0.99856338  1  0  0.11957  0  0.947814  0  0  0.129822  0  1.003548  0  0  0.13355  0  1.002  0  0  0.109718  0.127115  0  1.004852  0
H  H35  1  0.75094562  0.38088719  0.50143398  1  0  0.119564  0  0.947852  0  0  0.129795  0  1.003618  0  0  0.133522  0  1.002071  0  0  0.109713  0.127093  0  1.00492  0
H  H36  1  0.99022146  0.24358815  0.05336238  1  0  0.09439  0  0.958648  0  0  0.105334  0  1.01798  0  0  0.108221  0  1.015079  0  0  0.120375  0.103127  0  1.020231  0
H  H37  1  0.50977403  0.74359878  0.44664487  1  0  0.094483  0  0.958612  0  0  0.105424  0  1.017946  0  0  0.10832  0  1.015048  0  0  0.120372  0.103218  0  1.02018  0
H  H38  1  0.00978157  0.75640590  0.94664148  1  0  0.094483  0  0.958604  0  0  0.10542  0  1.01794  0  0  0.108317  0  1.015042  0  0  0.120372  0.103214  0  1.020187  0
H  H39  1  0.49021564  0.25640114  0.55335376  1  0  0.094512  0  0.958626  0  0  0.105451  0  1.017955  0  0  0.10835  0  1.015052  0  0  0.12038  0.103249  0  1.020195  0
H  H40  1  0.69421953  0.19757895  0.83396670  1  0  0.09464  0  0.936656  0  0  0.101965  0  1.002441  0  0  0.104797  0  1.000124  0  0  0.119663  0.099678  0  1.004502  0
H  H41  1  0.80578807  0.69758243  0.66603504  1  0  0.094581  0  0.936712  0  0  0.101987  0  1.002414  0  0  0.104834  0  1.000079  0  0  0.119655  0.099693  0  1.004483  0
H  H42  1  0.30578484  0.80241706  0.16603780  1  0  0.094569  0  0.936684  0  0  0.10198  0  1.002397  0  0  0.104827  0  1.000063  0  0  0.119663  0.099695  0  1.004461  0
H  H43  1  0.19421372  0.30242042  0.33396329  1  0  0.094531  0  0.936741  0  0  0.101939  0  1.002449  0  0  0.104784  0  1.000117  0  0  0.119645  0.099657  0  1.004513  0
C  C44  1  0.33413515  0.92028077  0.65133253  1  0  -0.070616  0  3.807023  0  0  -0.046078  0  4.043719  0  0  -0.054575  0  4.067919  0  0  -0.024893  -0.04069  0  4.027533  0
C  C45  1  0.16587171  0.42027122  0.84866759  1  0  -0.070567  0  3.807049  0  0  -0.046008  0  4.043725  0  0  -0.054505  0  4.067928  0  0  -0.02481  -0.040618  0  4.027529  0
C  C46  1  0.66586256  0.07972403  0.34866813  1  0  -0.070668  0  3.807043  0  0  -0.046119  0  4.043718  0  0  -0.054618  0  4.067919  0  0  -0.02487  -0.040725  0  4.02752  0
C  C47  1  0.83413279  0.57972577  0.15133019  1  0  -0.070893  0  3.807232  0  0  -0.046279  0  4.043912  0  0  -0.054779  0  4.068114  0  0  -0.024895  -0.040897  0  4.027732  0
C  C48  1  0.30434231  0.85085650  0.72318863  1  0  -0.109188  0  3.749036  0  0  -0.151647  0  4.009631  0  0  -0.149879  0  4.027995  0  0  -0.095766  -0.152498  0  3.997099  0
C  C49  1  0.19565844  0.35084931  0.77681267  1  0  -0.109099  0  3.749153  0  0  -0.151474  0  4.009715  0  0  -0.149707  0  4.028082  0  0  -0.095693  -0.152325  0  3.997187  0
C  C50  1  0.69565406  0.14914636  0.27681200  1  0  -0.109194  0  3.748984  0  0  -0.151608  0  4.009578  0  0  -0.149839  0  4.027944  0  0  -0.09578  -0.152453  0  3.997044  0
C  C51  1  0.80434199  0.64914669  0.22318684  1  0  -0.109103  0  3.748965  0  0  -0.15157  0  4.009546  0  0  -0.149806  0  4.027917  0  0  -0.09577  -0.152416  0  3.997009  0
C  C52  1  0.43385643  0.85346711  0.78758579  1  0  -0.062208  0  3.834393  0  0  -0.038058  0  4.07399  0  0  -0.045356  0  4.096335  0  0  -0.02984  -0.033474  0  4.059176  0
C  C53  1  0.06614568  0.35345846  0.71241554  1  0  -0.062341  0  3.834483  0  0  -0.038253  0  4.074178  0  0  -0.04555  0  4.09652  0  0  -0.030025  -0.03368  0  4.059375  0
C  C54  1  0.56613860  0.14653574  0.21241420  1  0  -0.062211  0  3.834417  0  0  -0.03807  0  4.074024  0  0  -0.045371  0  4.096369  0  0  -0.029876  -0.033481  0  4.059215  0
C  C55  1  0.93385608  0.64653462  0.28758462  1  0  -0.062226  0  3.834338  0  0  -0.038091  0  4.073968  0  0  -0.045388  0  4.096311  0  0  -0.029858  -0.033498  0  4.059142  0
C  C56  1  0.59365326  0.92397880  0.78075546  1  0  -0.174778  0  3.683201  0  0  -0.209066  0  3.938596  0  0  -0.210312  0  3.956259  0  0  -0.096812  -0.208098  0  3.927121  0
C  C57  1  0.90634992  0.42397298  0.71924582  1  0  -0.174714  0  3.682961  0  0  -0.209022  0  3.938376  0  0  -0.210266  0  3.956037  0  0  -0.09676  -0.208031  0  3.92692  0
C  C58  1  0.40634310  0.07602210  0.21924517  1  0  -0.174779  0  3.683099  0  0  -0.209082  0  3.938511  0  0  -0.210327  0  3.956175  0  0  -0.096791  -0.20812  0  3.92705  0
C  C59  1  0.09365185  0.57602302  0.28075373  1  0  -0.174727  0  3.683201  0  0  -0.209081  0  3.938586  0  0  -0.210317  0  3.956242  0  0  -0.096855  -0.208087  0  3.927146  0
C  C60  1  0.62390723  0.99572015  0.70907599  1  0  0.239668  0  3.83517  0  0  0.23778  0  4.086268  0  0  0.245067  0  4.107075  0  0  0.09671  0.232525  0  4.071671  0
C  C61  1  0.87609936  0.49571587  0.79092650  1  0  0.239538  0  3.835188  0  0  0.237687  0  4.086259  0  0  0.24497  0  4.107075  0  0  0.096678  0.232419  0  4.071676  0
C  C62  1  0.37609182  0.00428271  0.29092471  1  0  0.239696  0  3.835057  0  0  0.23785  0  4.086104  0  0  0.245137  0  4.106911  0  0  0.096715  0.23258  0  4.071532  0
C  C63  1  0.12390374  0.50428307  0.20907431  1  0  0.239447  0  3.835203  0  0  0.237651  0  4.086221  0  0  0.244937  0  4.107032  0  0  0.096673  0.232389  0  4.071641  0
C  C64  1  0.49268151  0.99124219  0.64413097  1  0  -0.126677  0  3.64502  0  0  -0.159216  0  3.895768  0  0  -0.158924  0  3.912192  0  0  -0.082007  -0.158702  0  3.884145  0
C  C65  1  0.00732602  0.49123857  0.85587213  1  0  -0.126709  0  3.644929  0  0  -0.15926  0  3.89567  0  0  -0.158967  0  3.912094  0  0  -0.081986  -0.158736  0  3.884048  0
C  C66  1  0.50731619  0.00875969  0.35587031  1  0  -0.126629  0  3.644959  0  0  -0.159196  0  3.895709  0  0  -0.158903  0  3.912128  0  0  -0.081976  -0.15867  0  3.884075  0
C  C67  1  0.99267843  0.50876135  0.14412810  1  0  -0.126472  0  3.644798  0  0  -0.159084  0  3.895552  0  0  -0.158791  0  3.911972  0  0  -0.081954  -0.158559  0  3.883929  0
C  C68  1  0.19264685  0.91953356  0.58356462  1  0  0.67483  0  3.853994  0  0  0.622146  0  4.142363  0  0  0.657918  0  4.133682  0  0  0.221816  0.597643  0  4.147942  0
C  C69  1  0.30736274  0.41952651  0.91643312  1  0  0.674738  0  3.853992  0  0  0.62198  0  4.142443  0  0  0.657752  0  4.13376  0  0  0.221714  0.597479  0  4.148022  0
C  C70  1  0.80735360  0.08047222  0.41643367  1  0  0.674937  0  3.853929  0  0  0.62226  0  4.142247  0  0  0.658033  0  4.133564  0  0  0.221851  0.597754  0  4.147835  0
C  C71  1  0.69264713  0.58047439  0.08356540  1  0  0.674972  0  3.853885  0  0  0.622195  0  4.142336  0  0  0.657967  0  4.133652  0  0  0.221833  0.597699  0  4.147916  0
C  C72  1  0.39512762  0.78057209  0.86361246  1  0  0.611387  0  3.94504  0  0  0.565852  0  4.231705  0  0  0.599755  0  4.224888  0  0  0.189652  0.542909  0  4.235516  0
C  C73  1  0.10487785  0.28056978  0.63638539  1  0  0.611217  0  3.945097  0  0  0.565697  0  4.231765  0  0  0.5996  0  4.224953  0  0  0.189575  0.54276  0  4.235572  0
C  C74  1  0.60487010  0.21942686  0.13638759  1  0  0.611315  0  3.945415  0  0  0.565788  0  4.232069  0  0  0.599691  0  4.225257  0  0  0.189675  0.542826  0  4.235897  0
C  C75  1  0.89512261  0.71942818  0.36361229  1  0  0.611335  0  3.945153  0  0  0.565846  0  4.231759  0  0  0.599749  0  4.224944  0  0  0.189692  0.542893  0  4.235578  0
C  C76  1  0.93836327  0.04146507  0.75139804  1  0  0.005777  0  3.721794  0  0  -0.060631  0  3.979324  0  0  -0.055104  0  3.99298  0  0  -0.054655  -0.064196  0  3.969765  0
C  C77  1  0.56164005  0.54146398  0.74860321  1  0  0.005694  0  3.721773  0  0  -0.060696  0  3.979361  0  0  -0.055161  0  3.993003  0  0  -0.054649  -0.064261  0  3.969795  0
C  C78  1  0.06163440  0.95853582  0.24860446  1  0  0.005732  0  3.721508  0  0  -0.060715  0  3.979198  0  0  -0.055183  0  3.992851  0  0  -0.054735  -0.064276  0  3.96963  0
C  C79  1  0.43836038  0.45853594  0.25139630  1  0  0.005686  0  3.721564  0  0  -0.060696  0  3.979209  0  0  -0.055164  0  3.992856  0  0  -0.054691  -0.064255  0  3.96964  0
C  C80  1  0.95354932  0.10062647  0.83620120  1  0  0.022953  0  3.719981  0  0  0.049997  0  3.957345  0  0  0.044375  0  3.982603  0  0  0.000184  0.053387  0  3.940556  0
C  C81  1  0.54645325  0.60063048  0.66380055  1  0  0.023016  0  3.719804  0  0  0.049983  0  3.957277  0  0  0.044358  0  3.982539  0  0  0.00017  0.053382  0  3.940479  0
C  C82  1  0.04645107  0.89937051  0.16380015  1  0  0.023013  0  3.719719  0  0  0.050015  0  3.957197  0  0  0.044393  0  3.98246  0  0  0.000213  0.053407  0  3.940407  0
C  C83  1  0.45354580  0.39937237  0.33620076  1  0  0.023077  0  3.719679  0  0  0.050022  0  3.957198  0  0  0.044399  0  3.982459  0  0  0.000156  0.053419  0  3.940406  0
C  C84  1  0.11110877  0.07856204  0.88453624  1  0  -0.036005  0  3.667651  0  0  -0.062377  0  3.912245  0  0  -0.059214  0  3.931131  0  0  -0.059627  -0.064236  0  3.899652  0
C  C85  1  0.38889324  0.57856616  0.61546428  1  0  -0.035841  0  3.667821  0  0  -0.062182  0  3.912401  0  0  -0.059018  0  3.931287  0  0  -0.059541  -0.064048  0  3.899816  0
C  C86  1  0.88888896  0.92143494  0.11546321  1  0  -0.036049  0  3.667816  0  0  -0.062384  0  3.912398  0  0  -0.059221  0  3.931283  0  0  -0.059599  -0.064241  0  3.899798  0
C  C87  1  0.61110175  0.42143474  0.38453754  1  0  -0.036022  0  3.668092  0  0  -0.062354  0  3.91268  0  0  -0.05919  0  3.931566  0  0  -0.059583  -0.064216  0  3.90009  0
C  C88  1  0.12875747  0.13117994  0.96277088  1  0  -0.104548  0  3.729812  0  0  -0.117552  0  3.986386  0  0  -0.124935  0  4.008156  0  0  -0.081713  -0.112859  0  3.971894  0
C  C89  1  0.37124095  0.63118326  0.53723437  1  0  -0.104689  0  3.73019  0  0  -0.117673  0  3.98674  0  0  -0.125054  0  4.00851  0  0  -0.081821  -0.112987  0  3.972257  0
C  C90  1  0.87124290  0.86881607  0.03723169  1  0  -0.104472  0  3.7301  0  0  -0.117451  0  3.98664  0  0  -0.124833  0  4.008411  0  0  -0.081747  -0.112761  0  3.972145  0
C  C91  1  0.62875406  0.36881764  0.46276684  1  0  -0.104552  0  3.730296  0  0  -0.117519  0  3.986837  0  0  -0.124901  0  4.00861  0  0  -0.081777  -0.112831  0  3.972348  0
C  C92  1  0.98666059  0.20330665  0.99180624  1  0  0.124386  0  3.687264  0  0  0.086599  0  3.943633  0  0  0.093318  0  3.962846  0  0  0.044208  0.082357  0  3.930593  0
C  C93  1  0.51333762  0.70331395  0.50819647  1  0  0.124174  0  3.687066  0  0  0.086393  0  3.943415  0  0  0.093093  0  3.962638  0  0  0.044181  0.082158  0  3.930378  0
C  C94  1  0.01333979  0.79668838  0.00819571  1  0  0.123949  0  3.687211  0  0  0.086169  0  3.943569  0  0  0.092869  0  3.962792  0  0  0.044087  0.081929  0  3.930533  0
C  C95  1  0.48665474  0.29668596  0.49180223  1  0  0.124046  0  3.687261  0  0  0.08627  0  3.943592  0  0  0.092971  0  3.962819  0  0  0.044133  0.082039  0  3.930553  0
C  C96  1  0.81845327  0.17571862  0.86933471  1  0  0.079403  0  3.665087  0  0  0.038879  0  3.915587  0  0  0.045242  0  3.934398  0  0  0.045312  0.034687  0  3.903225  0
C  C97  1  0.68155278  0.67572251  0.63066579  1  0  0.079381  0  3.66498  0  0  0.038826  0  3.91553  0  0  0.045174  0  3.934333  0  0  0.045354  0.034643  0  3.903169  0
C  C98  1  0.18154982  0.82427935  0.13066609  1  0  0.079425  0  3.664777  0  0  0.03883  0  3.91536  0  0  0.045176  0  3.934163  0  0  0.045313  0.034646  0  3.903012  0
C  C99  1  0.31844496  0.32427936  0.36933304  1  0  0.079476  0  3.664952  0  0  0.038924  0  3.915484  0  0  0.045272  0  3.934291  0  0  0.045387  0.034731  0  3.903134  0
N  N100  1  0.83395751  0.22493424  0.94609775  1  0  -0.342075  0  3.327339  0  0  -0.254702  0  3.607996  0  0  -0.275783  0  3.625193  0  0  -0.330501  -0.240548  0  3.596127  0
N  N101  1  0.66604364  0.72493636  0.55390378  1  0  -0.34186  0  3.326992  0  0  -0.254531  0  3.607698  0  0  -0.275601  0  3.624897  0  0  -0.330495  -0.240392  0  3.595834  0
N  N102  1  0.16605098  0.77506275  0.05390257  1  0  -0.341729  0  3.326804  0  0  -0.254376  0  3.607501  0  0  -0.275442  0  3.624695  0  0  -0.330397  -0.240238  0  3.595649  0
N  N103  1  0.33395144  0.27506258  0.44609377  1  0  -0.341874  0  3.327051  0  0  -0.254518  0  3.607728  0  0  -0.275592  0  3.624934  0  0  -0.330462  -0.240376  0  3.595867  0
N  N104  1  0.77676601  0.07089930  0.70231753  1  0  -0.4087  0  3.307311  0  0  -0.356272  0  3.558104  0  0  -0.37545  0  3.57176  0  0  -0.44452  -0.34245  0  3.548457  0
N  N105  1  0.72324030  0.57089795  0.79768375  1  0  -0.408612  0  3.307297  0  0  -0.356237  0  3.558096  0  0  -0.375416  0  3.57175  0  0  -0.4445  -0.342414  0  3.548452  0
N  N106  1  0.22323168  0.92910159  0.29768436  1  0  -0.408697  0  3.307204  0  0  -0.356301  0  3.558005  0  0  -0.375484  0  3.571662  0  0  -0.444536  -0.342481  0  3.548359  0
N  N107  1  0.27676148  0.42910001  0.20231519  1  0  -0.408595  0  3.307219  0  0  -0.356245  0  3.557983  0  0  -0.375428  0  3.571642  0  0  -0.444519  -0.342427  0  3.548342  0
O  O108  1  0.21681867  0.98467075  0.51808742  1  0  -0.665343  0  2.066598  0  0  -0.598656  0  2.350738  0  0  -0.624224  0  2.331529  0  0  -0.332241  -0.580859  0  2.363675  0
O  O109  1  0.28320234  0.48466431  0.98191174  1  0  -0.665435  0  2.066727  0  0  -0.59865  0  2.35084  0  0  -0.624221  0  2.331632  0  0  -0.332255  -0.580853  0  2.363784  0
O  O110  1  0.78318983  0.01533406  0.48191229  1  0  -0.665562  0  2.066697  0  0  -0.598783  0  2.350758  0  0  -0.624352  0  2.331544  0  0  -0.332285  -0.580979  0  2.363698  0
O  O111  1  0.71680347  0.51533366  0.01808791  1  0  -0.665557  0  2.066608  0  0  -0.598766  0  2.350732  0  0  -0.624336  0  2.33152  0  0  -0.332332  -0.580968  0  2.363674  0
O  O112  1  0.05158091  0.85157754  0.59504565  1  0  -0.621225  0  2.049188  0  0  -0.545753  0  2.314104  0  0  -0.574129  0  2.299453  0  0  -0.309873  -0.52602  0  2.323585  0
O  O113  1  0.44842398  0.35157033  0.90495086  1  0  -0.621146  0  2.049044  0  0  -0.545673  0  2.313993  0  0  -0.574048  0  2.299338  0  0  -0.309838  -0.52594  0  2.323477  0
O  O114  1  0.94841821  0.14842629  0.40495199  1  0  -0.621191  0  2.049146  0  0  -0.545777  0  2.314103  0  0  -0.574142  0  2.299424  0  0  -0.309898  -0.526051  0  2.323594  0
O  O115  1  0.55158325  0.64843155  0.09504516  1  0  -0.621178  0  2.04907  0  0  -0.545697  0  2.314017  0  0  -0.57407  0  2.299363  0  0  -0.309861  -0.525968  0  2.323504  0
O  O116  1  0.24054882  0.73199240  0.87101716  1  0  -0.627322  0  1.993254  0  0  -0.574213  0  2.231683  0  0  -0.60067  0  2.22463  0  0  -0.315819  -0.555602  0  2.23583  0
O  O117  1  0.25945887  0.23199195  0.62898022  1  0  -0.627259  0  1.99315  0  0  -0.574134  0  2.231576  0  0  -0.600592  0  2.224524  0  0  -0.315737  -0.55553  0  2.235738  0
O  O118  1  0.75944885  0.26801241  0.12898534  1  0  -0.627287  0  1.993329  0  0  -0.574175  0  2.231738  0  0  -0.60063  0  2.224681  0  0  -0.315808  -0.555567  0  2.235915  0
O  O119  1  0.74054567  0.76801090  0.37101573  1  0  -0.627284  0  1.993177  0  0  -0.574201  0  2.231601  0  0  -0.600658  0  2.224548  0  0  -0.315831  -0.555596  0  2.23576  0
O  O120  1  0.52022479  0.76726825  0.92099212  1  0  -0.649087  0  1.974742  0  0  -0.579897  0  2.224561  0  0  -0.60727  0  2.210078  0  0  -0.330965  -0.560729  0  2.233836  0
O  O121  1  0.97978359  0.26726529  0.57900586  1  0  -0.648968  0  1.974856  0  0  -0.579797  0  2.224715  0  0  -0.60716  0  2.21021  0  0  -0.330934  -0.560631  0  2.233988  0
O  O122  1  0.47977969  0.23272580  0.07900627  1  0  -0.64911  0  1.975  0  0  -0.579895  0  2.224778  0  0  -0.607262  0  2.210283  0  0  -0.331013  -0.560734  0  2.234093  0
O  O123  1  0.02021549  0.73273071  0.42099362  1  0  -0.649056  0  1.974926  0  0  -0.579911  0  2.224772  0  0  -0.607282  0  2.210282  0  0  -0.330992  -0.560739  0  2.234041  0
