# generated using pymatgen
data_ZnH9C12Br2N5
_symmetry_space_group_name_H-M   'P 1'
_cell_length_a   5.49315931
_cell_length_b   11.82870711
_cell_length_c   22.12437815
_cell_angle_alpha   88.81219812
_cell_angle_beta   89.99983148
_cell_angle_gamma   89.99950757
_symmetry_Int_Tables_number   1
_chemical_formula_structural   ZnH9C12Br2N5
_chemical_formula_sum   'Zn4 H36 C48 Br8 N20'
_cell_volume   1437.26620614
_cell_formula_units_Z   4
loop_
 _symmetry_equiv_pos_site_id
 _symmetry_equiv_pos_as_xyz
  1  'x, y, z'
loop_
 _atom_site_type_symbol
 _atom_site_label
 _atom_site_symmetry_multiplicity
 _atom_site_fract_x
 _atom_site_fract_y
 _atom_site_fract_z
 _atom_site_occupancy
 _atom_site_hle17_bader_spin_density
 _atom_site_hle17_ddec_charge
 _atom_site_hle17_ddec_spin_density
 _atom_site_hle17_ddec_sum_bond_order
 _atom_site_hle17_magmom
 _atom_site_hse06_10hf_bader_spin_density
 _atom_site_hse06_10hf_ddec_charge
 _atom_site_hse06_10hf_ddec_spin_density
 _atom_site_hse06_10hf_ddec_sum_bond_order
 _atom_site_hse06_10hf_magmom
 _atom_site_hse06_bader_spin_density
 _atom_site_hse06_ddec_charge
 _atom_site_hse06_ddec_spin_density
 _atom_site_hse06_ddec_sum_bond_order
 _atom_site_hse06_magmom
 _atom_site_pbe_bader_spin_density
 _atom_site_pbe_cm5_charge
 _atom_site_pbe_ddec_charge
 _atom_site_pbe_ddec_spin_density
 _atom_site_pbe_ddec_sum_bond_order
 _atom_site_pbe_magmom
Zn  Zn0  1  0.09849754  0.70574433  0.62591056  1  0  0.764592  0  2.12179  0  0  0.584953  0  2.604563  0  0  0.626639  0  2.562703  0  0  0.513218  0.55639  0  2.632886  0
Zn  Zn1  1  0.59848921  0.29425501  0.87408750  1  0  0.764735  0  2.121911  0  0  0.5851  0  2.604714  0  0  0.62678  0  2.562853  0  0  0.513293  0.556533  0  2.633042  0
Zn  Zn2  1  0.90146703  0.29428812  0.37408468  1  0  0.764555  0  2.122137  0  0  0.58494  0  2.60501  0  0  0.626619  0  2.563147  0  0  0.513217  0.556386  0  2.633324  0
Zn  Zn3  1  0.40146990  0.70571973  0.12591842  1  0  0.76461  0  2.122165  0  0  0.584962  0  2.605065  0  0  0.62663  0  2.563198  0  0  0.513228  0.556415  0  2.633385  0
H  H4  1  0.95626174  0.97942748  0.36847825  1  0  0.275632  0  0.923688  0  0  0.253435  0  0.99794  0  0  0.261943  0  0.990619  0  0  0.302768  0.247412  0  1.003192  0
H  H5  1  0.45624236  0.02058028  0.13152123  1  0  0.275555  0  0.923523  0  0  0.253385  0  0.99775  0  0  0.26188  0  0.990441  0  0  0.302722  0.247365  0  1.003006  0
H  H6  1  0.04368825  0.02059981  0.63152109  1  0  0.275562  0  0.923087  0  0  0.253356  0  0.997442  0  0  0.261851  0  0.990112  0  0  0.302603  0.247332  0  1.0027  0
H  H7  1  0.54371492  0.97939969  0.86847699  1  0  0.275479  0  0.923151  0  0  0.25332  0  0.997442  0  0  0.261799  0  0.990123  0  0  0.302641  0.247288  0  1.002708  0
H  H8  1  0.98178739  0.89711186  0.54308358  1  0  0.067241  0  0.981512  0  0  0.071333  0  1.056555  0  0  0.0744  0  1.052882  0  0  0.101466  0.069092  0  1.059226  0
H  H9  1  0.48179099  0.10288301  0.95691303  1  0  0.067113  0  0.981607  0  0  0.071293  0  1.056572  0  0  0.074368  0  1.052881  0  0  0.101509  0.069051  0  1.059243  0
H  H10  1  0.01820630  0.10294507  0.45691380  1  0  0.067583  0  0.981457  0  0  0.071572  0  1.056539  0  0  0.074642  0  1.052864  0  0  0.101541  0.069331  0  1.059207  0
H  H11  1  0.51820998  0.89706232  0.04308399  1  0  0.067519  0  0.981514  0  0  0.071555  0  1.056545  0  0  0.074624  0  1.052873  0  0  0.10149  0.069314  0  1.059215  0
H  H12  1  0.66477139  0.94823433  0.46663315  1  0  0.11169  0  0.963851  0  0  0.116136  0  1.036952  0  0  0.119922  0  1.034792  0  0  0.101512  0.113443  0  1.038614  0
H  H13  1  0.16477858  0.05176078  0.03336512  1  0  0.11163  0  0.963924  0  0  0.116112  0  1.037003  0  0  0.119911  0  1.034831  0  0  0.101494  0.113412  0  1.038681  0
H  H14  1  0.33523323  0.05182007  0.53336335  1  0  0.111575  0  0.963576  0  0  0.116  0  1.036745  0  0  0.119724  0  1.034649  0  0  0.101601  0.113337  0  1.038389  0
H  H15  1  0.83525152  0.94818446  0.96663598  1  0  0.111544  0  0.963582  0  0  0.11607  0  1.036612  0  0  0.119797  0  1.034512  0  0  0.10159  0.113374  0  1.038283  0
H  H16  1  0.41869656  0.60185345  0.47716478  1  0  0.117938  0  0.94373  0  0  0.128116  0  1.003105  0  0  0.131263  0  1.001817  0  0  0.109103  0.125844  0  1.004228  0
H  H17  1  0.91867774  0.39813419  0.02283209  1  0  0.117992  0  0.943615  0  0  0.128184  0  1.002981  0  0  0.131331  0  1.001694  0  0  0.109114  0.125911  0  1.004101  0
H  H18  1  0.58133172  0.39819129  0.52280961  1  0  0.117872  0  0.943781  0  0  0.128122  0  1.003057  0  0  0.131265  0  1.001776  0  0  0.109004  0.12585  0  1.004179  0
H  H19  1  0.08135600  0.60181564  0.97719158  1  0  0.117889  0  0.943764  0  0  0.128152  0  1.003025  0  0  0.131294  0  1.001745  0  0  0.108994  0.125881  0  1.004147  0
H  H20  1  0.74120283  0.56580412  0.55569684  1  0  0.078045  0  0.951855  0  0  0.084469  0  1.020665  0  0  0.087502  0  1.017164  0  0  0.109342  0.082233  0  1.023225  0
H  H21  1  0.24117705  0.43419228  0.94430029  1  0  0.077999  0  0.951782  0  0  0.084459  0  1.020585  0  0  0.087494  0  1.017082  0  0  0.109318  0.082222  0  1.023147  0
H  H22  1  0.25879086  0.43424282  0.44429291  1  0  0.078329  0  0.951445  0  0  0.084787  0  1.020229  0  0  0.087823  0  1.016724  0  0  0.109456  0.082545  0  1.0228  0
H  H23  1  0.75883120  0.56576032  0.05571252  1  0  0.078275  0  0.951479  0  0  0.084774  0  1.020232  0  0  0.087812  0  1.016727  0  0  0.109407  0.082535  0  1.022798  0
H  H24  1  0.09948291  0.62740327  0.27719393  1  0  0.123977  0  0.927108  0  0  0.133347  0  0.986038  0  0  0.137078  0  0.984137  0  0  0.113501  0.130655  0  0.987574  0
H  H25  1  0.59945005  0.37260901  0.22280156  1  0  0.124014  0  0.927043  0  0  0.133317  0  0.98603  0  0  0.137044  0  0.984125  0  0  0.113487  0.130627  0  0.987561  0
H  H26  1  0.90051624  0.37263069  0.72280990  1  0  0.124016  0  0.927304  0  0  0.133388  0  0.986225  0  0  0.137122  0  0.984325  0  0  0.113519  0.130695  0  0.987764  0
H  H27  1  0.40054182  0.62737018  0.77719394  1  0  0.124004  0  0.927162  0  0  0.133306  0  0.986148  0  0  0.137037  0  0.984246  0  0  0.113501  0.130617  0  0.987684  0
H  H28  1  0.83147639  0.59156270  0.18867721  1  0  0.081386  0  0.957933  0  0  0.088426  0  1.025251  0  0  0.091496  0  1.022114  0  0  0.107266  0.086125  0  1.027628  0
H  H29  1  0.33145731  0.40844033  0.31132367  1  0  0.08143  0  0.957909  0  0  0.088456  0  1.025218  0  0  0.091526  0  1.022081  0  0  0.107299  0.086155  0  1.027593  0
H  H30  1  0.16850820  0.40844404  0.81133443  1  0  0.081358  0  0.957672  0  0  0.088395  0  1.024982  0  0  0.091465  0  1.021847  0  0  0.107353  0.086094  0  1.02736  0
H  H31  1  0.66851635  0.59154827  0.68866636  1  0  0.081457  0  0.957641  0  0  0.088457  0  1.02498  0  0  0.091528  0  1.021844  0  0  0.10736  0.086155  0  1.027357  0
H  H32  1  0.39456940  0.86720925  0.22663608  1  0  0.065807  0  0.989092  0  0  0.071138  0  1.06015  0  0  0.074146  0  1.057574  0  0  0.095675  0.068925  0  1.062064  0
H  H33  1  0.89458675  0.13279007  0.27337159  1  0  0.065814  0  0.989104  0  0  0.071153  0  1.060151  0  0  0.07416  0  1.057576  0  0  0.095688  0.068946  0  1.062058  0
H  H34  1  0.60541519  0.13280655  0.77334749  1  0  0.065952  0  0.989108  0  0  0.071225  0  1.060209  0  0  0.074242  0  1.05762  0  0  0.09566  0.068938  0  1.062193  0
H  H35  1  0.10541786  0.86719036  0.72664470  1  0  0.065859  0  0.989082  0  0  0.071151  0  1.060169  0  0  0.074166  0  1.057584  0  0  0.095641  0.0689  0  1.062119  0
H  H36  1  0.64223604  0.91555139  0.31633518  1  0  0.10402  0  0.973886  0  0  0.111646  0  1.040132  0  0  0.115354  0  1.038613  0  0  0.096921  0.108962  0  1.041425  0
H  H37  1  0.14224514  0.08445554  0.18366710  1  0  0.103934  0  0.973955  0  0  0.111584  0  1.04018  0  0  0.11529  0  1.038663  0  0  0.096951  0.108899  0  1.041475  0
H  H38  1  0.35775947  0.08449673  0.68363919  1  0  0.103881  0  0.974046  0  0  0.111558  0  1.040272  0  0  0.115261  0  1.03876  0  0  0.096973  0.108871  0  1.04157  0
H  H39  1  0.85777040  0.91549680  0.81635747  1  0  0.103904  0  0.974061  0  0  0.111579  0  1.040285  0  0  0.11528  0  1.038778  0  0  0.097013  0.10889  0  1.041584  0
C  C40  1  0.85272957  0.83451734  0.52743121  1  0  0.13969  0  3.711654  0  0  0.103413  0  3.96863  0  0  0.111549  0  3.985164  0  0  0.037141  0.098114  0  3.957423  0
C  C41  1  0.35272231  0.16547878  0.97256408  1  0  0.139921  0  3.711506  0  0  0.103579  0  3.968478  0  0  0.111715  0  3.985019  0  0  0.03716  0.098275  0  3.957277  0
C  C42  1  0.14728779  0.16553710  0.47256348  1  0  0.138766  0  3.71219  0  0  0.102741  0  3.968979  0  0  0.110871  0  3.985498  0  0  0.036836  0.097447  0  3.957773  0
C  C43  1  0.64729323  0.83446900  0.02743745  1  0  0.13878  0  3.712053  0  0  0.102723  0  3.968879  0  0  0.110849  0  3.985398  0  0  0.036932  0.097429  0  3.957666  0
C  C44  1  0.67798503  0.86202221  0.48458742  1  0  -0.13151  0  3.692905  0  0  -0.15641  0  3.950271  0  0  -0.16295  0  3.969347  0  0  -0.082648  -0.152247  0  3.9376  0
C  C45  1  0.17796868  0.13796954  0.01540815  1  0  -0.131564  0  3.692766  0  0  -0.156486  0  3.95011  0  0  -0.163039  0  3.969178  0  0  -0.082705  -0.152324  0  3.937441  0
C  C46  1  0.32206145  0.13802820  0.51539824  1  0  -0.131005  0  3.692605  0  0  -0.156091  0  3.950208  0  0  -0.162579  0  3.969318  0  0  -0.082708  -0.15197  0  3.937521  0
C  C47  1  0.82208690  0.86197711  0.98460605  1  0  -0.131091  0  3.69259  0  0  -0.15619  0  3.950172  0  0  -0.162677  0  3.969282  0  0  -0.082771  -0.152039  0  3.937496  0
C  C48  1  0.51653265  0.77833120  0.46550571  1  0  0.06928  0  3.748146  0  0  0.082807  0  3.977813  0  0  0.08699  0  3.997733  0  0  0.018096  0.080091  0  3.964334  0
C  C49  1  0.01651763  0.22166014  0.03449171  1  0  0.069365  0  3.748145  0  0  0.082853  0  3.977884  0  0  0.087037  0  3.997806  0  0  0.01812  0.080137  0  3.964406  0
C  C50  1  0.48348470  0.22172498  0.53448715  1  0  0.069468  0  3.748194  0  0  0.083069  0  3.977867  0  0  0.087256  0  3.997771  0  0  0.018253  0.080354  0  3.964393  0
C  C51  1  0.98351793  0.77827984  0.96551845  1  0  0.069469  0  3.748082  0  0  0.082987  0  3.977936  0  0  0.08717  0  3.997844  0  0  0.018193  0.080278  0  3.964452  0
C  C52  1  0.54149202  0.66905402  0.49034502  1  0  -0.125263  0  3.686936  0  0  -0.146352  0  3.93505  0  0  -0.152949  0  3.954563  0  0  -0.076634  -0.142257  0  3.922236  0
C  C53  1  0.04147671  0.33093051  0.00965107  1  0  -0.125356  0  3.686822  0  0  -0.146442  0  3.934979  0  0  -0.15304  0  3.954495  0  0  -0.076695  -0.142341  0  3.92216  0
C  C54  1  0.45849803  0.33099709  0.50964787  1  0  -0.125384  0  3.686998  0  0  -0.146479  0  3.935081  0  0  -0.153076  0  3.954594  0  0  -0.076651  -0.142383  0  3.922264  0
C  C55  1  0.95849696  0.66900193  0.99035551  1  0  -0.125489  0  3.686914  0  0  -0.146568  0  3.935047  0  0  -0.153163  0  3.954561  0  0  -0.076624  -0.142477  0  3.922234  0
C  C56  1  0.71936581  0.64866083  0.53389970  1  0  0.130189  0  3.698957  0  0  0.098087  0  3.948497  0  0  0.10554  0  3.966003  0  0  0.045146  0.0932  0  3.936764  0
C  C57  1  0.21935613  0.35133058  0.96609655  1  0  0.130329  0  3.698709  0  0  0.098168  0  3.948259  0  0  0.105622  0  3.965762  0  0  0.045217  0.093277  0  3.936528  0
C  C58  1  0.28064062  0.35138354  0.46609187  1  0  0.1298  0  3.699  0  0  0.097644  0  3.94861  0  0  0.105087  0  3.96611  0  0  0.04485  0.092762  0  3.936876  0
C  C59  1  0.78064666  0.64861958  0.03391175  1  0  0.129853  0  3.698927  0  0  0.097662  0  3.948508  0  0  0.105101  0  3.96601  0  0  0.044914  0.09278  0  3.936773  0
C  C60  1  0.32348713  0.80868329  0.42259460  1  0  0.272529  0  3.780071  0  0  0.256953  0  4.053538  0  0  0.265199  0  4.06954  0  0  0.213021  0.251593  0  4.042445  0
C  C61  1  0.82347761  0.19131214  0.07740723  1  0  0.272459  0  3.77993  0  0  0.256916  0  4.053359  0  0  0.265157  0  4.069366  0  0  0.212984  0.251555  0  4.04227  0
C  C62  1  0.67654114  0.19136707  0.57739377  1  0  0.271734  0  3.780484  0  0  0.256087  0  4.054115  0  0  0.264326  0  4.070126  0  0  0.212807  0.25073  0  4.043016  0
C  C63  1  0.17657797  0.80863191  0.92261014  1  0  0.272088  0  3.780256  0  0  0.256418  0  4.053986  0  0  0.264658  0  4.069999  0  0  0.212841  0.251056  0  4.042898  0
C  C64  1  0.05535069  0.80418427  0.35378763  1  0  0.303065  0  3.760367  0  0  0.271732  0  4.030845  0  0  0.283864  0  4.045367  0  0  0.224698  0.263953  0  4.020626  0
C  C65  1  0.55535071  0.19581877  0.14621108  1  0  0.303069  0  3.760193  0  0  0.271583  0  4.030937  0  0  0.283695  0  4.045457  0  0  0.224712  0.263815  0  4.020721  0
C  C66  1  0.94462480  0.19586102  0.64620077  1  0  0.303242  0  3.760705  0  0  0.271773  0  4.031398  0  0  0.283865  0  4.045917  0  0  0.225047  0.264008  0  4.021179  0
C  C67  1  0.44465754  0.80413550  0.85380262  1  0  0.303036  0  3.761116  0  0  0.271891  0  4.031384  0  0  0.283968  0  4.045897  0  0  0.224969  0.264114  0  4.021168  0
C  C68  1  0.89626830  0.77552731  0.30376219  1  0  0.059533  0  3.766988  0  0  0.072464  0  4.002641  0  0  0.075995  0  4.021684  0  0  0.017371  0.070095  0  3.989731  0
C  C69  1  0.39626296  0.22447301  0.19623779  1  0  0.059666  0  3.766732  0  0  0.072611  0  4.002475  0  0  0.076144  0  4.021516  0  0  0.017427  0.07024  0  3.989565  0
C  C70  1  0.10370901  0.22451125  0.69622398  1  0  0.059593  0  3.766968  0  0  0.072637  0  4.002631  0  0  0.076178  0  4.021659  0  0  0.017365  0.070262  0  3.989733  0
C  C71  1  0.60373984  0.77548379  0.80377636  1  0  0.059407  0  3.767462  0  0  0.072339  0  4.003054  0  0  0.075869  0  4.022093  0  0  0.017261  0.069972  0  3.99015  0
C  C72  1  0.94464626  0.68227412  0.26760536  1  0  -0.112638  0  3.675995  0  0  -0.135049  0  3.927219  0  0  -0.140758  0  3.945634  0  0  -0.07073  -0.131505  0  3.915135  0
C  C73  1  0.44463442  0.31773117  0.23239277  1  0  -0.112717  0  3.675856  0  0  -0.135053  0  3.927052  0  0  -0.140754  0  3.945453  0  0  -0.070698  -0.131509  0  3.91497  0
C  C74  1  0.05533833  0.31775313  0.73239578  1  0  -0.112684  0  3.676171  0  0  -0.135137  0  3.927362  0  0  -0.140854  0  3.945782  0  0  -0.070711  -0.131581  0  3.915253  0
C  C75  1  0.55536837  0.68224033  0.76760639  1  0  -0.112535  0  3.675997  0  0  -0.134896  0  3.92716  0  0  -0.140604  0  3.945575  0  0  -0.070691  -0.131339  0  3.915037  0
C  C76  1  0.79473869  0.66199793  0.21839321  1  0  0.133865  0  3.685111  0  0  0.101207  0  3.935304  0  0  0.108493  0  3.951775  0  0  0.048999  0.09642  0  3.924279  0
C  C77  1  0.29473274  0.33800355  0.28160588  1  0  0.133756  0  3.685141  0  0  0.101197  0  3.935272  0  0  0.108494  0  3.95175  0  0  0.048978  0.096399  0  3.924237  0
C  C78  1  0.20524590  0.33800986  0.78160848  1  0  0.133899  0  3.685311  0  0  0.101296  0  3.935492  0  0  0.108587  0  3.951976  0  0  0.048915  0.096496  0  3.924469  0
C  C79  1  0.70525731  0.66198495  0.71838912  1  0  0.133696  0  3.68513  0  0  0.101133  0  3.935256  0  0  0.108421  0  3.951741  0  0  0.048881  0.096335  0  3.924231  0
C  C80  1  0.55338922  0.81694307  0.23962231  1  0  0.127154  0  3.71796  0  0  0.096167  0  3.965006  0  0  0.103046  0  3.982722  0  0  0.035865  0.091706  0  3.952961  0
C  C81  1  0.05339458  0.18305990  0.26037957  1  0  0.127024  0  3.71749  0  0  0.096075  0  3.964598  0  0  0.102963  0  3.982321  0  0  0.035764  0.0916  0  3.952541  0
C  C82  1  0.44660265  0.18307358  0.76036081  1  0  0.126896  0  3.717344  0  0  0.09602  0  3.964314  0  0  0.102899  0  3.982031  0  0  0.035839  0.0916  0  3.952308  0
C  C83  1  0.94660821  0.81692397  0.73963399  1  0  0.127025  0  3.717334  0  0  0.09614  0  3.964335  0  0  0.103021  0  3.98205  0  0  0.035869  0.091692  0  3.952309  0
C  C84  1  0.69355551  0.84312989  0.28933564  1  0  -0.139605  0  3.69759  0  0  -0.160174  0  3.94519  0  0  -0.166598  0  3.964722  0  0  -0.085898  -0.156004  0  3.932121  0
C  C85  1  0.19356241  0.15687605  0.21066618  1  0  -0.139601  0  3.697619  0  0  -0.160183  0  3.945265  0  0  -0.166607  0  3.964793  0  0  -0.085971  -0.156014  0  3.932201  0
C  C86  1  0.30642543  0.15691224  0.71064193  1  0  -0.139448  0  3.697674  0  0  -0.160129  0  3.945319  0  0  -0.166553  0  3.964853  0  0  -0.085949  -0.155959  0  3.932243  0
C  C87  1  0.80644766  0.84307972  0.78935656  1  0  -0.13944  0  3.698063  0  0  -0.160134  0  3.945756  0  0  -0.166554  0  3.965287  0  0  -0.085983  -0.155967  0  3.932687  0
Br  Br88  1  0.35736117  0.87233340  0.62706737  1  0  -0.506168  0  1.053888  0  0  -0.451616  0  1.363716  0  0  -0.468405  0  1.342351  0  0  -0.23678  -0.439518  0  1.378405  0
Br  Br89  1  0.85737862  0.12767051  0.87291884  1  0  -0.506175  0  1.053843  0  0  -0.451661  0  1.363687  0  0  -0.468453  0  1.342325  0  0  -0.236784  -0.439515  0  1.378289  0
Br  Br90  1  0.64264526  0.12768945  0.37294193  1  0  -0.506125  0  1.054096  0  0  -0.451575  0  1.363936  0  0  -0.468366  0  1.342586  0  0  -0.236736  -0.439523  0  1.37869  0
Br  Br91  1  0.14265876  0.87230482  0.12705951  1  0  -0.506099  0  1.054233  0  0  -0.451576  0  1.364117  0  0  -0.468366  0  1.342771  0  0  -0.236725  -0.439496  0  1.37883  0
Br  Br92  1  0.24549710  0.51896842  0.62638748  1  0  -0.516013  0  0.975493  0  0  -0.456129  0  1.267849  0  0  -0.475845  0  1.246775  0  0  -0.275543  -0.44163  0  1.282057  0
Br  Br93  1  0.74541340  0.48102759  0.87362773  1  0  -0.516037  0  0.975565  0  0  -0.456177  0  1.267974  0  0  -0.475891  0  1.246896  0  0  -0.275587  -0.441682  0  1.282187  0
Br  Br94  1  0.75452754  0.48105248  0.37359471  1  0  -0.516003  0  0.975769  0  0  -0.45613  0  1.26821  0  0  -0.475845  0  1.247128  0  0  -0.275506  -0.44163  0  1.282421  0
Br  Br95  1  0.25453842  0.51895599  0.12639940  1  0  -0.51603  0  0.975815  0  0  -0.45614  0  1.268234  0  0  -0.475854  0  1.247152  0  0  -0.275528  -0.441639  0  1.282447  0
N  N96  1  0.87210010  0.73018498  0.55255134  1  0  -0.316514  0  3.325232  0  0  -0.224879  0  3.589333  0  0  -0.245026  0  3.606898  0  0  -0.33726  -0.211355  0  3.577298  0
N  N97  1  0.37210725  0.26981444  0.94744483  1  0  -0.316724  0  3.325444  0  0  -0.225074  0  3.589565  0  0  -0.24522  0  3.607127  0  0  -0.337318  -0.211557  0  3.577547  0
N  N98  1  0.12787174  0.26986019  0.44744204  1  0  -0.316072  0  3.325687  0  0  -0.224481  0  3.589703  0  0  -0.24461  0  3.607254  0  0  -0.336878  -0.210946  0  3.577633  0
N  N99  1  0.62788462  0.73014516  0.05255710  1  0  -0.315969  0  3.325488  0  0  -0.22439  0  3.589509  0  0  -0.244513  0  3.607058  0  0  -0.336901  -0.21087  0  3.577473  0
N  N100  1  0.60346013  0.72874964  0.20410012  1  0  -0.308488  0  3.321537  0  0  -0.219208  0  3.584977  0  0  -0.23801  0  3.601976  0  0  -0.331443  -0.206576  0  3.573334  0
N  N101  1  0.10346459  0.27125815  0.29590669  1  0  -0.308341  0  3.321141  0  0  -0.219209  0  3.584722  0  0  -0.238045  0  3.601758  0  0  -0.331425  -0.206543  0  3.573044  0
N  N102  1  0.39651900  0.27125821  0.79589886  1  0  -0.308596  0  3.321387  0  0  -0.219331  0  3.584838  0  0  -0.238151  0  3.601857  0  0  -0.331493  -0.206668  0  3.573152  0
N  N103  1  0.89651636  0.72874368  0.70409729  1  0  -0.308475  0  3.321274  0  0  -0.219226  0  3.584709  0  0  -0.238049  0  3.601733  0  0  -0.331429  -0.206562  0  3.573027  0
N  N104  1  0.21894012  0.73815413  0.38200483  1  0  -0.420179  0  2.879042  0  0  -0.399615  0  3.144796  0  0  -0.411737  0  3.155685  0  0  -0.322092  -0.391425  0  3.13718  0
N  N105  1  0.71893912  0.26184595  0.11799113  1  0  -0.420248  0  2.879053  0  0  -0.399628  0  3.144836  0  0  -0.411749  0  3.15573  0  0  -0.322139  -0.391439  0  3.137217  0
N  N106  1  0.78107905  0.26189974  0.61797720  1  0  -0.419793  0  2.879009  0  0  -0.399213  0  3.144907  0  0  -0.411335  0  3.155809  0  0  -0.322259  -0.391027  0  3.137284  0
N  N107  1  0.28110918  0.73810317  0.88202622  1  0  -0.419913  0  2.879196  0  0  -0.399404  0  3.144998  0  0  -0.411529  0  3.155904  0  0  -0.322195  -0.391217  0  3.137383  0
N  N108  1  0.06521241  0.90997272  0.37721409  1  0  -0.2133  0  3.487048  0  0  -0.151313  0  3.722695  0  0  -0.165815  0  3.740304  0  0  -0.263333  -0.141688  0  3.710834  0
N  N109  1  0.56520442  0.09003787  0.12278548  1  0  -0.213086  0  3.487415  0  0  -0.151121  0  3.723154  0  0  -0.165576  0  3.740741  0  0  -0.26326  -0.141521  0  3.711306  0
N  N110  1  0.93474487  0.09007758  0.62277700  1  0  -0.213265  0  3.487305  0  0  -0.151335  0  3.723116  0  0  -0.165746  0  3.740658  0  0  -0.263251  -0.141732  0  3.711268  0
N  N111  1  0.43477106  0.90992159  0.87722277  1  0  -0.212988  0  3.487507  0  0  -0.151243  0  3.723314  0  0  -0.165597  0  3.740808  0  0  -0.263229  -0.141624  0  3.71146  0
N  N112  1  0.23356133  0.91466393  0.42091267  1  0  -0.235988  0  2.880369  0  0  -0.225077  0  3.151894  0  0  -0.232307  0  3.168375  0  0  -0.20878  -0.220029  0  3.140716  0
N  N113  1  0.73352696  0.08533007  0.07908874  1  0  -0.235947  0  2.880516  0  0  -0.225026  0  3.152056  0  0  -0.232271  0  3.168529  0  0  -0.208721  -0.219971  0  3.140881  0
N  N114  1  0.76645966  0.08538050  0.57907618  1  0  -0.235718  0  2.88076  0  0  -0.22472  0  3.152333  0  0  -0.231978  0  3.168797  0  0  -0.208638  -0.219671  0  3.141159  0
N  N115  1  0.26648493  0.91461827  0.92092545  1  0  -0.235829  0  2.880641  0  0  -0.224811  0  3.152292  0  0  -0.232091  0  3.16874  0  0  -0.208609  -0.219768  0  3.141114  0
