# generated using pymatgen
data_DyH11C16(NO5)2
_symmetry_space_group_name_H-M   'P 1'
_cell_length_a   6.86654256
_cell_length_b   10.10127286
_cell_length_c   13.12128398
_cell_angle_alpha   101.30857355
_cell_angle_beta   98.63907909
_cell_angle_gamma   97.58910685
_symmetry_Int_Tables_number   1
_chemical_formula_structural   DyH11C16(NO5)2
_chemical_formula_sum   'Dy2 H22 C32 N4 O20'
_cell_volume   869.97592031
_cell_formula_units_Z   2
loop_
 _symmetry_equiv_pos_site_id
 _symmetry_equiv_pos_as_xyz
  1  'x, y, z'
loop_
 _atom_site_type_symbol
 _atom_site_label
 _atom_site_symmetry_multiplicity
 _atom_site_fract_x
 _atom_site_fract_y
 _atom_site_fract_z
 _atom_site_occupancy
 _atom_site_pbe_bader_charge
 _atom_site_pbe_bader_spin_density
 _atom_site_pbe_cm5_charge
 _atom_site_pbe_ddec_charge
 _atom_site_pbe_ddec_spin_density
 _atom_site_pbe_ddec_sum_bond_order
 _atom_site_pbe_magmom
Dy  Dy0  1  0.26386246  0.06558260  0.83647442  1  2.19124  0  1.523167  2.112121  0  2.12001  0
Dy  Dy1  1  0.73613840  0.93441922  0.16352609  1  2.191311  0  1.523209  2.112149  0  2.119853  0
H  H2  1  0.17661141  0.68036795  0.98666031  1  0.656886  0  0.312472  0.375948  0  0.953885  0
H  H3  1  0.82339079  0.31962772  0.01334206  1  0.656877  0  0.312497  0.375946  0  0.953847  0
H  H4  1  0.30918626  0.38021947  0.02935184  1  0.140585  0  0.119094  0.131803  0  1.016911  0
H  H5  1  0.69081212  0.61977928  0.97065113  1  0.140536  0  0.119104  0.131849  0  1.016869  0
H  H6  1  0.59281006  0.26974688  0.30914735  1  0.107804  0  0.10918  0.098167  0  1.060443  0
H  H7  1  0.40718820  0.73024675  0.69085276  1  0.107798  0  0.10916  0.098146  0  1.060434  0
H  H8  1  0.12007330  0.51197405  0.85971458  1  0.161372  0  0.113193  0.121433  0  1.040104  0
H  H9  1  0.87992917  0.48802674  0.14028450  1  0.161364  0  0.113199  0.121443  0  1.040125  0
H  H10  1  0.85137877  0.68261346  0.60643003  1  0.13536  0  0.113484  0.12254  0  0.997332  0
H  H11  1  0.14861993  0.31738426  0.39357176  1  0.135269  0  0.11348  0.122526  0  0.997311  0
H  H12  1  0.53266847  0.68926672  0.31665856  1  0.118755  0  0.11813  0.12384  0  0.99243  0
H  H13  1  0.46733770  0.31072997  0.68334145  1  0.118646  0  0.118143  0.123824  0  0.992429  0
H  H14  1  0.85044260  0.24797347  0.56086784  1  0.094311  0  0.109324  0.111708  0  1.003638  0
H  H15  1  0.14956380  0.75202936  0.43913349  1  0.094352  0  0.109327  0.111726  0  1.003603  0
H  H16  1  0.82297692  0.04651754  0.86454680  1  0.649099  0  0.327509  0.428679  0  0.865316  0
H  H17  1  0.17702137  0.95349248  0.13545518  1  0.649101  0  0.327532  0.428716  0  0.865212  0
H  H18  1  0.94871735  0.11090037  0.97767300  1  0.669241  0  0.311974  0.411807  0  0.913531  0
H  H19  1  0.05127911  0.88910453  0.02232910  1  0.669268  0  0.31197  0.411787  0  0.913569  0
H  H20  1  0.21639291  0.02982058  0.61689612  1  0.623992  0  0.32492  0.417957  0  0.880358  0
H  H21  1  0.78360012  0.97018432  0.38310409  1  0.624271  0  0.324918  0.417972  0  0.88035  0
H  H22  1  0.36803020  0.92677968  0.62818944  1  0.611155  0  0.335019  0.422701  0  0.86296  0
H  H23  1  0.63195646  0.07321908  0.37180637  1  0.611098  0  0.335062  0.422802  0  0.862835  0
C  C24  1  0.43141818  0.16215263  0.10680594  1  1.616927  0  0.245315  0.673214  0  4.133744  0
C  C25  1  0.56858757  0.83784407  0.89319678  1  1.616931  0  0.24528  0.673145  0  4.133702  0
C  C26  1  0.05933587  0.75541906  0.80961500  1  1.566401  0  0.224893  0.613687  0  4.17133  0
C  C27  1  0.94066226  0.24457867  0.19038779  1  1.566484  0  0.22489  0.613618  0  4.171363  0
C  C28  1  0.07189653  0.25641109  0.75572641  1  1.563288  0  0.188318  0.573264  0  4.234156  0
C  C29  1  0.92810608  0.74358970  0.24427438  1  1.563455  0  0.188407  0.57339  0  4.233943  0
C  C30  1  0.44929814  0.30890119  0.16342705  1  -0.090365  0  -0.014443  -0.043862  0  3.947802  0
C  C31  1  0.55070017  0.69109551  0.83657287  1  -0.09043  0  -0.014475  -0.043877  0  3.947819  0
C  C32  1  0.38307123  0.40868412  0.11191738  1  0.021923  0  -0.058824  -0.074521  0  3.840075  0
C  C33  1  0.61692951  0.59131667  0.88808467  1  0.021988  0  -0.058858  -0.074653  0  3.840036  0
C  C34  1  0.98904638  0.61393558  0.74174402  1  -0.033315  0  -0.011867  -0.032466  0  3.95331  0
C  C35  1  0.01095340  0.38606420  0.25825714  1  -0.033047  0  -0.011827  -0.032356  0  3.953112  0
C  C36  1  0.54011623  0.34626038  0.26923363  1  -0.01939  0  -0.066895  -0.128802  0  3.917775  0
C  C37  1  0.45988498  0.65373529  0.73076458  1  -0.019362  0  -0.066832  -0.128669  0  3.917734  0
C  C38  1  0.03782607  0.50055969  0.78020786  1  -0.03389  0  -0.065158  -0.085612  0  3.893907  0
C  C39  1  0.96217783  0.49944110  0.21979266  1  -0.034066  0  -0.065153  -0.085646  0  3.893918  0
C  C40  1  0.99209168  0.36954702  0.71509338  1  -0.014736  0  -0.017263  -0.028613  0  3.984754  0
C  C41  1  0.00791647  0.63045479  0.28490822  1  -0.014655  0  -0.017242  -0.028601  0  3.984625  0
C  C42  1  0.35217370  0.65487454  0.11417181  1  1.535245  0  0.257566  0.633555  0  4.058611  0
C  C43  1  0.64784634  0.34513544  0.88583174  1  1.534798  0  0.257496  0.633353  0  4.058595  0
C  C44  1  0.88738120  0.59506842  0.63799793  1  -0.062696  0  -0.05877  -0.116761  0  3.853427  0
C  C45  1  0.11261210  0.40492830  0.36200477  1  -0.062646  0  -0.058809  -0.116778  0  3.853214  0
C  C46  1  0.41387632  0.54559062  0.16740255  1  0.005176  0  -0.009806  -0.044846  0  3.965765  0
C  C47  1  0.58612431  0.45440505  0.83259665  1  0.005148  0  -0.009782  -0.044747  0  3.965752  0
C  C48  1  0.57065178  0.48268923  0.32480632  1  0.369525  0  0.085151  0.152173  0  4.045254  0
C  C49  1  0.42934911  0.51730747  0.67519305  1  0.369155  0  0.085119  0.152033  0  4.04539  0
C  C50  1  0.50808321  0.58276840  0.27368400  1  -0.007124  0  -0.055799  -0.122976  0  3.884084  0
C  C51  1  0.49192064  0.41722932  0.72631673  1  -0.006618  0  -0.055797  -0.122948  0  3.884105  0
C  C52  1  0.88728565  0.34984043  0.61235132  1  -0.003476  0  -0.059278  -0.12072  0  3.890971  0
C  C53  1  0.11272014  0.65015933  0.38765120  1  -0.003545  0  -0.059344  -0.120792  0  3.891071  0
C  C54  1  0.83168394  0.46202897  0.57411006  1  0.381844  0  0.082688  0.145769  0  4.059337  0
C  C55  1  0.16832299  0.53797079  0.42589048  1  0.381802  0  0.082699  0.145728  0  4.059366  0
N  N56  1  0.67087069  0.52612147  0.43158934  1  -0.460276  0  -0.14762  -0.126443  0  3.250256  0
N  N57  1  0.32912737  0.47387421  0.56841040  1  -0.460363  0  -0.147619  -0.126313  0  3.250231  0
N  N58  1  0.72691745  0.42839397  0.46933560  1  -0.499308  0  -0.147158  -0.130874  0  3.340499  0
N  N59  1  0.27308440  0.57160375  0.53066467  1  -0.499247  0  -0.14714  -0.130903  0  3.340569  0
O  O60  1  0.35399757  0.12928924  0.00961457  1  -1.210397  0  -0.429863  -0.68379  0  2.391179  0
O  O61  1  0.64600476  0.87071154  0.99038279  1  -1.210427  0  -0.429803  -0.683672  0  2.391207  0
O  O62  1  0.49369433  0.07767016  0.15927291  1  -1.209319  0  -0.39637  -0.688604  0  2.288346  0
O  O63  1  0.50630331  0.92232961  0.84072608  1  -1.209159  0  -0.396376  -0.688613  0  2.288178  0
O  O64  1  0.11016369  0.77245139  0.90971890  1  -1.185382  0  -0.298223  -0.580452  0  2.248616  0
O  O65  1  0.88981916  0.22754533  0.09028423  1  -1.185303  0  -0.298171  -0.580464  0  2.248554  0
O  O66  1  0.07103736  0.85336403  0.76153290  1  -1.187749  0  -0.406273  -0.663905  0  2.283373  0
O  O67  1  0.92895740  0.14663986  0.23847544  1  -1.187926  0  -0.406283  -0.663827  0  2.283542  0
O  O68  1  0.18338501  0.28576893  0.84689863  1  -1.183603  0  -0.391836  -0.63987  0  2.301046  0
O  O69  1  0.81662293  0.71423492  0.15310260  1  -1.183704  0  -0.39187  -0.639914  0  2.300963  0
O  O70  1  0.42452636  0.77848640  0.14831489  1  -1.186742  0  -0.344521  -0.612762  0  2.278094  0
O  O71  1  0.57546961  0.22150314  0.85168480  1  -1.186211  0  -0.344527  -0.612769  0  2.277663  0
O  O72  1  0.03635764  0.13393274  0.69933335  1  -1.193559  0  -0.384954  -0.643348  0  2.147848  0
O  O73  1  0.96364590  0.86607010  0.30066509  1  -1.193588  0  -0.385007  -0.643406  0  2.147808  0
O  O74  1  0.21375843  0.60856996  0.02893566  1  -1.159571  0  -0.304381  -0.450264  0  2.343491  0
O  O75  1  0.78624528  0.39142775  0.97106335  1  -1.159558  0  -0.30433  -0.450087  0  2.343676  0
O  O76  1  0.95798685  0.06255359  0.90577013  1  -1.281889  0  -0.62975  -0.844729  0  2.104324  0
O  O77  1  0.04201131  0.93745642  0.09423013  1  -1.281937  0  -0.629771  -0.844769  0  2.104273  0
O  O78  1  0.34552160  0.01935791  0.65504851  1  -1.197462  0  -0.602391  -0.806192  0  1.991265  0
O  O79  1  0.65447369  0.98064391  0.34494793  1  -1.197744  0  -0.602428  -0.806308  0  1.991166  0
