# generated using pymatgen
data_InH12C24(NO2)2
_symmetry_space_group_name_H-M   'P 1'
_cell_length_a   7.50068747
_cell_length_b   12.83634594
_cell_length_c   30.78065481
_cell_angle_alpha   88.52616526
_cell_angle_beta   84.89727797
_cell_angle_gamma   73.03274034
_symmetry_Int_Tables_number   1
_chemical_formula_structural   InH12C24(NO2)2
_chemical_formula_sum   'In4 H48 C96 N8 O16'
_cell_volume   2823.37026973
_cell_formula_units_Z   4
loop_
 _symmetry_equiv_pos_site_id
 _symmetry_equiv_pos_as_xyz
  1  'x, y, z'
loop_
 _atom_site_type_symbol
 _atom_site_label
 _atom_site_symmetry_multiplicity
 _atom_site_fract_x
 _atom_site_fract_y
 _atom_site_fract_z
 _atom_site_occupancy
 _atom_site_pbe_bader_charge
 _atom_site_pbe_bader_spin_density
 _atom_site_pbe_cm5_charge
 _atom_site_pbe_ddec_charge
 _atom_site_pbe_ddec_spin_density
 _atom_site_pbe_ddec_sum_bond_order
 _atom_site_pbe_magmom
In  In0  1  0.34782379  0.30542087  0.25003968  1  1.864516  0  0.738136  1.369474  0  2.56657  0
In  In1  1  0.65220088  0.69458461  0.74994866  1  1.864623  0  0.738204  1.369598  0  2.566307  0
In  In2  1  0.49990879  0.00003343  0.00000918  1  1.647981  0  0.891882  1.160332  0  2.725535  0
In  In3  1  0.50004469  0.00001053  0.49999112  1  1.658265  0  0.891761  1.159854  0  2.726992  0
H  H4  1  0.05880611  0.63482328  0.16487848  1  0.115973  0  0.109735  0.117407  0  0.991018  0
H  H5  1  0.63768086  0.45965085  0.13736950  1  0.090017  0  0.114506  0.125167  0  0.984577  0
H  H6  1  0.09612100  0.78205811  0.11261857  1  0.065163  0  0.093974  0.093527  0  1.040479  0
H  H7  1  0.16391104  0.01415226  0.06948919  1  0.031919  0  0.08273  0.060372  0  1.102456  0
H  H8  1  0.84711872  0.20305623  0.20687274  1  0.170903  0  0.117475  0.13625  0  1.011935  0
H  H9  1  0.35173600  0.06758564  0.12445654  1  0.076566  0  0.095683  0.096071  0  1.051335  0
H  H10  1  0.67824013  0.60573018  0.08504456  1  0.069275  0  0.100415  0.101495  0  0.998598  0
H  H11  1  0.59765510  0.77592312  0.14786295  1  0.13967  0  0.122313  0.145701  0  0.979326  0
H  H12  1  0.79644025  0.91860048  0.15218532  1  0.130073  0  0.123983  0.14603  0  0.977389  0
H  H13  1  0.82104385  0.31670394  0.97023038  1  0.1111  0  0.114769  0.134707  0  0.995027  0
H  H14  1  0.93398364  0.23133016  0.04767062  1  0.106576  0  0.11547  0.135908  0  0.996587  0
H  H15  1  0.66103560  0.14935486  0.15368957  1  0.16069  0  0.107118  0.13085  0  1.037456  0
H  H16  1  0.30685893  0.63505180  0.33509573  1  0.118559  0  0.109509  0.116744  0  0.991387  0
H  H17  1  0.90312508  0.45973561  0.36247228  1  0.138188  0  0.114525  0.125178  0  0.985123  0
H  H18  1  0.12208630  0.78233293  0.38733074  1  0.065927  0  0.093677  0.092811  0  1.04159  0
H  H19  1  0.82196749  0.01418878  0.43055321  1  0.026654  0  0.082689  0.060371  0  1.101922  0
H  H20  1  0.95068326  0.20278131  0.29315269  1  0.163365  0  0.117888  0.137286  0  1.010365  0
H  H21  1  0.58063755  0.06797017  0.37561360  1  0.081153  0  0.095962  0.096919  0  1.050149  0
H  H22  1  0.71643729  0.60576137  0.41484561  1  0.087975  0  0.100365  0.101195  0  0.998448  0
H  H23  1  0.62683413  0.77583279  0.35209574  1  0.140415  0  0.122701  0.145971  0  0.980292  0
H  H24  1  0.28543886  0.91843183  0.34779184  1  0.133061  0  0.12434  0.14666  0  0.977984  0
H  H25  1  0.86223659  0.31645295  0.52980307  1  0.11334  0  0.114833  0.135103  0  0.994562  0
H  H26  1  0.83489432  0.23105988  0.45232769  1  0.113818  0  0.115766  0.136743  0  0.99639  0
H  H27  1  0.19038341  0.14886956  0.34635294  1  0.151024  0  0.107184  0.131256  0  1.037475  0
H  H28  1  0.94119292  0.36515939  0.83512711  1  0.116079  0  0.109759  0.117451  0  0.991122  0
H  H29  1  0.36232331  0.54036847  0.86262267  1  0.090649  0  0.114628  0.125345  0  0.984802  0
H  H30  1  0.90382274  0.21794410  0.88738820  1  0.065216  0  0.093872  0.093443  0  1.040524  0
H  H31  1  0.83600683  0.98583529  0.93051331  1  0.031408  0  0.082613  0.060331  0  1.102468  0
H  H32  1  0.15289852  0.79693784  0.79313598  1  0.171193  0  0.11754  0.136331  0  1.01193  0
H  H33  1  0.64822872  0.93238888  0.87554197  1  0.076286  0  0.095808  0.096176  0  1.051025  0
H  H34  1  0.32171792  0.39430379  0.91494801  1  0.069173  0  0.100342  0.101402  0  0.998756  0
H  H35  1  0.40239571  0.22403267  0.85212569  1  0.139662  0  0.122296  0.145703  0  0.979479  0
H  H36  1  0.20360777  0.08135775  0.84780790  1  0.129269  0  0.123976  0.145942  0  0.977601  0
H  H37  1  0.17901573  0.68326325  0.02976286  1  0.110809  0  0.114771  0.134526  0  0.995076  0
H  H38  1  0.06607671  0.76863051  0.95231910  1  0.10611  0  0.115484  0.13596  0  0.99656  0
H  H39  1  0.33893908  0.85065388  0.84632794  1  0.160686  0  0.107135  0.130881  0  1.037369  0
H  H40  1  0.69316507  0.36494309  0.66490409  1  0.118825  0  0.109581  0.116838  0  0.991349  0
H  H41  1  0.09690966  0.54024869  0.63752549  1  0.138205  0  0.114521  0.125157  0  0.985137  0
H  H42  1  0.87793553  0.21765545  0.61267048  1  0.065802  0  0.093665  0.092829  0  1.041539  0
H  H43  1  0.17806177  0.98581181  0.56944484  1  0.026477  0  0.082666  0.060419  0  1.101835  0
H  H44  1  0.04934426  0.79723312  0.70684851  1  0.163388  0  0.117928  0.137281  0  1.010415  0
H  H45  1  0.41937841  0.93204590  0.62438845  1  0.080504  0  0.09593  0.096835  0  1.050182  0
H  H46  1  0.28359716  0.39421804  0.58515319  1  0.087799  0  0.100395  0.101175  0  0.998382  0
H  H47  1  0.37319661  0.22415395  0.64790403  1  0.140485  0  0.122702  0.145912  0  0.980186  0
H  H48  1  0.71460068  0.08155898  0.65220546  1  0.13286  0  0.124402  0.146772  0  0.97796  0
H  H49  1  0.13778394  0.68352158  0.47020188  1  0.113082  0  0.114733  0.134989  0  0.99457  0
H  H50  1  0.16511873  0.76892442  0.54767568  1  0.114059  0  0.115672  0.136607  0  0.996493  0
H  H51  1  0.80964260  0.85112940  0.65364616  1  0.151316  0  0.107123  0.131184  0  1.037322  0
C  C52  1  0.32776641  0.45523099  0.18707200  1  1.554443  0  0.205758  0.540327  0  4.245386  0
C  C53  1  0.38967883  0.70314808  0.09562003  1  -0.040099  0  -0.011756  0.071674  0  4.030197  0
C  C54  1  0.19270622  0.62916430  0.14659844  1  -0.052471  0  -0.078873  -0.087078  0  3.965222  0
C  C55  1  0.34611567  0.53925326  0.15381695  1  0.018911  0  -0.006329  -0.005486  0  3.952464  0
C  C56  1  0.70510616  0.96840975  0.08549693  1  0.396595  0  0.101821  0.181048  0  4.035014  0
C  C57  1  0.52037416  0.53023565  0.13114683  1  0.019285  0  -0.07682  -0.083318  0  3.961491  0
C  C58  1  0.21402835  0.71053131  0.11751383  1  -0.068536  0  -0.094965  -0.142262  0  3.993134  0
C  C59  1  0.53811815  0.84918254  0.08176028  1  0.39139  0  0.101555  0.183674  0  4.027469  0
C  C60  1  0.11095220  0.13822698  0.16851908  1  -0.005027  0  -0.011064  -0.017594  0  3.957688  0
C  C61  1  0.90109253  0.07962263  0.10775026  1  -0.104075  0  -0.013784  0.067257  0  4.025627  0
C  C62  1  0.77021826  0.11553148  0.03620160  1  0.388073  0  0.100269  0.188724  0  4.020629  0
C  C63  1  0.09604930  0.05622751  0.09959069  1  -0.045148  0  -0.108072  -0.16471  0  4.052076  0
C  C64  1  0.91682190  0.16086559  0.17696889  1  -0.063465  0  -0.066127  -0.059486  0  3.889487  0
C  C65  1  0.20045026  0.08478272  0.12993426  1  -0.033364  0  -0.092469  -0.099843  0  4.001154  0
C  C66  1  0.41856411  0.79280074  0.06700403  1  0.015821  0  0.015397  -0.059287  0  3.91307  0
C  C67  1  0.54211346  0.61174697  0.10233843  1  -0.086658  0  -0.093161  -0.145507  0  4.009455  0
C  C68  1  0.61894756  0.83370018  0.12307096  1  -0.016987  0  -0.078965  -0.147297  0  3.894278  0
C  C69  1  0.78818850  0.05226455  0.07471018  1  0.051617  0  0.019545  -0.04738  0  3.897367  0
C  C70  1  0.67455286  0.18714268  0.97165314  1  0.402703  0  0.098603  0.182627  0  4.034946  0
C  C71  1  0.72086496  0.90618399  0.12527444  1  -0.075652  0  -0.075767  -0.139966  0  3.90662  0
C  C72  1  0.79052211  0.24779167  0.98706422  1  -0.058952  0  -0.088741  -0.155758  0  3.929855  0
C  C73  1  0.84852651  0.20422761  0.02641674  1  -0.05046  0  -0.088612  -0.159262  0  3.932213  0
C  C74  1  0.81224029  0.13096482  0.14685029  1  -0.023073  0  -0.083217  -0.128965  0  3.91705  0
C  C75  1  0.22265971  0.17737114  0.19880829  1  1.550154  0  0.210789  0.54848  0  4.233833  0
C  C76  1  0.21757347  0.45521315  0.31294326  1  1.550882  0  0.206433  0.541108  0  4.243472  0
C  C77  1  0.90755824  0.70324963  0.40431801  1  -0.017779  0  -0.011655  0.071441  0  4.031186  0
C  C78  1  0.17858853  0.62938038  0.35335696  1  -0.04653  0  -0.078791  -0.086536  0  3.963466  0
C  C79  1  0.11513474  0.53940530  0.34611790  1  0.00013  0  -0.005609  -0.005384  0  3.951027  0
C  C80  1  0.32675746  0.96816072  0.41451595  1  0.4014  0  0.102157  0.182289  0  4.033895  0
C  C81  1  0.94983982  0.53035266  0.36874157  1  -0.052843  0  -0.076793  -0.083103  0  3.962033  0
C  C82  1  0.07579482  0.71073813  0.38243178  1  -0.04487  0  -0.094622  -0.141056  0  3.992548  0
C  C83  1  0.61291650  0.84903600  0.41823889  1  0.392339  0  0.101854  0.184159  0  4.027946  0
C  C84  1  0.75130025  0.13826925  0.33153677  1  0.004162  0  -0.011153  -0.01756  0  3.956162  0
C  C85  1  0.01968379  0.07936527  0.39226699  1  -0.017702  0  -0.013333  0.067955  0  4.025814  0
C  C86  1  0.11431255  0.11525461  0.46383089  1  0.435874  0  0.099786  0.189846  0  4.019342  0
C  C87  1  0.84790042  0.05620487  0.40044216  1  -0.062824  0  -0.108065  -0.164632  0  4.05135  0
C  C88  1  0.92302373  0.16066640  0.32307049  1  -0.067654  0  -0.066273  -0.060258  0  3.888336  0
C  C89  1  0.71494018  0.08493775  0.37012845  1  -0.063307  0  -0.092784  -0.100528  0  4.000239  0
C  C90  1  0.78889949  0.79281030  0.43295965  1  0.00108  0  0.014895  -0.060429  0  3.917254  0
C  C91  1  0.84655395  0.61181779  0.39756556  1  -0.115273  0  -0.093355  -0.145106  0  4.009464  0
C  C92  1  0.54769405  0.83355548  0.37689981  1  -0.134441  0  -0.078323  -0.146192  0  3.896493  0
C  C93  1  0.15981899  0.05195775  0.42531498  1  -0.02392  0  0.019223  -0.049372  0  3.897458  0
C  C94  1  0.13816114  0.18695701  0.52838924  1  0.391027  0  0.098388  0.182955  0  4.0359  0
C  C95  1  0.37333397  0.90599982  0.37470458  1  0.040093  0  -0.077287  -0.142747  0  3.909747  0
C  C96  1  0.96161316  0.24751337  0.51297595  1  -0.03322  0  -0.088357  -0.15547  0  3.926609  0
C  C97  1  0.94729375  0.20391404  0.47360794  1  -0.065689  0  -0.088486  -0.160545  0  3.930597  0
C  C98  1  0.05743557  0.13064250  0.35317361  1  -0.039672  0  -0.083161  -0.129404  0  3.917828  0
C  C99  1  0.60064985  0.17760218  0.30124154  1  1.558406  0  0.21097  0.547578  0  4.233736  0
C  C100  1  0.67228721  0.54475901  0.81291952  1  1.554604  0  0.205928  0.540524  0  4.245136  0
C  C101  1  0.61027313  0.29687042  0.90438091  1  -0.042187  0  -0.012109  0.071273  0  4.030447  0
C  C102  1  0.80729000  0.37082977  0.85340321  1  -0.052928  0  -0.078964  -0.087301  0  3.965095  0
C  C103  1  0.65388186  0.46075466  0.84618097  1  0.019049  0  -0.006426  -0.005518  0  3.952307  0
C  C104  1  0.29479126  0.03162585  0.91451396  1  0.395338  0  0.101786  0.180655  0  4.035252  0
C  C105  1  0.47962912  0.46978530  0.86884664  1  0.01827  0  -0.07707  -0.083849  0  3.962375  0
C  C106  1  0.78592501  0.28947335  0.88249047  1  -0.068279  0  -0.094631  -0.141785  0  3.992897  0
C  C107  1  0.46179488  0.15084899  0.91824678  1  0.391617  0  0.101685  0.183766  0  4.027202  0
C  C108  1  0.88903590  0.86175650  0.83148346  1  -0.005025  0  -0.011026  -0.017533  0  3.957674  0
C  C109  1  0.09885194  0.92038609  0.89225709  1  -0.104432  0  -0.013542  0.067633  0  4.024876  0
C  C110  1  0.22966824  0.88450982  0.96381042  1  0.387826  0  0.100269  0.188674  0  4.020829  0
C  C111  1  0.90388897  0.94376737  0.90041202  1  -0.043753  0  -0.108169  -0.164957  0  4.052256  0
C  C112  1  0.08317850  0.83912197  0.82304053  1  -0.063677  0  -0.066084  -0.059414  0  3.889504  0
C  C113  1  0.79952110  0.91519424  0.87006703  1  -0.033541  0  -0.092645  -0.099987  0  4.001287  0
C  C114  1  0.58135962  0.20722835  0.93300091  1  0.016579  0  0.015321  -0.059294  0  3.913216  0
C  C115  1  0.45785125  0.38828130  0.89765796  1  -0.084624  0  -0.092777  -0.144947  0  4.009433  0
C  C116  1  0.38104739  0.16628900  0.87692523  1  -0.017921  0  -0.078874  -0.147221  0  3.894265  0
C  C117  1  0.21170147  0.94777512  0.92530211  1  0.051319  0  0.019395  -0.047382  0  3.897559  0
C  C118  1  0.32535413  0.81289537  0.02835593  1  0.40021  0  0.098282  0.182266  0  4.035169  0
C  C119  1  0.27911889  0.09380845  0.87472387  1  -0.073919  0  -0.075758  -0.139785  0  3.906661  0
C  C120  1  0.20947237  0.75220077  0.01293520  1  -0.057075  0  -0.088496  -0.155106  0  3.929276  0
C  C121  1  0.15145233  0.79577216  0.97358161  1  -0.05092  0  -0.088617  -0.159412  0  3.932061  0
C  C122  1  0.18772695  0.86904065  0.85316186  1  -0.022961  0  -0.083286  -0.129136  0  3.917011  0
C  C123  1  0.77736396  0.82261153  0.80118678  1  1.549848  0  0.210736  0.54831  0  4.233872  0
C  C124  1  0.78245330  0.54479314  0.68704796  1  1.550346  0  0.206483  0.541159  0  4.243547  0
C  C125  1  0.09246970  0.29673466  0.59568183  1  -0.018392  0  -0.011589  0.071392  0  4.031554  0
C  C126  1  0.82143462  0.37061369  0.64664126  1  -0.046558  0  -0.078874  -0.086671  0  3.963576  0
C  C127  1  0.88489067  0.46058714  0.65387834  1  0.000317  0  -0.005684  -0.00545  0  3.950672  0
C  C128  1  0.67328268  0.03183417  0.58548195  1  0.409027  0  0.102072  0.182027  0  4.034257  0
C  C129  1  0.05019160  0.46963571  0.63125525  1  -0.052439  0  -0.076843  -0.083036  0  3.961451  0
C  C130  1  0.92422667  0.28925105  0.61756815  1  -0.04444  0  -0.09456  -0.140953  0  3.99247  0
C  C131  1  0.38711156  0.15095074  0.58176093  1  0.391281  0  0.101954  0.184275  0  4.028024  0
C  C132  1  0.24871014  0.86175007  0.66846406  1  0.004322  0  -0.011326  -0.017688  0  3.956342  0
C  C133  1  0.98034995  0.92063451  0.60773001  1  -0.07414  0  -0.013432  0.067788  0  4.025346  0
C  C134  1  0.88571505  0.88473865  0.53616660  1  0.434985  0  0.099944  0.189969  0  4.019762  0
C  C135  1  0.15212811  0.94379979  0.59955652  1  -0.006002  0  -0.108062  -0.164732  0  4.051289  0
C  C136  1  0.07700159  0.83934722  0.67692947  1  -0.067801  0  -0.066226  -0.060287  0  3.888545  0
C  C137  1  0.28508259  0.91507832  0.62987121  1  -0.06361  0  -0.092622  -0.100294  0  4.000156  0
C  C138  1  0.21112497  0.20717562  0.56704025  1  0.002201  0  0.014764  -0.060769  0  3.917363  0
C  C139  1  0.15347531  0.38816406  0.60243266  1  -0.115516  0  -0.09328  -0.144972  0  4.009412  0
C  C140  1  0.45234508  0.16642801  0.62309854  1  -0.133873  0  -0.078312  -0.145987  0  3.896487  0
C  C141  1  0.84021400  0.94803550  0.57468177  1  -0.023843  0  0.019299  -0.049054  0  3.897386  0
C  C142  1  0.86186787  0.81303055  0.47161024  1  0.391148  0  0.098325  0.182842  0  4.035655  0
C  C143  1  0.62670427  0.09399100  0.62529177  1  0.040326  0  -0.077301  -0.142813  0  3.909997  0
C  C144  1  0.03840967  0.75246767  0.48702500  1  -0.032442  0  -0.088253  -0.155378  0  3.926245  0
C  C145  1  0.05272923  0.79607188  0.52639458  1  -0.066519  0  -0.088377  -0.160396  0  3.930661  0
C  C146  1  0.94258884  0.86935972  0.64682484  1  -0.039309  0  -0.083079  -0.129173  0  3.91721  0
C  C147  1  0.39936261  0.82241307  0.69875864  1  1.558489  0  0.210969  0.547499  0  4.233766  0
N  N148  1  0.66611563  0.10703136  0.00214497  1  -1.248674  0  -0.361433  -0.422185  0  3.516772  0
N  N149  1  0.59308289  0.93169362  0.05974511  1  -1.247764  0  -0.362237  -0.42667  0  3.527146  0
N  N150  1  0.22680223  0.10684996  0.49789852  1  -1.258493  0  -0.361381  -0.422203  0  3.517382  0
N  N151  1  0.47537098  0.93144964  0.44027769  1  -1.252916  0  -0.362432  -0.426599  0  3.527745  0
N  N152  1  0.33372495  0.89303437  0.99787222  1  -1.246954  0  -0.361319  -0.422012  0  3.516936  0
N  N153  1  0.40676797  0.06837049  0.94026995  1  -1.247378  0  -0.362245  -0.426554  0  3.527174  0
N  N154  1  0.77323300  0.89314411  0.50209883  1  -1.257291  0  -0.361461  -0.422278  0  3.517541  0
N  N155  1  0.52466187  0.06854362  0.55972166  1  -1.2603  0  -0.362489  -0.426693  0  3.528308  0
O  O156  1  0.39673418  0.16065779  0.19042090  1  -1.18043  0  -0.303531  -0.560168  0  2.165334  0
O  O157  1  0.13264306  0.23373366  0.23217734  1  -1.134316  0  -0.279881  -0.526034  0  2.230103  0
O  O158  1  0.17188135  0.46188543  0.20798694  1  -1.143788  0  -0.301249  -0.541379  0  2.110623  0
O  O159  1  0.47707736  0.37854421  0.19398413  1  -1.135262  0  -0.290732  -0.533414  0  2.190876  0
O  O160  1  0.44264575  0.16169435  0.30975504  1  -1.172419  0  -0.303667  -0.560015  0  2.166149  0
O  O161  1  0.63500897  0.23327945  0.26773906  1  -1.130244  0  -0.279075  -0.52495  0  2.230262  0
O  O162  1  0.36785029  0.46115091  0.29230545  1  -1.142269  0  -0.301806  -0.541757  0  2.109261  0
O  O163  1  0.14399589  0.37906049  0.30581643  1  -1.127366  0  -0.290842  -0.533571  0  2.19062  0
O  O164  1  0.60326889  0.83932895  0.80957127  1  -1.180231  0  -0.303622  -0.560275  0  2.164776  0
O  O165  1  0.86737596  0.76626367  0.76781768  1  -1.13431  0  -0.279776  -0.525824  0  2.230444  0
O  O166  1  0.82815926  0.53808990  0.79200984  1  -1.144153  0  -0.301338  -0.541429  0  2.111101  0
O  O167  1  0.52296716  0.62145394  0.80600164  1  -1.135211  0  -0.290807  -0.533532  0  2.190536  0
O  O168  1  0.55736997  0.83830624  0.69024618  1  -1.172775  0  -0.303669  -0.559933  0  2.166218  0
O  O169  1  0.36498695  0.76673661  0.73226271  1  -1.129964  0  -0.279069  -0.525003  0  2.230133  0
O  O170  1  0.63215214  0.53886678  0.70768450  1  -1.141821  0  -0.301822  -0.541853  0  2.109166  0
O  O171  1  0.85603842  0.62093603  0.69417539  1  -1.127465  0  -0.290846  -0.53353  0  2.190776  0
