# generated using pymatgen
data_ZnH10C16N3ClO2
_symmetry_space_group_name_H-M   'P 1'
_cell_length_a   6.18705474
_cell_length_b   8.52381786
_cell_length_c   13.09708816
_cell_angle_alpha   90.18608433
_cell_angle_beta   90.14811248
_cell_angle_gamma   102.54598359
_symmetry_Int_Tables_number   1
_chemical_formula_structural   ZnH10C16N3ClO2
_chemical_formula_sum   'Zn2 H20 C32 N6 Cl2 O4'
_cell_volume   674.20537006
_cell_formula_units_Z   2
loop_
 _symmetry_equiv_pos_site_id
 _symmetry_equiv_pos_as_xyz
  1  'x, y, z'
loop_
 _atom_site_type_symbol
 _atom_site_label
 _atom_site_symmetry_multiplicity
 _atom_site_fract_x
 _atom_site_fract_y
 _atom_site_fract_z
 _atom_site_occupancy
 _atom_site_hle17_bader_spin_density
 _atom_site_hle17_ddec_charge
 _atom_site_hle17_ddec_spin_density
 _atom_site_hle17_ddec_sum_bond_order
 _atom_site_hle17_magmom
 _atom_site_hse06_10hf_bader_spin_density
 _atom_site_hse06_10hf_ddec_charge
 _atom_site_hse06_10hf_ddec_spin_density
 _atom_site_hse06_10hf_ddec_sum_bond_order
 _atom_site_hse06_10hf_magmom
 _atom_site_hse06_bader_spin_density
 _atom_site_hse06_ddec_charge
 _atom_site_hse06_ddec_spin_density
 _atom_site_hse06_ddec_sum_bond_order
 _atom_site_hse06_magmom
 _atom_site_pbe_bader_spin_density
 _atom_site_pbe_cm5_charge
 _atom_site_pbe_ddec_charge
 _atom_site_pbe_ddec_spin_density
 _atom_site_pbe_ddec_sum_bond_order
 _atom_site_pbe_magmom
Zn  Zn0  1  0.79908216  0.74676223  0.24747353  1  0  0.920961  0  1.861702  0  0  0.73055  0  2.318204  0  0  0.780075  0  2.270083  0  0  0.620201  0.696101  0  2.350885  0
Zn  Zn1  1  0.20208832  0.25260019  0.74813644  1  0  0.91905  0  1.857683  0  0  0.72898  0  2.311956  0  0  0.778785  0  2.264201  0  0  0.618598  0.694343  0  2.344368  0
H  H2  1  0.21920139  0.63048447  0.31850913  1  0  0.071132  0  0.991917  0  0  0.07933  0  1.059251  0  0  0.081666  0  1.056613  0  0  0.104313  0.077587  0  1.061177  0
H  H3  1  0.78203711  0.36902539  0.81904828  1  0  0.071434  0  0.991659  0  0  0.079604  0  1.059125  0  0  0.081977  0  1.056443  0  0  0.104307  0.077828  0  1.061075  0
H  H4  1  0.77330547  0.37233513  0.67849718  1  0  0.0715  0  0.996464  0  0  0.079613  0  1.064004  0  0  0.082163  0  1.06112  0  0  0.103012  0.077704  0  1.066082  0
H  H5  1  0.22639022  0.62784148  0.17757993  1  0  0.072344  0  0.995759  0  0  0.079198  0  1.064507  0  0  0.081799  0  1.06163  0  0  0.102986  0.077277  0  1.066574  0
H  H6  1  0.39543444  0.59239111  0.48161785  1  0  0.10085  0  0.950184  0  0  0.109801  0  1.013488  0  0  0.112758  0  1.013001  0  0  0.104741  0.107594  0  1.014243  0
H  H7  1  0.60474449  0.40577457  0.98197356  1  0  0.103068  0  0.951032  0  0  0.11195  0  1.014177  0  0  0.114981  0  1.013552  0  0  0.105835  0.109688  0  1.015042  0
H  H8  1  0.59794178  0.40870487  0.51464263  1  0  0.101365  0  0.950665  0  0  0.110614  0  1.013479  0  0  0.113686  0  1.012834  0  0  0.105166  0.108245  0  1.014478  0
H  H9  1  0.40190082  0.59298886  0.01359061  1  0  0.103682  0  0.950226  0  0  0.112341  0  1.013483  0  0  0.115408  0  1.012832  0  0  0.105945  0.110012  0  1.014449  0
H  H10  1  0.23925200  0.67656887  0.64522880  1  0  0.105296  0  0.975815  0  0  0.106024  0  1.054175  0  0  0.109768  0  1.050394  0  0  0.09906  0.103223  0  1.056989  0
H  H11  1  0.76119145  0.32094596  0.14537766  1  0  0.10509  0  0.977591  0  0  0.105632  0  1.055879  0  0  0.109323  0  1.052249  0  0  0.099214  0.102912  0  1.058535  0
H  H12  1  0.75732165  0.32464084  0.35194212  1  0  0.105389  0  0.978721  0  0  0.106848  0  1.055723  0  0  0.110505  0  1.051997  0  0  0.098978  0.104137  0  1.05849  0
H  H13  1  0.24153694  0.67800652  0.85144520  1  0  0.105221  0  0.978106  0  0  0.106318  0  1.055609  0  0  0.110069  0  1.051861  0  0  0.09878  0.103555  0  1.058361  0
H  H14  1  0.75414522  0.84096817  0.45966001  1  0  0.099693  0  1.009491  0  0  0.107825  0  1.073991  0  0  0.11101  0  1.070812  0  0  0.118484  0.105415  0  1.076519  0
H  H15  1  0.24687640  0.15769645  0.96010344  1  0  0.099933  0  1.002991  0  0  0.108155  0  1.067463  0  0  0.111314  0  1.064309  0  0  0.118942  0.105769  0  1.069939  0
H  H16  1  0.24034192  0.16086758  0.53928873  1  0  0.096501  0  0.985522  0  0  0.103895  0  1.051461  0  0  0.107075  0  1.048417  0  0  0.118225  0.101453  0  1.05399  0
H  H17  1  0.75800070  0.83951439  0.03925285  1  0  0.095026  0  0.978784  0  0  0.103279  0  1.044202  0  0  0.106474  0  1.041114  0  0  0.118252  0.100799  0  1.0468  0
H  H18  1  0.64528788  0.93770470  0.58655363  1  0  0.120808  0  0.942545  0  0  0.131878  0  1.00156  0  0  0.135727  0  0.999595  0  0  0.110917  0.129071  0  1.00315  0
H  H19  1  0.35592754  0.06090790  0.08827797  1  0  0.120054  0  0.941678  0  0  0.131084  0  1.000779  0  0  0.134885  0  0.998919  0  0  0.110627  0.128292  0  1.00236  0
H  H20  1  0.34985835  0.06620064  0.41440960  1  0  0.119321  0  0.952072  0  0  0.129781  0  1.011819  0  0  0.133829  0  1.009617  0  0  0.109866  0.126812  0  1.013678  0
H  H21  1  0.64857009  0.93564638  0.91276329  1  0  0.118532  0  0.950252  0  0  0.128469  0  1.010702  0  0  0.132416  0  1.008747  0  0  0.109787  0.125561  0  1.012431  0
C  C22  1  0.15403658  0.67028455  0.38867716  1  0  0.13758  0  3.682741  0  0  0.101883  0  3.934452  0  0  0.109994  0  3.952976  0  0  0.046509  0.096753  0  3.921725  0
C  C23  1  0.84683471  0.32884164  0.88916085  1  0  0.139646  0  3.681509  0  0  0.103847  0  3.933143  0  0  0.111933  0  3.951615  0  0  0.047401  0.098754  0  3.920451  0
C  C24  1  0.83911507  0.33219061  0.60861317  1  0  0.136723  0  3.686239  0  0  0.100076  0  3.938733  0  0  0.108125  0  3.956967  0  0  0.046075  0.095027  0  3.926199  0
C  C25  1  0.16050821  0.66836836  0.10784127  1  0  0.13776  0  3.689237  0  0  0.10247  0  3.941249  0  0  0.110413  0  3.959469  0  0  0.047085  0.097439  0  3.928751  0
C  C26  1  0.25285591  0.64803850  0.48151269  1  0  -0.101657  0  3.722914  0  0  -0.112266  0  3.975876  0  0  -0.120266  0  3.998037  0  0  -0.079821  -0.107246  0  3.961248  0
C  C27  1  0.74755437  0.35038731  0.98183098  1  0  -0.105791  0  3.72652  0  0  -0.117063  0  3.980023  0  0  -0.125027  0  4.002151  0  0  -0.081296  -0.112076  0  3.965443  0
C  C28  1  0.74095158  0.35345301  0.51551656  1  0  -0.104712  0  3.723653  0  0  -0.115677  0  3.977197  0  0  -0.123688  0  3.999223  0  0  -0.080231  -0.110619  0  3.962688  0
C  C29  1  0.25879194  0.64810176  0.01477038  1  0  -0.108327  0  3.727114  0  0  -0.119173  0  3.980424  0  0  -0.127142  0  4.002454  0  0  -0.081111  -0.114191  0  3.965959  0
C  C30  1  0.16750008  0.69574039  0.57147445  1  0  -0.022399  0  3.662786  0  0  -0.050556  0  3.912154  0  0  -0.045904  0  3.928459  0  0  -0.05928  -0.053242  0  3.90113  0
C  C31  1  0.83305025  0.30237290  0.07164530  1  0  -0.019555  0  3.66301  0  0  -0.046826  0  3.910978  0  0  -0.042221  0  3.927321  0  0  -0.058417  -0.049528  0  3.899914  0
C  C32  1  0.82808591  0.30583642  0.42597961  1  0  -0.016112  0  3.661752  0  0  -0.044559  0  3.911118  0  0  -0.039833  0  3.927543  0  0  -0.057099  -0.047319  0  3.899948  0
C  C33  1  0.17105667  0.69614993  0.92553899  1  0  -0.017367  0  3.662757  0  0  -0.045551  0  3.912107  0  0  -0.040921  0  3.928323  0  0  -0.058197  -0.048267  0  3.901125  0
C  C34  1  0.98289602  0.76665736  0.56629704  1  0  -0.017466  0  3.74006  0  0  0.002664  0  3.97078  0  0  -0.003719  0  3.994642  0  0  0.001641  0.006565  0  3.95472  0
C  C35  1  0.01811060  0.23184509  0.06657450  1  0  -0.022739  0  3.741593  0  0  -0.002331  0  3.972205  0  0  -0.008752  0  3.996156  0  0  -0.000365  0.001593  0  3.956089  0
C  C36  1  0.01295291  0.23542922  0.43179373  1  0  -0.020684  0  3.740041  0  0  -0.001745  0  3.970761  0  0  -0.008075  0  3.994637  0  0  9.4e-05  0.002123  0  3.954667  0
C  C37  1  0.98563753  0.76594003  0.93146548  1  0  -0.019327  0  3.739952  0  0  -0.000304  0  3.970619  0  0  -0.006627  0  3.994636  0  0  0.00147  0.003527  0  3.954476  0
C  C38  1  0.89550005  0.78634224  0.46999158  1  0  0.076268  0  3.657902  0  0  0.033124  0  3.908235  0  0  0.040299  0  3.925567  0  0  0.042038  0.028598  0  3.896484  0
C  C39  1  0.10551579  0.21240803  0.97035217  1  0  0.077791  0  3.65841  0  0  0.034872  0  3.908418  0  0  0.042081  0  3.925844  0  0  0.042276  0.030337  0  3.8966  0
C  C40  1  0.09907410  0.21586796  0.52848498  1  0  0.080817  0  3.653444  0  0  0.040692  0  3.901594  0  0  0.047687  0  3.919156  0  0  0.044711  0.036256  0  3.889746  0
C  C41  1  0.89959022  0.78480991  0.02818422  1  0  0.082759  0  3.648717  0  0  0.042326  0  3.89691  0  0  0.04932  0  3.914492  0  0  0.045311  0.037963  0  3.88496  0
C  C42  1  0.88202191  0.81628640  0.66036872  1  0  0.21566  0  3.776119  0  0  0.213851  0  4.026513  0  0  0.221046  0  4.046515  0  0  0.121834  0.20916  0  4.012888  0
C  C43  1  0.11851439  0.18277132  0.16101127  1  0  0.217631  0  3.77356  0  0  0.214637  0  4.02508  0  0  0.221849  0  4.045117  0  0  0.121263  0.209925  0  4.011436  0
C  C44  1  0.11468679  0.18557826  0.33823994  1  0  0.216289  0  3.790157  0  0  0.21593  0  4.037832  0  0  0.223087  0  4.05787  0  0  0.120947  0.21128  0  4.024156  0
C  C45  1  0.88412891  0.81532030  0.83765989  1  0  0.214771  0  3.788252  0  0  0.214135  0  4.036461  0  0  0.221259  0  4.056519  0  0  0.119628  0.209525  0  4.022756  0
C  C46  1  0.71120402  0.90144709  0.65772702  1  0  -0.147592  0  3.653387  0  0  -0.179212  0  3.903155  0  0  -0.184287  0  3.92327  0  0  -0.075605  -0.175877  0  3.889792  0
C  C47  1  0.28951044  0.09763358  0.15921469  1  0  -0.150596  0  3.656395  0  0  -0.181667  0  3.906276  0  0  -0.186783  0  3.926487  0  0  -0.076856  -0.178321  0  3.892915  0
C  C48  1  0.28494808  0.10130114  0.34276135  1  0  -0.153738  0  3.675409  0  0  -0.185998  0  3.923709  0  0  -0.191566  0  3.944522  0  0  -0.078506  -0.18237  0  3.909884  0
C  C49  1  0.71378449  0.89971415  0.84136484  1  0  -0.151552  0  3.671451  0  0  -0.183095  0  3.920281  0  0  -0.188611  0  3.940931  0  0  -0.077508  -0.179515  0  3.906566  0
C  C50  1  0.62680022  0.94361793  0.75007011  1  0  -0.003438  0  3.744734  0  0  0.016421  0  3.983413  0  0  0.013185  0  4.003887  0  0  -0.002985  0.01859  0  3.969646  0
C  C51  1  0.37310421  0.05651592  0.25201629  1  0  -0.003112  0  3.745946  0  0  0.017437  0  3.983255  0  0  0.014204  0  4.003853  0  0  -0.00269  0.019596  0  3.969407  0
C  C52  1  0.45317575  0.04207949  0.75507463  1  0  0.627697  0  3.914141  0  0  0.579576  0  4.200398  0  0  0.6133  0  4.193732  0  0  0.19913  0.556778  0  4.20398  0
C  C53  1  0.54725186  0.95858710  0.25952308  1  0  0.627972  0  3.917677  0  0  0.579645  0  4.20393  0  0  0.613359  0  4.197211  0  0  0.199378  0.556846  0  4.207587  0
N  N54  1  0.97815722  0.73948737  0.38248251  1  0  -0.327139  0  3.315221  0  0  -0.235172  0  3.585976  0  0  -0.256865  0  3.60406  0  0  -0.324934  -0.220519  0  3.573334  0
N  N55  1  0.02272302  0.25971426  0.88297952  1  0  -0.329468  0  3.313814  0  0  -0.238005  0  3.584372  0  0  -0.259633  0  3.602568  0  0  -0.326676  -0.223389  0  3.571628  0
N  N56  1  0.01537271  0.26361301  0.61544242  1  0  -0.329161  0  3.312875  0  0  -0.238819  0  3.583021  0  0  -0.260294  0  3.601487  0  0  -0.327601  -0.224309  0  3.570127  0
N  N57  1  0.98394130  0.73651483  0.11484198  1  0  -0.330733  0  3.31423  0  0  -0.241131  0  3.585578  0  0  -0.262457  0  3.603925  0  0  -0.32896  -0.22673  0  3.572788  0
N  N58  1  0.96544165  0.77533672  0.74865489  1  0  -0.352334  0  3.040948  0  0  -0.320377  0  3.301816  0  0  -0.332289  0  3.316419  0  0  -0.299143  -0.312231  0  3.291784  0
N  N59  1  0.03418795  0.22468333  0.24884394  1  0  -0.351845  0  3.040328  0  0  -0.319776  0  3.301442  0  0  -0.331681  0  3.316031  0  0  -0.298716  -0.311634  0  3.291434  0
Cl  Cl60  1  0.54602745  0.51086475  0.24985858  1  0  -0.562526  0  0.942602  0  0  -0.495071  0  1.216034  0  0  -0.512498  0  1.196028  0  0  -0.295463  -0.482395  0  1.229679  0
Cl  Cl61  1  0.45416340  0.48893962  0.75139231  1  0  -0.561534  0  0.943302  0  0  -0.494672  0  1.216962  0  0  -0.512097  0  1.197045  0  0  -0.29543  -0.482005  0  1.230528  0
O  O62  1  0.39123071  0.07995302  0.84190559  1  0  -0.618612  0  1.999312  0  0  -0.560292  0  2.239396  0  0  -0.586692  0  2.232169  0  0  -0.31345  -0.541705  0  2.243797  0
O  O63  1  0.60648271  0.92361089  0.34713078  1  0  -0.615216  0  2.000669  0  0  -0.55961  0  2.239708  0  0  -0.585331  0  2.23259  0  0  -0.312376  -0.541494  0  2.244071  0
O  O64  1  0.62464266  0.90797254  0.17783896  1  0  -0.626727  0  2.016812  0  0  -0.558382  0  2.271518  0  0  -0.58737  0  2.262055  0  0  -0.321228  -0.537868  0  2.276957  0
O  O65  1  0.37845818  0.09082221  0.67251201  1  0  -0.624156  0  2.007753  0  0  -0.557428  0  2.258024  0  0  -0.586206  0  2.249538  0  0  -0.319075  -0.537167  0  2.263049  0
