# generated using pymatgen
data_ZnH17C21N2O7
_symmetry_space_group_name_H-M   'P 1'
_cell_length_a   5.28081816
_cell_length_b   9.60626748
_cell_length_c   40.58750857
_cell_angle_alpha   93.39063897
_cell_angle_beta   90.00048292
_cell_angle_gamma   89.99952738
_symmetry_Int_Tables_number   1
_chemical_formula_structural   ZnH17C21N2O7
_chemical_formula_sum   'Zn4 H68 C84 N8 O28'
_cell_volume   2055.35756132
_cell_formula_units_Z   4
loop_
 _symmetry_equiv_pos_site_id
 _symmetry_equiv_pos_as_xyz
  1  'x, y, z'
loop_
 _atom_site_type_symbol
 _atom_site_label
 _atom_site_symmetry_multiplicity
 _atom_site_fract_x
 _atom_site_fract_y
 _atom_site_fract_z
 _atom_site_occupancy
 _atom_site_pbe_bader_charge
 _atom_site_pbe_bader_spin_density
 _atom_site_pbe_cm5_charge
 _atom_site_pbe_ddec_charge
 _atom_site_pbe_ddec_spin_density
 _atom_site_pbe_ddec_sum_bond_order
 _atom_site_pbe_magmom
Zn  Zn0  1  0.24256725  0.57884048  0.90709390  1  1.281737  0  0.690937  0.866059  0  2.326289  0
Zn  Zn1  1  0.74260943  0.42114484  0.59290634  1  1.28152  0  0.690916  0.86606  0  2.326218  0
Zn  Zn2  1  0.75741435  0.42114436  0.09290549  1  1.281612  0  0.6909  0.866077  0  2.326383  0
Zn  Zn3  1  0.25741762  0.57885667  0.40709500  1  1.281662  0  0.690923  0.866129  0  2.326333  0
H  H4  1  0.56944542  0.24430488  0.84551146  1  0.058261  0  0.098819  0.109644  0  1.03395  0
H  H5  1  0.06947431  0.75569151  0.65448801  1  0.058623  0  0.098728  0.109482  0  1.033869  0
H  H6  1  0.43053618  0.75567685  0.15448640  1  0.058494  0  0.098759  0.109524  0  1.03405  0
H  H7  1  0.93054516  0.24432979  0.34551608  1  0.058515  0  0.098763  0.109561  0  1.033996  0
H  H8  1  0.61072887  0.53016633  0.86367815  1  0.65912  0  0.298689  0.400888  0  0.934475  0
H  H9  1  0.11076330  0.46981947  0.63632269  1  0.65907  0  0.298668  0.400811  0  0.934568  0
H  H10  1  0.38923191  0.46982895  0.13631990  1  0.658992  0  0.298664  0.400835  0  0.934546  0
H  H11  1  0.88922967  0.53016951  0.36367995  1  0.658974  0  0.298716  0.40095  0  0.934397  0
H  H12  1  0.37363744  0.60898523  0.84567211  1  0.671346  0  0.296097  0.392075  0  0.944742  0
H  H13  1  0.87366340  0.39100899  0.65432914  1  0.671108  0  0.296051  0.391937  0  0.944915  0
H  H14  1  0.62632712  0.39101318  0.15432673  1  0.670919  0  0.296107  0.392047  0  0.944796  0
H  H15  1  0.12630874  0.60899564  0.34567349  1  0.671009  0  0.296123  0.392076  0  0.944745  0
H  H16  1  0.13968763  0.13304873  0.91529549  1  0.082463  0  0.099543  0.110174  0  1.025086  0
H  H17  1  0.63971033  0.86694218  0.58470497  1  0.08293  0  0.099528  0.110147  0  1.025  0
H  H18  1  0.86030912  0.86694968  0.08470237  1  0.08239  0  0.099505  0.110177  0  1.025004  0
H  H19  1  0.36031861  0.13305409  0.41529876  1  0.08237  0  0.099505  0.11013  0  1.025064  0
H  H20  1  0.42331053  0.49740123  0.67232391  1  0.675638  0  0.315455  0.378405  0  0.957797  0
H  H21  1  0.92328174  0.50260950  0.82767566  1  0.675838  0  0.315415  0.378362  0  0.957896  0
H  H22  1  0.57664456  0.50262110  0.32768192  1  0.675901  0  0.315412  0.378296  0  0.958069  0
H  H23  1  0.07667335  0.49740144  0.17232016  1  0.675843  0  0.315453  0.378368  0  0.957997  0
H  H24  1  0.36260796  0.87597310  0.83020229  1  0.491729  0  0.301709  0.2611  0  0.994657  0
H  H25  1  0.86266409  0.12403994  0.66979824  1  0.491705  0  0.301724  0.261165  0  0.994439  0
H  H26  1  0.63740962  0.12400238  0.16979450  1  0.492175  0  0.301664  0.26109  0  0.994623  0
H  H27  1  0.13738568  0.87599495  0.33020236  1  0.491991  0  0.301617  0.260932  0  0.994748  0
H  H28  1  0.68652732  0.81222593  0.86645927  1  0.118584  0  0.102964  0.123214  0  1.031823  0
H  H29  1  0.18658339  0.18777103  0.63354453  1  0.118711  0  0.103041  0.123291  0  1.031713  0
H  H30  1  0.31350730  0.18775893  0.13353740  1  0.118849  0  0.103021  0.123319  0  1.031748  0
H  H31  1  0.81347017  0.81224298  0.36645774  1  0.118846  0  0.103034  0.123363  0  1.031729  0
H  H32  1  0.76670120  0.29536323  0.98319067  1  0.071089  0  0.119143  0.128222  0  0.982844  0
H  H33  1  0.26673316  0.70461260  0.51681045  1  0.071374  0  0.119194  0.128208  0  0.982874  0
H  H34  1  0.23329366  0.70459138  0.01680655  1  0.071403  0  0.11919  0.128145  0  0.983039  0
H  H35  1  0.73332041  0.29539306  0.48319268  1  0.071247  0  0.119173  0.128197  0  0.982865  0
H  H36  1  0.17061947  0.15150777  0.83717588  1  0.078928  0  0.102399  0.079806  0  1.027291  0
H  H37  1  0.67064959  0.84850601  0.66282026  1  0.079791  0  0.102418  0.07982  0  1.027219  0
H  H38  1  0.82937349  0.84845724  0.16282494  1  0.078768  0  0.102398  0.079792  0  1.02725  0
H  H39  1  0.32936610  0.15153622  0.33717601  1  0.078614  0  0.102436  0.079889  0  1.027215  0
H  H40  1  0.06071445  0.01345414  0.81102422  1  0.078623  0  0.111421  0.093865  0  0.990419  0
H  H41  1  0.56073071  0.98656528  0.68896844  1  0.078182  0  0.111475  0.093951  0  0.990439  0
H  H42  1  0.93929366  0.98651506  0.18897395  1  0.078175  0  0.111405  0.09388  0  0.990523  0
H  H43  1  0.43928498  0.01347694  0.31102783  1  0.078168  0  0.111394  0.093905  0  0.990509  0
H  H44  1  0.60484794  0.76324990  0.94517452  1  0.188855  0  0.127284  0.113541  0  0.995188  0
H  H45  1  0.10488468  0.23672135  0.55482340  1  0.188892  0  0.127271  0.113424  0  0.995269  0
H  H46  1  0.39516586  0.23670057  0.05481919  1  0.189033  0  0.127334  0.113603  0  0.995304  0
H  H47  1  0.89514615  0.76328954  0.44517907  1  0.188495  0  0.127282  0.113484  0  0.995183  0
H  H48  1  0.12116909  0.40991730  0.74100752  1  0.081874  0  0.104716  0.107808  0  1.015625  0
H  H49  1  0.62109637  0.59012061  0.75899360  1  0.081758  0  0.104678  0.107848  0  1.015611  0
H  H50  1  0.87880873  0.59009669  0.25899894  1  0.082042  0  0.104665  0.107835  0  1.015597  0
H  H51  1  0.37884357  0.40989868  0.24100185  1  0.081931  0  0.104699  0.107887  0  1.015516  0
H  H52  1  0.65712467  0.02509222  0.77930687  1  0.088956  0  0.099207  0.100578  0  1.033503  0
H  H53  1  0.15712774  0.97491218  0.72069355  1  0.088949  0  0.099166  0.100445  0  1.033548  0
H  H54  1  0.34287208  0.97491973  0.22069241  1  0.0889  0  0.099134  0.100432  0  1.033507  0
H  H55  1  0.84286144  0.02509664  0.27930642  1  0.08874  0  0.099136  0.100408  0  1.033438  0
H  H56  1  0.00127748  0.28894838  0.79102989  1  0.097831  0  0.101684  0.109355  0  1.018679  0
H  H57  1  0.50124672  0.71108477  0.70896881  1  0.097949  0  0.101589  0.109222  0  1.018782  0
H  H58  1  0.99870981  0.71104789  0.20897458  1  0.097789  0  0.101626  0.109163  0  1.019094  0
H  H59  1  0.49872163  0.28894600  0.29102606  1  0.097866  0  0.10169  0.109298  0  1.018914  0
H  H60  1  0.78503585  0.15134600  0.72999832  1  0.074374  0  0.103577  0.099436  0  1.043009  0
H  H61  1  0.28500079  0.84865792  0.77000396  1  0.074341  0  0.103546  0.099371  0  1.043318  0
H  H62  1  0.21496280  0.84868159  0.27000266  1  0.073907  0  0.103559  0.099339  0  1.043228  0
H  H63  1  0.71496945  0.15134361  0.22999517  1  0.074289  0  0.103578  0.099354  0  1.043088  0
H  H64  1  0.42879918  0.34307019  0.94328339  1  0.144263  0  0.12628  0.106392  0  0.989566  0
H  H65  1  0.92884820  0.65690296  0.55671786  1  0.144663  0  0.126333  0.106589  0  0.989358  0
H  H66  1  0.57119000  0.65688130  0.05671304  1  0.144778  0  0.126311  0.106564  0  0.989424  0
H  H67  1  0.07121294  0.34311207  0.44328763  1  0.144575  0  0.126318  0.10659  0  0.989394  0
H  H68  1  0.96252510  0.73452370  0.98377972  1  0.072609  0  0.118122  0.129638  0  0.991085  0
H  H69  1  0.46254743  0.26545042  0.51621641  1  0.072072  0  0.118054  0.129551  0  0.99111  0
H  H70  1  0.03748680  0.26542783  0.01621228  1  0.072402  0  0.117955  0.129527  0  0.990997  0
H  H71  1  0.53748151  0.73455318  0.48378522  1  0.072136  0  0.118078  0.129585  0  0.991105  0
C  C72  1  0.66067863  0.16380099  0.85911436  1  0.023849  0  -0.103701  -0.216635  0  3.935374  0
C  C73  1  0.16071661  0.83619297  0.64088542  1  0.0232  0  -0.103602  -0.216314  0  3.935172  0
C  C74  1  0.33931433  0.83618281  0.14088402  1  0.022633  0  -0.103525  -0.21627  0  3.935282  0
C  C75  1  0.83930854  0.16382208  0.35911809  1  0.022514  0  -0.103542  -0.216318  0  3.935165  0
C  C76  1  0.85510156  0.20311457  0.88137251  1  -0.037285  0  -0.032486  -0.053155  0  4.064241  0
C  C77  1  0.35513494  0.79687764  0.61862746  1  -0.037112  0  -0.032573  -0.053542  0  4.064428  0
C  C78  1  0.14488193  0.79687236  0.11862665  1  -0.036969  0  -0.032578  -0.053553  0  4.064359  0
C  C79  1  0.64488264  0.20312907  0.38137520  1  -0.036604  0  -0.032562  -0.053566  0  4.064393  0
C  C80  1  0.98446552  0.10347178  0.89872599  1  0.015867  0  -0.097098  -0.143298  0  3.96616  0
C  C81  1  0.48449416  0.89652099  0.60127437  1  0.014514  0  -0.096993  -0.143119  0  3.966068  0
C  C82  1  0.01553502  0.89651933  0.10127225  1  0.015875  0  -0.097041  -0.143254  0  3.965908  0
C  C83  1  0.51553479  0.10348155  0.39872823  1  0.015815  0  -0.097049  -0.143165  0  3.966172  0
C  C84  1  0.89731565  0.51145054  0.98800655  1  -0.054808  0  0.016499  0.098815  0  3.965772  0
C  C85  1  0.39734717  0.48852796  0.51199302  1  -0.054956  0  0.016444  0.098928  0  3.965733  0
C  C86  1  0.10268489  0.48851034  0.01198879  1  -0.016345  0  0.016381  0.09897  0  3.965702  0
C  C87  1  0.60270261  0.51147875  0.48801038  1  -0.016427  0  0.016392  0.09903  0  3.966001  0
C  C88  1  0.32055676  0.14827757  0.78827988  1  -0.042337  0  3e-05  0.109237  0  3.931219  0
C  C89  1  0.82052948  0.85173563  0.71171887  1  -0.042549  0  7.2e-05  0.109232  0  3.931562  0
C  C90  1  0.67942863  0.85171768  0.21172187  1  -0.042126  0  -1.1e-05  0.109187  0  3.930715  0
C  C91  1  0.17945781  0.14829616  0.28827823  1  -0.042568  0  -4.3e-05  0.109133  0  3.930954  0
C  C92  1  0.07239250  0.85260007  0.90921675  1  1.545429  0  0.198801  0.570074  0  4.213429  0
C  C93  1  0.57243162  0.14739523  0.59078666  1  1.545087  0  0.198964  0.570281  0  4.212838  0
C  C94  1  0.92761561  0.14739833  0.09078184  1  1.545444  0  0.198805  0.569957  0  4.213194  0
C  C95  1  0.42761058  0.85260835  0.40921595  1  1.545412  0  0.198835  0.570018  0  4.213443  0
C  C96  1  0.92265700  0.96244026  0.89282630  1  -0.044882  0  -0.021251  -0.011989  0  3.989621  0
C  C97  1  0.42269683  0.03755063  0.60717619  1  -0.044435  0  -0.021257  -0.011936  0  3.989423  0
C  C98  1  0.07736058  0.03754980  0.10717217  1  -0.044779  0  -0.021298  -0.011838  0  3.989048  0
C  C99  1  0.57735295  0.96245400  0.39282594  1  -0.044836  0  -0.021408  -0.012028  0  3.989563  0
C  C100  1  0.94259062  0.35074917  0.88364297  1  1.535522  0  0.217579  0.596722  0  4.165768  0
C  C101  1  0.44260741  0.64924897  0.61635643  1  1.53547  0  0.21758  0.596909  0  4.165878  0
C  C102  1  0.05738152  0.64924819  0.11635486  1  1.535287  0  0.217743  0.597182  0  4.165699  0
C  C103  1  0.55738555  0.35075356  0.38364739  1  1.53622  0  0.217602  0.596826  0  4.166282  0
C  C104  1  0.59545301  0.02235372  0.85350253  1  0.369417  0  0.09906  0.240384  0  4.089755  0
C  C105  1  0.09550601  0.97764152  0.64649794  1  0.369332  0  0.09898  0.240293  0  4.090008  0
C  C106  1  0.40455700  0.97762487  0.14649504  1  0.370031  0  0.09907  0.240504  0  4.089899  0
C  C107  1  0.90453619  0.02237666  0.35350512  1  0.36966  0  0.099078  0.240478  0  4.090075  0
C  C108  1  0.73134533  0.92262726  0.87055058  1  -0.037512  0  -0.087585  -0.177683  0  3.879686  0
C  C109  1  0.23139922  0.07737059  0.62945229  1  -0.03757  0  -0.087603  -0.177702  0  3.879603  0
C  C110  1  0.26867982  0.07735655  0.12944780  1  -0.037575  0  -0.087662  -0.178014  0  3.879482  0
C  C111  1  0.76865813  0.92264238  0.37054971  1  -0.0376  0  -0.087601  -0.177948  0  3.87974  0
C  C112  1  0.74180429  0.40145207  0.97575789  1  0.074289  0  -0.072889  -0.153835  0  3.924262  0
C  C113  1  0.24183286  0.59852490  0.52424346  1  0.07431  0  -0.072905  -0.153631  0  3.924227  0
C  C114  1  0.25819814  0.59850567  0.02423888  1  0.074747  0  -0.072951  -0.153666  0  3.92441  0
C  C115  1  0.75822449  0.40148285  0.47575995  1  0.074825  0  -0.072838  -0.153688  0  3.924226  0
C  C116  1  0.53619674  0.35608222  0.70202595  1  1.495268  0  0.241931  0.593469  0  4.106942  0
C  C117  1  0.03615755  0.64392993  0.79797421  1  1.494942  0  0.241794  0.593267  0  4.106713  0
C  C118  1  0.46376971  0.64394014  0.29797644  1  1.494514  0  0.242099  0.59359  0  4.106919  0
C  C119  1  0.96380322  0.35607579  0.20202325  1  1.494761  0  0.241881  0.593293  0  4.107066  0
C  C120  1  0.46026880  0.28713824  0.73208769  1  -0.119842  0  -0.028054  -0.081708  0  4.022948  0
C  C121  1  0.96021732  0.71287547  0.76791320  1  -0.120926  0  -0.027984  -0.081306  0  4.022454  0
C  C122  1  0.53969765  0.71288202  0.26791664  1  -0.120362  0  -0.028051  -0.081509  0  4.023152  0
C  C123  1  0.03974345  0.28713442  0.23208334  1  -0.120085  0  -0.027958  -0.081325  0  4.022463  0
C  C124  1  0.23234478  0.07317954  0.81793059  1  0.329722  0  -0.057375  -0.069108  0  3.987288  0
C  C125  1  0.73235591  0.92682565  0.68206721  1  0.329481  0  -0.057463  -0.069267  0  3.987504  0
C  C126  1  0.76765387  0.92680427  0.18206656  1  0.330195  0  -0.057412  -0.06922  0  3.987363  0
C  C127  1  0.26764842  0.07319881  0.31793373  1  0.330426  0  -0.057424  -0.069412  0  3.987263  0
C  C128  1  0.65199520  0.66174072  0.95421589  1  0.448626  0  0.06028  0.113365  0  3.914065  0
C  C129  1  0.15203341  0.33823659  0.54578315  1  0.44884  0  0.060206  0.113574  0  3.914006  0
C  C130  1  0.34801480  0.33821704  0.04577891  1  0.448516  0  0.060145  0.113329  0  3.914243  0
C  C131  1  0.84800879  0.66177011  0.45422049  1  0.44927  0  0.060245  0.113545  0  3.913913  0
C  C132  1  0.23950970  0.32661505  0.74961030  1  0.03347  0  -0.080755  -0.072904  0  3.966549  0
C  C133  1  0.73945393  0.67341513  0.75038985  1  0.033401  0  -0.080714  -0.072996  0  3.966494  0
C  C134  1  0.76046244  0.67339894  0.25039566  1  0.033219  0  -0.080777  -0.07321  0  3.966616  0
C  C135  1  0.26050116  0.32660520  0.24960586  1  0.033117  0  -0.080934  -0.073415  0  3.96675  0
C  C136  1  0.54105075  0.11003641  0.77091114  1  -0.012106  0  -0.092266  -0.137018  0  3.964379  0
C  C137  1  0.04102931  0.88996946  0.72908918  1  -0.011811  0  -0.092224  -0.136841  0  3.964401  0
C  C138  1  0.45893086  0.88996927  0.22908977  1  -0.011664  0  -0.092068  -0.136646  0  3.96393  0
C  C139  1  0.95895230  0.11004667  0.27090918  1  -0.011267  0  -0.092082  -0.136728  0  3.963817  0
C  C140  1  0.17272800  0.25816236  0.77753021  1  -0.077239  0  -0.094049  -0.14357  0  3.964807  0
C  C141  1  0.67268815  0.74186494  0.72246859  1  -0.077455  0  -0.093917  -0.143382  0  3.964924  0
C  C142  1  0.82725739  0.74183704  0.22247357  1  -0.076768  0  -0.09394  -0.143208  0  3.96504  0
C  C143  1  0.32728777  0.25816790  0.27752705  1  -0.07732  0  -0.09391  -0.143199  0  3.965029  0
C  C144  1  0.61123912  0.17936564  0.74318402  1  -0.013616  0  -0.080486  -0.080902  0  3.985738  0
C  C145  1  0.11120366  0.82064205  0.75681788  1  -0.012443  0  -0.080476  -0.081042  0  3.985942  0
C  C146  1  0.38874249  0.82065255  0.25681831  1  -0.013488  0  -0.080496  -0.080961  0  3.986126  0
C  C147  1  0.88876848  0.17936784  0.24317964  1  -0.013215  0  -0.080545  -0.081007  0  3.985572  0
C  C148  1  0.55095980  0.42640894  0.95343165  1  0.396717  0  0.052239  0.098335  0  3.929631  0
C  C149  1  0.05099975  0.57356978  0.54656927  1  0.396874  0  0.052126  0.098014  0  3.92981  0
C  C150  1  0.44903127  0.57355299  0.04656419  1  0.396673  0  0.052181  0.098167  0  3.929961  0
C  C151  1  0.94905760  0.42643692  0.45343535  1  0.39653  0  0.05216  0.098147  0  3.929766  0
C  C152  1  0.84863987  0.64368666  0.97633670  1  0.041147  0  -0.073097  -0.169767  0  3.924256  0
C  C153  1  0.34867819  0.35628786  0.52366104  1  0.041462  0  -0.073064  -0.169965  0  3.924203  0
C  C154  1  0.15136257  0.35627111  0.02365663  1  0.041166  0  -0.072844  -0.169686  0  3.923879  0
C  C155  1  0.65135644  0.64371468  0.47634254  1  0.041707  0  -0.073013  -0.169931  0  3.924161  0
N  N156  1  0.41151053  0.97849137  0.83122375  1  -1.261487  0  -0.448116  -0.347702  0  3.604862  0
N  N157  1  0.91155319  0.02151106  0.66877618  1  -1.261233  0  -0.448068  -0.347769  0  3.604688  0
N  N158  1  0.58849947  0.02148828  0.16877236  1  -1.261852  0  -0.448026  -0.347652  0  3.604901  0
N  N159  1  0.08847954  0.97851443  0.33122625  1  -1.261566  0  -0.447964  -0.347349  0  3.604861  0
N  N160  1  0.50490300  0.55468903  0.94291013  1  -1.255648  0  -0.328965  -0.24239  0  3.573253  0
N  N161  1  0.00494772  0.44528987  0.55708952  1  -1.256132  0  -0.328804  -0.242399  0  3.573505  0
N  N162  1  0.49509186  0.44527290  0.05708498  1  -1.256522  0  -0.328839  -0.242543  0  3.573846  0
N  N163  1  0.99510016  0.55471788  0.44291488  1  -1.256697  0  -0.32886  -0.242527  0  3.573787  0
O  O164  1  0.87010611  0.43302328  0.86196958  1  -1.231827  0  -0.324145  -0.594546  0  2.299688  0
O  O165  1  0.37013522  0.56697305  0.63802898  1  -1.231728  0  -0.324115  -0.594581  0  2.299603  0
O  O166  1  0.12984519  0.56696991  0.13802820  1  -1.231659  0  -0.324082  -0.594534  0  2.299692  0
O  O167  1  0.62982556  0.43303470  0.36197393  1  -1.232439  0  -0.324018  -0.594338  0  2.299721  0
O  O168  1  0.72845079  0.32136745  0.68576566  1  -1.178557  0  -0.280782  -0.505703  0  2.212077  0
O  O169  1  0.22842157  0.67863358  0.81423306  1  -1.178247  0  -0.280743  -0.505711  0  2.211858  0
O  O170  1  0.27150241  0.67865284  0.31423595  1  -1.178136  0  -0.280908  -0.505887  0  2.211856  0
O  O171  1  0.77153921  0.32136381  0.18576231  1  -1.177976  0  -0.280797  -0.505717  0  2.211879  0
O  O172  1  0.46016088  0.59169801  0.86690441  1  -1.291286  0  -0.577204  -0.756036  0  2.185447  0
O  O173  1  0.96019837  0.40828650  0.63309630  1  -1.290802  0  -0.577178  -0.755861  0  2.185587  0
O  O174  1  0.53980747  0.40830248  0.13309372  1  -1.290592  0  -0.577215  -0.755985  0  2.185547  0
O  O175  1  0.03980406  0.59169414  0.36690622  1  -1.290622  0  -0.577278  -0.756119  0  2.185426  0
O  O176  1  0.09395743  0.38838460  0.90726810  1  -1.174999  0  -0.320351  -0.557918  0  2.361788  0
O  O177  1  0.59397364  0.61160230  0.59273323  1  -1.175175  0  -0.320379  -0.558  0  2.361896  0
O  O178  1  0.90600902  0.61160963  0.09273067  1  -1.17513  0  -0.320544  -0.558262  0  2.361859  0
O  O179  1  0.40602121  0.38839501  0.40727150  1  -1.17528  0  -0.320509  -0.558136  0  2.362128  0
O  O180  1  0.38103405  0.45779440  0.69418142  1  -1.17702  0  -0.323667  -0.475149  0  2.335142  0
O  O181  1  0.88099746  0.54222066  0.80581915  1  -1.176945  0  -0.323676  -0.475146  0  2.33505  0
O  O182  1  0.61892483  0.54223107  0.30582397  1  -1.177032  0  -0.323658  -0.475061  0  2.335459  0
O  O183  1  0.11893680  0.45778715  0.19417785  1  -1.177453  0  -0.323613  -0.475026  0  2.335594  0
O  O184  1  0.00636941  0.72503436  0.89983449  1  -1.159489  0  -0.343125  -0.577269  0  2.384411  0
O  O185  1  0.50639752  0.27496328  0.60016715  1  -1.159316  0  -0.343155  -0.577273  0  2.384255  0
O  O186  1  0.99362923  0.27496402  0.10016705  1  -1.159406  0  -0.343155  -0.577272  0  2.384378  0
O  O187  1  0.49361628  0.72504033  0.39983226  1  -1.159396  0  -0.343113  -0.577232  0  2.384491  0
O  O188  1  0.24417501  0.88373013  0.92942588  1  -1.175092  0  -0.336967  -0.562313  0  2.086026  0
O  O189  1  0.74422466  0.11626974  0.57057925  1  -1.174657  0  -0.337146  -0.562531  0  2.085867  0
O  O190  1  0.75584447  0.11626516  0.07057119  1  -1.175051  0  -0.336958  -0.562247  0  2.085928  0
O  O191  1  0.25583837  0.88373277  0.42942654  1  -1.175011  0  -0.337013  -0.562322  0  2.086095  0
