# generated using pymatgen
data_CdH22C24(N2Cl)2
_symmetry_space_group_name_H-M   'P 1'
_cell_length_a   9.57089812
_cell_length_b   10.35750964
_cell_length_c   26.36707633
_cell_angle_alpha   90.00058484
_cell_angle_beta   90.00000395
_cell_angle_gamma   96.49555982
_symmetry_Int_Tables_number   1
_chemical_formula_structural   CdH22C24(N2Cl)2
_chemical_formula_sum   'Cd4 H88 C96 N16 Cl8'
_cell_volume   2597.00706034
_cell_formula_units_Z   4
loop_
 _symmetry_equiv_pos_site_id
 _symmetry_equiv_pos_as_xyz
  1  'x, y, z'
loop_
 _atom_site_type_symbol
 _atom_site_label
 _atom_site_symmetry_multiplicity
 _atom_site_fract_x
 _atom_site_fract_y
 _atom_site_fract_z
 _atom_site_occupancy
 _atom_site_pbe_bader_charge
 _atom_site_pbe_bader_spin_density
 _atom_site_pbe_cm5_charge
 _atom_site_pbe_ddec_charge
 _atom_site_pbe_ddec_spin_density
 _atom_site_pbe_ddec_sum_bond_order
 _atom_site_pbe_magmom
Cd  Cd0  1  0.75359635  0.23846915  0.39740102  1  1.096618  0  0.647706  0.761782  0  2.439209  0
Cd  Cd1  1  0.24640109  0.26152883  0.89739809  1  1.096659  0  0.647735  0.761856  0  2.439101  0
Cd  Cd2  1  0.24639717  0.76152260  0.60260116  1  1.096679  0  0.647745  0.761902  0  2.439182  0
Cd  Cd3  1  0.75360397  0.73847050  0.10259877  1  1.096623  0  0.647753  0.761913  0  2.439172  0
H  H4  1  0.81704800  0.52649169  0.32805451  1  0.104284  0  0.106556  0.095656  0  1.025205  0
H  H5  1  0.18294481  0.97350939  0.82805473  1  0.104233  0  0.106528  0.095624  0  1.025294  0
H  H6  1  0.18291885  0.47351809  0.67194501  1  0.104369  0  0.106561  0.095758  0  1.025034  0
H  H7  1  0.81707414  0.02648482  0.17194555  1  0.104322  0  0.106582  0.095748  0  1.025113  0
H  H8  1  0.95888183  0.51110205  0.28631644  1  0.078321  0  0.116341  0.10495  0  0.9668  0
H  H9  1  0.04111112  0.98889989  0.78631748  1  0.078492  0  0.116331  0.104906  0  0.966881  0
H  H10  1  0.04108438  0.48889606  0.71368384  1  0.07856  0  0.116327  0.1049  0  0.966919  0
H  H11  1  0.95890548  0.01110702  0.21368356  1  0.078669  0  0.116336  0.104935  0  0.966954  0
H  H12  1  0.16918722  0.04305002  0.43588156  1  0.132794  0  0.104915  0.106936  0  1.025793  0
H  H13  1  0.83081355  0.45695670  0.93587906  1  0.132825  0  0.104912  0.106986  0  1.025817  0
H  H14  1  0.83080247  0.95693694  0.56412100  1  0.13276  0  0.104863  0.106895  0  1.025895  0
H  H15  1  0.16919527  0.54305425  0.06412198  1  0.132902  0  0.104914  0.106986  0  1.025812  0
H  H16  1  0.19563956  0.91918980  0.47923475  1  0.092602  0  0.107751  0.09553  0  1.013455  0
H  H17  1  0.80435962  0.58081218  0.97923565  1  0.092545  0  0.107736  0.095515  0  1.013489  0
H  H18  1  0.80435743  0.08079702  0.52076553  1  0.092228  0  0.107764  0.09556  0  1.013406  0
H  H19  1  0.19564329  0.41919401  0.02076501  1  0.092155  0  0.10776  0.095561  0  1.013421  0
H  H20  1  0.33807370  0.72170270  0.47894460  1  0.067599  0  0.103082  0.113804  0  1.019019  0
H  H21  1  0.66194111  0.77829899  0.97893834  1  0.067628  0  0.103045  0.113696  0  1.019026  0
H  H22  1  0.66193122  0.27829566  0.52106289  1  0.067828  0  0.10309  0.113751  0  1.018894  0
H  H23  1  0.33807409  0.22169821  0.02105853  1  0.067805  0  0.103095  0.113808  0  1.018964  0
H  H24  1  0.44605297  0.28916526  0.39942751  1  0.106177  0  0.090586  0.153557  0  1.045127  0
H  H25  1  0.55395045  0.21083072  0.89942856  1  0.10615  0  0.090561  0.153503  0  1.045217  0
H  H26  1  0.55393957  0.71081969  0.60057164  1  0.105958  0  0.090577  0.153551  0  1.04515  0
H  H27  1  0.44606649  0.78917132  0.10057059  1  0.105796  0  0.090556  0.153532  0  1.045226  0
H  H28  1  0.27359800  0.20817632  0.40896727  1  0.096905  0  0.097008  0.155259  0  1.017275  0
H  H29  1  0.72640232  0.29181996  0.90896941  1  0.096722  0  0.096991  0.155231  0  1.017358  0
H  H30  1  0.72639177  0.79181842  0.59102998  1  0.096922  0  0.097012  0.155239  0  1.017369  0
H  H31  1  0.27361316  0.70817918  0.09103163  1  0.096954  0  0.097026  0.155282  0  1.017221  0
H  H32  1  0.36389264  0.18799980  0.35097180  1  0.037955  0  0.097878  0.145898  0  0.981097  0
H  H33  1  0.63610720  0.31199303  0.85097477  1  0.038085  0  0.097846  0.145816  0  0.981271  0
H  H34  1  0.63610358  0.81198898  0.64902735  1  0.038072  0  0.097866  0.145841  0  0.981216  0
H  H35  1  0.36390828  0.68800611  0.14902589  1  0.03807  0  0.097823  0.145822  0  0.981168  0
H  H36  1  0.78934517  0.72555842  0.47879442  1  0.094752  0  0.096383  0.101768  0  1.020778  0
H  H37  1  0.21067069  0.77445785  0.97878738  1  0.094482  0  0.096304  0.101799  0  1.020541  0
H  H38  1  0.21066268  0.27444573  0.52121041  1  0.094798  0  0.096324  0.10176  0  1.020652  0
H  H39  1  0.78934604  0.22555003  0.02120342  1  0.094335  0  0.096393  0.101789  0  1.020808  0
H  H40  1  0.89248332  0.59178662  0.40680968  1  0.12899  0  0.088256  0.101295  0  1.070374  0
H  H41  1  0.10750922  0.90822723  0.90681001  1  0.128845  0  0.088239  0.101315  0  1.070353  0
H  H42  1  0.10749596  0.40821514  0.59319060  1  0.12906  0  0.088315  0.101334  0  1.070335  0
H  H43  1  0.89249182  0.09178776  0.09319065  1  0.129062  0  0.088279  0.101319  0  1.0704  0
H  H44  1  0.68366068  0.73251498  0.35444087  1  0.094454  0  0.105954  0.124596  0  1.019558  0
H  H45  1  0.31632014  0.76748993  0.85444214  1  0.09433  0  0.105968  0.12465  0  1.019541  0
H  H46  1  0.31631820  0.26749848  0.64555790  1  0.094243  0  0.105983  0.124677  0  1.019506  0
H  H47  1  0.68367574  0.23250372  0.14556079  1  0.09439  0  0.106003  0.124715  0  1.019486  0
H  H48  1  0.03200621  0.74668846  0.46443943  1  0.090611  0  0.091947  0.104067  0  1.047014  0
H  H49  1  0.96798820  0.75332394  0.96444066  1  0.090547  0  0.09195  0.104041  0  1.047052  0
H  H50  1  0.96797807  0.25330444  0.53555971  1  0.090513  0  0.091997  0.104159  0  1.0471  0
H  H51  1  0.03200867  0.24669113  0.03555848  1  0.090516  0  0.091952  0.104079  0  1.047012  0
H  H52  1  0.11086247  0.77557971  0.27824896  1  0.060792  0  0.095638  0.094013  0  1.008802  0
H  H53  1  0.88913635  0.72441217  0.77824931  1  0.060806  0  0.095663  0.094025  0  1.008757  0
H  H54  1  0.88911952  0.22441908  0.72174905  1  0.06093  0  0.095728  0.094137  0  1.008842  0
H  H55  1  0.11088517  0.27557809  0.22174983  1  0.060934  0  0.095667  0.094044  0  1.008799  0
H  H56  1  0.82219919  0.94496718  0.43822154  1  0.101258  0  0.09493  0.109275  0  1.034043  0
H  H57  1  0.17780347  0.55504438  0.93822233  1  0.101435  0  0.094892  0.109171  0  1.034065  0
H  H58  1  0.17780017  0.05503615  0.56177988  1  0.101256  0  0.094897  0.109176  0  1.034104  0
H  H59  1  0.82220716  0.44496459  0.06177378  1  0.101191  0  0.094943  0.109352  0  1.033955  0
H  H60  1  0.24791642  0.93029659  0.33566254  1  0.045598  0  0.09731  0.093985  0  1.017341  0
H  H61  1  0.75208468  0.56969674  0.83566302  1  0.045627  0  0.097309  0.093999  0  1.017215  0
H  H62  1  0.75207272  0.06970109  0.66433774  1  0.045589  0  0.09733  0.094041  0  1.017306  0
H  H63  1  0.24793093  0.43028876  0.16433574  1  0.045554  0  0.097297  0.093983  0  1.017319  0
H  H64  1  0.56779499  0.89996927  0.18098246  1  0.085686  0  0.095361  0.112766  0  1.04175  0
H  H65  1  0.43221329  0.60002282  0.68098723  1  0.085819  0  0.09536  0.112767  0  1.041727  0
H  H66  1  0.43221293  0.10004267  0.81901137  1  0.085917  0  0.095381  0.112777  0  1.041761  0
H  H67  1  0.56778021  0.39995432  0.31901760  1  0.085871  0  0.095321  0.112639  0  1.041809  0
H  H68  1  0.50387771  0.88555152  0.34361366  1  0.056511  0  0.094127  0.089871  0  1.05695  0
H  H69  1  0.49610836  0.61446081  0.84361962  1  0.056711  0  0.094211  0.089987  0  1.056728  0
H  H70  1  0.49611501  0.11447824  0.65638018  1  0.05687  0  0.094221  0.090015  0  1.056641  0
H  H71  1  0.50387472  0.38551653  0.15638711  1  0.056553  0  0.094244  0.090075  0  1.056732  0
H  H72  1  0.55315606  0.61691582  0.49864774  1  0.113551  0  0.096671  0.105132  0  1.011621  0
H  H73  1  0.44685973  0.88309999  0.99863849  1  0.113201  0  0.096684  0.105217  0  1.011631  0
H  H74  1  0.44685101  0.38309029  0.50136012  1  0.113146  0  0.096669  0.105162  0  1.011448  0
H  H75  1  0.55315597  0.11690791  0.00135496  1  0.113409  0  0.096686  0.105187  0  1.011605  0
H  H76  1  0.97367969  0.59162514  0.15110973  1  0.119804  0  0.090577  0.152828  0  1.04403  0
H  H77  1  0.02631947  0.90837609  0.65110779  1  0.119775  0  0.090592  0.152873  0  1.044045  0
H  H78  1  0.02631481  0.40837342  0.84889472  1  0.119537  0  0.090655  0.152931  0  1.044017  0
H  H79  1  0.97369803  0.09162983  0.34889212  1  0.119582  0  0.090639  0.152852  0  1.044036  0
H  H80  1  0.05699863  0.57517505  0.21075870  1  0.031822  0  0.099272  0.142141  0  0.994526  0
H  H81  1  0.94300372  0.92482670  0.71075646  1  0.031938  0  0.099264  0.142157  0  0.994611  0
H  H82  1  0.94298691  0.42482660  0.78924613  1  0.031771  0  0.099233  0.14214  0  0.994539  0
H  H83  1  0.05701476  0.07518602  0.28924117  1  0.031809  0  0.099361  0.142338  0  0.994457  0
H  H84  1  0.91397838  0.46077349  0.19234498  1  0.088027  0  0.099449  0.150203  0  1.015065  0
H  H85  1  0.08602800  0.03922093  0.69234609  1  0.088128  0  0.099465  0.150234  0  1.015069  0
H  H86  1  0.08601507  0.53922508  0.80765757  1  0.088093  0  0.099464  0.150199  0  1.015101  0
H  H87  1  0.91399311  0.96078103  0.30765344  1  0.088254  0  0.099437  0.150198  0  1.015075  0
H  H88  1  0.44784270  0.96988200  0.25894119  1  0.036749  0  0.09618  0.096577  0  0.997043  0
H  H89  1  0.55215905  0.53012296  0.75895022  1  0.036685  0  0.096157  0.096548  0  0.997197  0
H  H90  1  0.55216669  0.03014745  0.74105037  1  0.036858  0  0.096205  0.096589  0  0.99724  0
H  H91  1  0.44781937  0.46984375  0.24105613  1  0.036637  0  0.09622  0.096662  0  0.997092  0
C  C92  1  0.89867598  0.58180929  0.30495195  1  0.25632  0  -0.045248  -0.094886  0  3.891798  0
C  C93  1  0.10131419  0.91819513  0.80495346  1  0.256088  0  -0.045272  -0.094851  0  3.891848  0
C  C94  1  0.10129260  0.41819072  0.69505023  1  0.256283  0  -0.045222  -0.094934  0  3.891687  0
C  C95  1  0.89869976  0.08180793  0.19504910  1  0.25657  0  -0.045306  -0.095022  0  3.891803  0
C  C96  1  0.14629816  0.85070733  0.40393616  1  0.040725  0  -0.012256  0.09198  0  3.963197  0
C  C97  1  0.85369743  0.64929860  0.90393810  1  0.040624  0  -0.012205  0.091987  0  3.963404  0
C  C98  1  0.85369384  0.14928835  0.59606526  1  0.040416  0  -0.012176  0.092081  0  3.962936  0
C  C99  1  0.14630166  0.35070279  0.09606294  1  0.040389  0  -0.012213  0.092007  0  3.963111  0
C  C100  1  0.21594244  0.95146887  0.43994529  1  0.288384  0  -0.049734  -0.106797  0  3.901946  0
C  C101  1  0.78406327  0.54853489  0.93994606  1  0.288373  0  -0.049733  -0.106919  0  3.902052  0
C  C102  1  0.78404815  0.04851709  0.56005575  1  0.288854  0  -0.049695  -0.106763  0  3.90176  0
C  C103  1  0.21595347  0.45147299  0.06005612  1  0.288857  0  -0.049812  -0.107049  0  3.902012  0
C  C104  1  0.46226040  0.89334303  0.44799916  1  0.241978  0  0.087453  0.084002  0  4.028826  0
C  C105  1  0.53773957  0.60665715  0.94799826  1  0.242264  0  0.087524  0.083931  0  4.028814  0
C  C106  1  0.53773861  0.10665057  0.55200454  1  0.242229  0  0.087419  0.083862  0  4.02902  0
C  C107  1  0.46226847  0.39334116  0.05200202  1  0.242044  0  0.087374  0.084055  0  4.028713  0
C  C108  1  0.44225290  0.77048338  0.47030703  1  0.017191  0  -0.097799  -0.165703  0  4.003765  0
C  C109  1  0.55776514  0.72951899  0.97030322  1  0.016953  0  -0.097776  -0.165442  0  4.003435  0
C  C110  1  0.55774937  0.22951113  0.52969704  1  0.01699  0  -0.097763  -0.165427  0  4.003606  0
C  C111  1  0.44225166  0.27048207  0.02969440  1  0.016951  0  -0.097845  -0.165746  0  4.003701  0
C  C112  1  0.37694894  0.19894576  0.39232225  1  -0.062074  0  -0.235293  -0.472902  0  3.930423  0
C  C113  1  0.62305792  0.30104510  0.89232291  1  -0.062154  0  -0.235202  -0.472636  0  3.93034  0
C  C114  1  0.62304221  0.80104409  0.60767651  1  -0.06204  0  -0.235246  -0.472726  0  3.930387  0
C  C115  1  0.37696353  0.69895198  0.10767624  1  -0.06177  0  -0.235203  -0.472753  0  3.93043  0
C  C116  1  0.72557606  0.73103152  0.27305414  1  0.322559  0  0.088276  0.085417  0  4.022007  0
C  C117  1  0.27441657  0.76896813  0.77305542  1  0.32239  0  0.088472  0.085696  0  4.021933  0
C  C118  1  0.27440789  0.26898087  0.72694539  1  0.3231  0  0.088352  0.085715  0  4.021762  0
C  C119  1  0.72558514  0.23102250  0.22694638  1  0.322731  0  0.088391  0.085662  0  4.021825  0
C  C120  1  0.69805809  0.77482810  0.46958189  1  -0.087545  0  -0.099205  -0.085372  0  4.003229  0
C  C121  1  0.30196239  0.72518395  0.96957579  1  -0.087662  0  -0.099199  -0.085607  0  4.003162  0
C  C122  1  0.30194691  0.22517805  0.53041990  1  -0.087937  0  -0.099133  -0.085355  0  4.00314  0
C  C123  1  0.69805955  0.27482384  0.03041463  1  -0.087412  0  -0.099152  -0.085334  0  4.003064  0
C  C124  1  0.59690044  0.95722113  0.43645762  1  0.410711  0  0.077681  0.138131  0  4.092649  0
C  C125  1  0.40310338  0.54277673  0.93645836  1  0.410672  0  0.077776  0.138314  0  4.092868  0
C  C126  1  0.40309572  0.04277447  0.56354228  1  0.410578  0  0.077745  0.138253  0  4.092442  0
C  C127  1  0.59690675  0.45722153  0.06354040  1  0.410992  0  0.077676  0.138121  0  4.09268  0
C  C128  1  0.97131170  0.66555162  0.39122069  1  -0.046352  0  -0.091328  -0.121641  0  3.972537  0
C  C129  1  0.02868113  0.83445696  0.89122034  1  -0.046771  0  -0.091258  -0.121626  0  3.972476  0
C  C130  1  0.02866682  0.33445211  0.60877694  1  -0.04687  0  -0.091219  -0.121482  0  3.972126  0
C  C131  1  0.97131566  0.16555032  0.10877767  1  -0.046903  0  -0.091229  -0.121561  0  3.972105  0
C  C132  1  0.99071045  0.67382446  0.33876741  1  -0.076037  0  -0.018914  0.07597  0  3.983512  0
C  C133  1  0.00928505  0.82618074  0.83876627  1  -0.076082  0  -0.018894  0.075961  0  3.983616  0
C  C134  1  0.00926021  0.32617551  0.66123021  1  -0.075868  0  -0.018987  0.075905  0  3.983406  0
C  C135  1  0.99072856  0.17382720  0.16123136  1  -0.075717  0  -0.018998  0.075962  0  3.983471  0
C  C136  1  0.65909530  0.76822011  0.31698286  1  -0.003066  0  -0.094944  -0.158749  0  3.975286  0
C  C137  1  0.34088768  0.73177794  0.81698589  1  -0.002812  0  -0.095136  -0.159147  0  3.975599  0
C  C138  1  0.34089253  0.23179026  0.68301401  1  -0.002779  0  -0.095048  -0.159006  0  3.97541  0
C  C139  1  0.65910458  0.26820507  0.18302008  1  -0.002465  0  -0.094971  -0.158879  0  3.975407  0
C  C140  1  0.69204558  0.77590772  0.22430593  1  0.344863  0  0.07831  0.138267  0  4.08945  0
C  C141  1  0.30795967  0.72409238  0.72430779  1  0.34461  0  0.078182  0.138281  0  4.089515  0
C  C142  1  0.30795115  0.22410638  0.77569169  1  0.346146  0  0.07823  0.138255  0  4.089789  0
C  C143  1  0.69204399  0.27589724  0.27569590  1  0.346361  0  0.078262  0.138261  0  4.08942  0
C  C144  1  0.04880155  0.75280924  0.42347700  1  -0.083664  0  -0.088336  -0.119755  0  3.961081  0
C  C145  1  0.95119647  0.74719910  0.92347820  1  -0.083054  0  -0.0884  -0.119734  0  3.961053  0
C  C146  1  0.95118065  0.24718370  0.57651873  1  -0.082936  0  -0.088516  -0.119992  0  3.961079  0
C  C147  1  0.04880860  0.25281484  0.07651981  1  -0.083088  0  -0.088424  -0.11985  0  3.960952  0
C  C148  1  0.09308058  0.76822354  0.31915261  1  0.005029  0  -0.098429  -0.143599  0  4.021529  0
C  C149  1  0.90691936  0.73177620  0.81915299  1  0.005068  0  -0.098446  -0.143547  0  4.02137  0
C  C150  1  0.90690391  0.23177812  0.68084957  1  0.004938  0  -0.098553  -0.143712  0  4.021404  0
C  C151  1  0.09309452  0.26821907  0.18084843  1  0.004749  0  -0.09848  -0.143655  0  4.021372  0
C  C152  1  0.44185798  0.08745387  0.41366948  1  1.004149  0  0.233168  0.37032  0  3.954254  0
C  C153  1  0.55814521  0.41254054  0.91367059  1  1.004001  0  0.233101  0.370083  0  3.954196  0
C  C154  1  0.55813359  0.91253890  0.58633156  1  1.004217  0  0.233105  0.370193  0  3.954016  0
C  C155  1  0.44186881  0.58745571  0.08633007  1  1.004331  0  0.233136  0.370205  0  3.954336  0
C  C156  1  0.71751057  0.89720027  0.44696189  1  -0.04619  0  -0.099879  -0.167328  0  3.989678  0
C  C157  1  0.28249621  0.60280365  0.94696022  1  -0.046164  0  -0.099887  -0.167174  0  3.989673  0
C  C158  1  0.28249088  0.10280303  0.55303877  1  -0.046067  0  -0.0999  -0.167246  0  3.989559  0
C  C159  1  0.71751670  0.39719943  0.05303362  1  -0.046084  0  -0.099943  -0.16748  0  3.9895  0
C  C160  1  0.85482932  0.64543348  0.21408724  1  0.988057  0  0.23222  0.372815  0  3.960771  0
C  C161  1  0.14517054  0.85456547  0.71408584  1  0.988074  0  0.232209  0.372854  0  3.960636  0
C  C162  1  0.14515990  0.35457199  0.78591304  1  0.988249  0  0.232142  0.372771  0  3.960809  0
C  C163  1  0.85484063  0.14543277  0.28591406  1  0.988365  0  0.232107  0.372722  0  3.961023  0
C  C164  1  0.17009612  0.85598394  0.35149274  1  -0.123663  0  -0.094504  -0.129039  0  3.999377  0
C  C165  1  0.82990380  0.64401567  0.85149580  1  -0.123592  0  -0.094549  -0.129129  0  3.999259  0
C  C166  1  0.82989219  0.14400791  0.64850678  1  -0.123661  0  -0.094639  -0.129263  0  3.999123  0
C  C167  1  0.17011092  0.35598543  0.14850600  1  -0.12352  0  -0.094558  -0.129055  0  3.99893  0
C  C168  1  0.59120915  0.86261781  0.21835399  1  -0.017294  0  -0.101939  -0.169828  0  3.999544  0
C  C169  1  0.40878892  0.63738324  0.71835701  1  -0.017089  0  -0.101966  -0.16994  0  3.999603  0
C  C170  1  0.40879315  0.13740592  0.78164477  1  -0.0189  0  -0.101896  -0.169782  0  3.999394  0
C  C171  1  0.59120056  0.36259495  0.28164668  1  -0.01912  0  -0.101832  -0.169534  0  3.999419  0
C  C172  1  0.55822747  0.85405796  0.31038845  1  -0.045402  0  -0.10035  -0.084079  0  4.023227  0
C  C173  1  0.44175376  0.64594969  0.81039302  1  -0.045773  0  -0.100266  -0.083974  0  4.023038  0
C  C174  1  0.44176128  0.14596602  0.68960918  1  -0.046829  0  -0.100368  -0.084136  0  4.023424  0
C  C175  1  0.55822585  0.35403258  0.18961143  1  -0.046496  0  -0.100461  -0.084276  0  4.023209  0
C  C176  1  0.56326931  0.71256786  0.48106465  1  -0.026999  0  -0.096043  -0.070958  0  4.00692  0
C  C177  1  0.43674676  0.78744262  0.98105842  1  -0.026207  0  -0.096046  -0.071095  0  4.006656  0
C  C178  1  0.43673706  0.28743340  0.51893905  1  -0.026151  0  -0.096089  -0.071142  0  4.006757  0
C  C179  1  0.56326970  0.21256331  0.01893541  1  -0.026747  0  -0.096046  -0.071022  0  4.006844  0
C  C180  1  0.95545203  0.56414699  0.19093814  1  -0.080339  0  -0.237023  -0.479043  0  3.959569  0
C  C181  1  0.04454608  0.93585431  0.69093630  1  -0.080561  0  -0.237075  -0.479185  0  3.959659  0
C  C182  1  0.04453711  0.43585069  0.80906480  1  -0.080285  0  -0.237083  -0.479161  0  3.959678  0
C  C183  1  0.95547482  0.06415349  0.30906246  1  -0.080511  0  -0.237213  -0.479286  0  3.959535  0
C  C184  1  0.52555554  0.90094343  0.26217311  1  0.001523  0  -0.104327  -0.096622  0  4.043852  0
C  C185  1  0.47443767  0.59905300  0.76217598  1  0.001617  0  -0.104302  -0.096556  0  4.043656  0
C  C186  1  0.47444682  0.09907349  0.73782490  1  0.002225  0  -0.104329  -0.096618  0  4.043705  0
C  C187  1  0.52554430  0.40091656  0.23782999  1  0.002337  0  -0.104425  -0.096892  0  4.043795  0
N  N188  1  0.36725669  0.97807929  0.43313496  1  -1.238616  0  -0.237811  -0.068269  0  3.69483  0
N  N189  1  0.63274399  0.52191854  0.93313600  1  -1.238624  0  -0.237785  -0.068035  0  3.694542  0
N  N190  1  0.63273565  0.02191151  0.56686722  1  -1.238982  0  -0.237778  -0.068307  0  3.694778  0
N  N191  1  0.36726704  0.47807873  0.06686656  1  -1.238872  0  -0.237641  -0.068084  0  3.694798  0
N  N192  1  0.58023949  0.07769111  0.41520433  1  -1.230929  0  -0.367779  -0.418032  0  3.454669  0
N  N193  1  0.41976441  0.42230819  0.91520586  1  -1.230817  0  -0.367799  -0.418128  0  3.454925  0
N  N194  1  0.41975431  0.92230259  0.58479595  1  -1.231112  0  -0.367745  -0.418063  0  3.454495  0
N  N195  1  0.58024704  0.57769200  0.08479329  1  -1.231212  0  -0.367785  -0.418095  0  3.454773  0
N  N196  1  0.77455976  0.72069646  0.18858059  1  -1.2079  0  -0.362968  -0.40855  0  3.434852  0
N  N197  1  0.22544612  0.77930074  0.68858153  1  -1.207862  0  -0.362976  -0.408618  0  3.434867  0
N  N198  1  0.22543940  0.27931272  0.81141818  1  -1.20771  0  -0.362918  -0.408555  0  3.435025  0
N  N199  1  0.77456185  0.22068977  0.31142027  1  -1.207854  0  -0.362888  -0.408476  0  3.434955  0
N  N200  1  0.82927241  0.64924495  0.26512590  1  -1.196214  0  -0.238418  -0.075817  0  3.683798  0
N  N201  1  0.17072512  0.85075246  0.76512600  1  -1.196088  0  -0.238383  -0.075842  0  3.683763  0
N  N202  1  0.17070715  0.35075875  0.73487438  1  -1.196929  0  -0.238441  -0.075972  0  3.6839  0
N  N203  1  0.82929036  0.14924668  0.23487504  1  -1.19717  0  -0.238325  -0.075866  0  3.683807  0
Cl  Cl204  1  0.97771425  0.20067762  0.43702156  1  -0.661587  0  -0.328019  -0.525035  0  1.118026  0
Cl  Cl205  1  0.02228881  0.29932324  0.93702296  1  -0.661593  0  -0.327996  -0.525014  0  1.118029  0
Cl  Cl206  1  0.02228559  0.79932181  0.56297796  1  -0.66162  0  -0.328014  -0.525023  0  1.118039  0
Cl  Cl207  1  0.97772264  0.70067695  0.06297921  1  -0.661676  0  -0.328023  -0.525041  0  1.118014  0
Cl  Cl208  1  0.66457772  0.44671864  0.41472873  1  -0.6495  0  -0.310444  -0.506802  0  1.167398  0
Cl  Cl209  1  0.33541964  0.05327882  0.91472458  1  -0.6495  0  -0.310454  -0.506813  0  1.167364  0
Cl  Cl210  1  0.33541357  0.55327218  0.58527155  1  -0.649496  0  -0.310433  -0.506839  0  1.16742  0
Cl  Cl211  1  0.66459063  0.94672042  0.08526773  1  -0.649441  0  -0.31047  -0.506875  0  1.167403  0
