# generated using pymatgen
data_RbUH15C10O11
_symmetry_space_group_name_H-M   'P 1'
_cell_length_a   8.18453344
_cell_length_b   10.31712261
_cell_length_c   10.54521871
_cell_angle_alpha   68.46688116
_cell_angle_beta   71.10169951
_cell_angle_gamma   80.51901161
_symmetry_Int_Tables_number   1
_chemical_formula_structural   RbUH15C10O11
_chemical_formula_sum   'Rb2 U2 H30 C20 O22'
_cell_volume   782.58555822
_cell_formula_units_Z   2
loop_
 _symmetry_equiv_pos_site_id
 _symmetry_equiv_pos_as_xyz
  1  'x, y, z'
loop_
 _atom_site_type_symbol
 _atom_site_label
 _atom_site_symmetry_multiplicity
 _atom_site_fract_x
 _atom_site_fract_y
 _atom_site_fract_z
 _atom_site_occupancy
 _atom_site_hle17_bader_spin_density
 _atom_site_hle17_ddec_charge
 _atom_site_hle17_ddec_spin_density
 _atom_site_hle17_ddec_sum_bond_order
 _atom_site_hle17_magmom
 _atom_site_hse06_10hf_bader_spin_density
 _atom_site_hse06_10hf_ddec_charge
 _atom_site_hse06_10hf_ddec_spin_density
 _atom_site_hse06_10hf_ddec_sum_bond_order
 _atom_site_hse06_10hf_magmom
 _atom_site_hse06_bader_spin_density
 _atom_site_hse06_ddec_charge
 _atom_site_hse06_ddec_spin_density
 _atom_site_hse06_ddec_sum_bond_order
 _atom_site_hse06_magmom
 _atom_site_pbe_bader_spin_density
 _atom_site_pbe_cm5_charge
 _atom_site_pbe_ddec_charge
 _atom_site_pbe_ddec_spin_density
 _atom_site_pbe_ddec_sum_bond_order
 _atom_site_pbe_magmom
Rb  Rb0  1  0.34476181  0.52635306  0.21077587  1  0  0.968465  0  0.43136  0  0  0.934943  0  0.621509  0  0  0.949795  0  0.598534  0  0  0.769461  0.923796  0  0.637923  0
Rb  Rb1  1  0.65523701  0.47364652  0.78922363  1  0  0.968468  0  0.43137  0  0  0.934945  0  0.621512  0  0  0.94979  0  0.598541  0  0  0.769454  0.923795  0  0.637926  0
U  U2  1  0.81708106  0.35061422  0.38809235  1  0  2.385274  0  4.158169  0  0  2.439245  0  4.802408  0  0  2.546194  0  4.77318  0  0  2.168525  2.365881  0  4.822433  0
U  U3  1  0.18291911  0.64938431  0.61190814  1  0  2.385265  0  4.158181  0  0  2.439268  0  4.802374  0  0  2.546185  0  4.773171  0  0  2.168513  2.365829  0  4.822497  0
H  H4  1  0.88669465  0.15834838  0.71076072  1  0  0.41016  0  0.876834  0  0  0.382236  0  0.952538  0  0  0.393544  0  0.940178  0  0  0.318534  0.37427  0  0.961143  0
H  H5  1  0.11331196  0.84165118  0.28923307  1  0  0.410104  0  0.876851  0  0  0.382176  0  0.952574  0  0  0.39348  0  0.940222  0  0  0.318525  0.37421  0  0.961179  0
H  H6  1  0.36557018  0.78695527  0.92712717  1  0  0.40994  0  0.894261  0  0  0.379815  0  0.958323  0  0  0.390218  0  0.943017  0  0  0.284534  0.372531  0  0.969019  0
H  H7  1  0.63443105  0.21304743  0.07287064  1  0  0.409926  0  0.894273  0  0  0.379814  0  0.958315  0  0  0.390218  0  0.943008  0  0  0.284549  0.372526  0  0.969016  0
H  H8  1  0.32022276  0.70893144  0.84402286  1  0  0.414929  0  0.885367  0  0  0.391793  0  0.938379  0  0  0.401315  0  0.924023  0  0  0.294084  0.385096  0  0.948502  0
H  H9  1  0.67977605  0.29106813  0.15597759  1  0  0.414934  0  0.88536  0  0  0.391805  0  0.938361  0  0  0.401328  0  0.924005  0  0  0.29411  0.385109  0  0.948483  0
H  H10  1  0.20824914  0.28422669  0.63416592  1  0  0.117137  0  0.930711  0  0  0.132967  0  0.98384  0  0  0.134969  0  0.983008  0  0  0.112654  0.131479  0  0.984673  0
H  H11  1  0.79174970  0.71577290  0.36583168  1  0  0.117145  0  0.930709  0  0  0.132951  0  0.983865  0  0  0.134957  0  0.983032  0  0  0.112639  0.131463  0  0.984696  0
H  H12  1  0.30722687  0.17592903  0.76934787  1  0  0.114723  0  0.96164  0  0  0.1254  0  1.028395  0  0  0.127564  0  1.027579  0  0  0.105845  0.124045  0  1.028829  0
H  H13  1  0.69277311  0.82407263  0.23065156  1  0  0.114723  0  0.961625  0  0  0.125387  0  1.028392  0  0  0.127553  0  1.027576  0  0  0.105835  0.124031  0  1.028831  0
H  H14  1  0.16709417  0.02324646  0.71415239  1  0  0.077835  0  0.931138  0  0  0.095832  0  0.990846  0  0  0.097218  0  0.990548  0  0  0.096433  0.094806  0  0.991158  0
H  H15  1  0.83290469  0.97675206  0.28585033  1  0  0.077849  0  0.931125  0  0  0.095831  0  0.990835  0  0  0.097216  0  0.990537  0  0  0.09644  0.094807  0  0.991148  0
H  H16  1  0.39126341  0.99374157  0.65683264  1  0  0.075743  0  0.93808  0  0  0.095064  0  0.997028  0  0  0.096018  0  0.997362  0  0  0.099357  0.094357  0  0.996868  0
H  H17  1  0.60873287  0.00625696  0.34317070  1  0  0.07575  0  0.938066  0  0  0.095061  0  0.997007  0  0  0.096014  0  0.997341  0  0  0.099347  0.094353  0  0.99685  0
H  H18  1  0.38952936  0.14720210  0.40253734  1  0  0.109756  0  0.933825  0  0  0.124535  0  0.991632  0  0  0.127216  0  0.989977  0  0  0.108931  0.122614  0  0.992986  0
H  H19  1  0.61046809  0.85279851  0.59746498  1  0  0.109732  0  0.933825  0  0  0.124527  0  0.991591  0  0  0.127206  0  0.989941  0  0  0.10894  0.122612  0  0.992946  0
H  H20  1  0.26807711  0.99646581  0.47296232  1  0  0.128016  0  0.942931  0  0  0.136828  0  1.012016  0  0  0.139635  0  1.011076  0  0  0.116245  0.134889  0  1.0126  0
H  H21  1  0.73191907  0.00353482  0.52703746  1  0  0.128047  0  0.942863  0  0  0.136822  0  1.011977  0  0  0.139641  0  1.011024  0  0  0.11624  0.13489  0  1.012562  0
H  H22  1  0.99381558  0.71368731  0.93071102  1  0  0.122981  0  0.949683  0  0  0.137652  0  1.007688  0  0  0.14021  0  1.00632  0  0  0.114559  0.135855  0  1.008851  0
H  H23  1  0.00618600  0.28630912  0.06928987  1  0  0.123012  0  0.949675  0  0  0.137645  0  1.007694  0  0  0.140202  0  1.006326  0  0  0.114568  0.135848  0  1.008857  0
H  H24  1  0.93582870  0.79997366  0.05523076  1  0  0.114903  0  0.917829  0  0  0.131097  0  0.973946  0  0  0.132995  0  0.97362  0  0  0.109241  0.129757  0  0.97426  0
H  H25  1  0.06417153  0.20002382  0.94477009  1  0  0.114931  0  0.917838  0  0  0.131097  0  0.973941  0  0  0.132992  0  0.973619  0  0  0.109241  0.129757  0  0.974254  0
H  H26  1  0.68697653  0.72520552  0.92910525  1  0  0.078069  0  0.938567  0  0  0.09713  0  0.997311  0  0  0.09864  0  0.99691  0  0  0.103911  0.095992  0  0.997593  0
H  H27  1  0.31302340  0.27479719  0.07089287  1  0  0.078087  0  0.938563  0  0  0.097141  0  0.997307  0  0  0.098652  0  0.996908  0  0  0.103918  0.096005  0  0.99759  0
H  H28  1  0.61731345  0.80513234  0.06107979  1  0  0.064423  0  0.949188  0  0  0.079112  0  1.016441  0  0  0.080733  0  1.015818  0  0  0.096085  0.077933  0  1.016853  0
H  H29  1  0.38268777  0.19487036  0.93891801  1  0  0.064423  0  0.949218  0  0  0.079102  0  1.016478  0  0  0.080723  0  1.015856  0  0  0.096074  0.077923  0  1.016888  0
H  H30  1  0.87582951  0.93339565  0.76846134  1  0  0.115376  0  0.936153  0  0  0.129015  0  0.9965  0  0  0.131412  0  0.995543  0  0  0.108598  0.127324  0  0.997054  0
H  H31  1  0.12417061  0.06660392  0.23153785  1  0  0.115378  0  0.936147  0  0  0.129017  0  0.996491  0  0  0.131412  0  0.995532  0  0  0.108599  0.127327  0  0.997044  0
H  H32  1  0.65112489  0.96761441  0.80356801  1  0  0.137831  0  0.912873  0  0  0.1536  0  0.968785  0  0  0.156337  0  0.967561  0  0  0.117488  0.151348  0  0.970113  0
H  H33  1  0.34887768  0.03238724  0.19643078  1  0  0.137804  0  0.912895  0  0  0.153586  0  0.968791  0  0  0.156323  0  0.967565  0  0  0.117477  0.151334  0  0.970122  0
C  C34  1  0.48286931  0.26171190  0.56712845  1  0  0.702693  0  3.796915  0  0  0.668791  0  4.100907  0  0  0.704798  0  4.092924  0  0  0.214022  0.64436  0  4.105205  0
C  C35  1  0.51712951  0.73828768  0.43287105  1  0  0.702669  0  3.796903  0  0  0.668773  0  4.100891  0  0  0.704784  0  4.092901  0  0  0.21402  0.644343  0  4.105187  0
C  C36  1  0.31040503  0.20380165  0.65791008  1  0  -0.277908  0  3.651097  0  0  -0.31079  0  3.888281  0  0  -0.316414  0  3.895103  0  0  -0.159555  -0.307061  0  3.883465  0
C  C37  1  0.68959374  0.79619897  0.34208907  1  0  -0.277884  0  3.651091  0  0  -0.310733  0  3.888233  0  0  -0.316368  0  3.895061  0  0  -0.159527  -0.307005  0  3.883419  0
C  C38  1  0.28531026  0.07057112  0.63512849  1  0  -0.042264  0  3.64909  0  0  -0.0859  0  3.905585  0  0  -0.085138  0  3.917692  0  0  -0.154203  -0.086175  0  3.897177  0
C  C39  1  0.71468849  0.92942949  0.36487256  1  0  -0.042315  0  3.649087  0  0  -0.085908  0  3.905503  0  0  -0.085146  0  3.917615  0  0  -0.154191  -0.086174  0  3.897108  0
C  C40  1  0.27540055  0.09656907  0.48546777  1  0  -0.282572  0  3.660567  0  0  -0.314591  0  3.901018  0  0  -0.321055  0  3.908158  0  0  -0.157604  -0.310224  0  3.895986  0
C  C41  1  0.72459568  0.90343051  0.51453427  1  0  -0.282545  0  3.660502  0  0  -0.314498  0  3.90089  0  0  -0.320973  0  3.908036  0  0  -0.157585  -0.310168  0  3.895901  0
C  C42  1  0.11871799  0.18492314  0.45517649  1  0  0.720429  0  3.781368  0  0  0.679482  0  4.085845  0  0  0.715151  0  4.077698  0  0  0.222212  0.655338  0  4.090066  0
C  C43  1  0.88127948  0.81507749  0.54482298  1  0  0.720443  0  3.781333  0  0  0.679447  0  4.085872  0  0  0.715102  0  4.077746  0  0  0.222226  0.655316  0  4.09008  0
C  C44  1  0.86083929  0.59372069  0.13949733  1  0  0.707989  0  3.797114  0  0  0.672235  0  4.102537  0  0  0.708191  0  4.094813  0  0  0.216749  0.647851  0  4.106521  0
C  C45  1  0.13916097  0.40627680  0.86050067  1  0  0.707904  0  3.797081  0  0  0.672124  0  4.102511  0  0  0.708075  0  4.094793  0  0  0.216745  0.647742  0  4.106491  0
C  C46  1  0.88661433  0.73028919  0.01914340  1  0  -0.276158  0  3.66348  0  0  -0.307155  0  3.900457  0  0  -0.313112  0  3.907807  0  0  -0.157398  -0.303287  0  3.895552  0
C  C47  1  0.11338584  0.26970934  0.98085615  1  0  -0.27622  0  3.663591  0  0  -0.307083  0  3.900385  0  0  -0.313037  0  3.907736  0  0  -0.157413  -0.303218  0  3.895484  0
C  C48  1  0.72606641  0.79455708  0.97073107  1  0  -0.0547  0  3.701883  0  0  -0.10183  0  3.964129  0  0  -0.101322  0  3.976963  0  0  -0.160106  -0.101934  0  3.955089  0
C  C49  1  0.27393499  0.20544249  0.02926875  1  0  -0.054721  0  3.702023  0  0  -0.101859  0  3.964223  0  0  -0.101356  0  3.977063  0  0  -0.160096  -0.101961  0  3.955184  0
C  C50  1  0.75669518  0.93658206  0.85413838  1  0  -0.293248  0  3.670978  0  0  -0.331332  0  3.922506  0  0  -0.337607  0  3.930679  0  0  -0.160773  -0.326979  0  3.916926  0
C  C51  1  0.24330628  0.06341646  0.14586179  1  0  -0.293241  0  3.671015  0  0  -0.331341  0  3.922575  0  0  -0.337607  0  3.93074  0  0  -0.16077  -0.326985  0  3.916994  0
C  C52  1  0.75915054  0.05497216  0.90502196  1  0  0.715599  0  3.718735  0  0  0.667351  0  4.025215  0  0  0.699559  0  4.016703  0  0  0.245858  0.645233  0  4.030801  0
C  C53  1  0.24085731  0.94502738  0.09497628  1  0  0.715615  0  3.718585  0  0  0.66732  0  4.025116  0  0  0.699519  0  4.016613  0  0  0.245831  0.645211  0  4.03069  0
O  O54  1  0.80837618  0.24025762  0.28914969  1  0  -0.745442  0  1.64466  0  0  -0.741201  0  1.937062  0  0  -0.764153  0  1.925684  0  0  -0.752367  -0.726856  0  1.945181  0
O  O55  1  0.19162261  0.75974194  0.71085457  1  0  -0.74546  0  1.644596  0  0  -0.741197  0  1.936938  0  0  -0.764145  0  1.925565  0  0  -0.752298  -0.726831  0  1.945065  0
O  O56  1  0.82874799  0.45695492  0.48837972  1  0  -0.727076  0  1.607704  0  0  -0.738855  0  1.905732  0  0  -0.758242  0  1.893436  0  0  -0.783263  -0.726872  0  1.914423  0
O  O57  1  0.17125455  0.54304671  0.51162193  1  0  -0.727014  0  1.60782  0  0  -0.73882  0  1.905883  0  0  -0.758193  0  1.893581  0  0  -0.783282  -0.726818  0  1.914588  0
O  O58  1  0.49989131  0.36456392  0.45036162  1  0  -0.657009  0  1.984005  0  0  -0.642446  0  2.249126  0  0  -0.674569  0  2.245711  0  0  -0.380358  -0.619904  0  2.250597  0
O  O59  1  0.50010758  0.63543462  0.54963823  1  0  -0.657026  0  1.983999  0  0  -0.642481  0  2.249133  0  0  -0.674599  0  2.245712  0  0  -0.380377  -0.61993  0  2.250605  0
O  O60  1  0.61970820  0.20373214  0.60380284  1  0  -0.642916  0  1.963782  0  0  -0.624689  0  2.222361  0  0  -0.657424  0  2.219437  0  0  -0.35322  -0.602004  0  2.223602  0
O  O61  1  0.38028939  0.79626639  0.39619829  1  0  -0.642884  0  1.963778  0  0  -0.62466  0  2.222355  0  0  -0.657384  0  2.219409  0  0  -0.35321  -0.601967  0  2.223599  0
O  O62  1  0.13035754  0.28653396  0.33897906  1  0  -0.656113  0  1.992579  0  0  -0.63233  0  2.254682  0  0  -0.663332  0  2.250511  0  0  -0.394517  -0.610385  0  2.256427  0
O  O63  1  0.86964114  0.71346769  0.66102163  1  0  -0.656122  0  1.992547  0  0  -0.632341  0  2.254683  0  0  -0.663338  0  2.250519  0  0  -0.394542  -0.610388  0  2.25642  0
O  O64  1  0.96724009  0.15821604  0.54450919  1  0  -0.670614  0  2.026504  0  0  -0.631452  0  2.277239  0  0  -0.663139  0  2.272613  0  0  -0.341133  -0.609021  0  2.279232  0
O  O65  1  0.03275846  0.84178770  0.45549174  1  0  -0.670686  0  2.026478  0  0  -0.631494  0  2.277223  0  0  -0.663161  0  2.272594  0  0  -0.341179  -0.609056  0  2.279209  0
O  O66  1  0.70920601  0.54962956  0.21225657  1  0  -0.667874  0  1.960973  0  0  -0.644174  0  2.217296  0  0  -0.676187  0  2.214138  0  0  -0.384673  -0.62133  0  2.218057  0
O  O67  1  0.29079403  0.45037104  0.78774417  1  0  -0.667832  0  1.960994  0  0  -0.644139  0  2.217323  0  0  -0.676145  0  2.214167  0  0  -0.38465  -0.621286  0  2.218084  0
O  O68  1  0.99175517  0.51975268  0.17463784  1  0  -0.662207  0  1.953191  0  0  -0.647087  0  2.211355  0  0  -0.67915  0  2.206919  0  0  -0.389382  -0.624549  0  2.213458  0
O  O69  1  0.00824488  0.48024794  0.82536194  1  0  -0.66218  0  1.953148  0  0  -0.647069  0  2.21132  0  0  -0.679128  0  2.206886  0  0  -0.389409  -0.624522  0  2.213423  0
O  O70  1  0.68937273  0.05348181  0.02814568  1  0  -0.55638  0  1.941427  0  0  -0.4975  0  2.14746  0  0  -0.521081  0  2.141068  0  0  -0.272202  -0.481452  0  2.151754  0
O  O71  1  0.31063509  0.94651879  0.97184935  1  0  -0.556403  0  1.941279  0  0  -0.497447  0  2.147266  0  0  -0.521022  0  2.140875  0  0  -0.272195  -0.481434  0  2.151588  0
O  O72  1  0.83740530  0.16978185  0.80696325  1  0  -0.585093  0  2.075426  0  0  -0.54327  0  2.302328  0  0  -0.564295  0  2.286721  0  0  -0.352916  -0.528559  0  2.312646  0
O  O73  1  0.16259988  0.83021980  0.19303110  1  0  -0.584979  0  2.075442  0  0  -0.543157  0  2.302359  0  0  -0.564197  0  2.286793  0  0  -0.352843  -0.528442  0  2.312668  0
O  O74  1  0.39378966  0.69927052  0.90462816  1  0  -0.894701  0  1.747838  0  0  -0.85957  0  1.902188  0  0  -0.875535  0  1.872175  0  0  -0.669678  -0.848209  0  1.922916  0
O  O75  1  0.60620787  0.30072906  0.09537261  1  0  -0.894695  0  1.747862  0  0  -0.859563  0  1.902189  0  0  -0.87553  0  1.872175  0  0  -0.669706  -0.8482  0  1.922917  0
