# generated using pymatgen
data_HgH4C6NClO3
_symmetry_space_group_name_H-M   'P 1'
_cell_length_a   8.03798581
_cell_length_b   9.91689021
_cell_length_c   10.44575333
_cell_angle_alpha   106.14378963
_cell_angle_beta   89.99996448
_cell_angle_gamma   90.00010623
_symmetry_Int_Tables_number   1
_chemical_formula_structural   HgH4C6NClO3
_chemical_formula_sum   'Hg4 H16 C24 N4 Cl4 O12'
_cell_volume   799.81609095
_cell_formula_units_Z   4
loop_
 _symmetry_equiv_pos_site_id
 _symmetry_equiv_pos_as_xyz
  1  'x, y, z'
loop_
 _atom_site_type_symbol
 _atom_site_label
 _atom_site_symmetry_multiplicity
 _atom_site_fract_x
 _atom_site_fract_y
 _atom_site_fract_z
 _atom_site_occupancy
 _atom_site_hle17_bader_spin_density
 _atom_site_hle17_ddec_charge
 _atom_site_hle17_ddec_spin_density
 _atom_site_hle17_ddec_sum_bond_order
 _atom_site_hle17_magmom
 _atom_site_hse06_10hf_bader_spin_density
 _atom_site_hse06_10hf_ddec_charge
 _atom_site_hse06_10hf_ddec_spin_density
 _atom_site_hse06_10hf_ddec_sum_bond_order
 _atom_site_hse06_10hf_magmom
 _atom_site_hse06_bader_spin_density
 _atom_site_hse06_ddec_charge
 _atom_site_hse06_ddec_spin_density
 _atom_site_hse06_ddec_sum_bond_order
 _atom_site_hse06_magmom
 _atom_site_pbe_bader_spin_density
 _atom_site_pbe_cm5_charge
 _atom_site_pbe_ddec_charge
 _atom_site_pbe_ddec_spin_density
 _atom_site_pbe_ddec_sum_bond_order
 _atom_site_pbe_magmom
Hg  Hg0  1  0.47670086  0.69807417  0.50244475  1  0  0.892564  0  1.922596  0  0  0.729615  0  2.400963  0  0  0.782431  0  2.361242  0  0  0.60628  0.693551  0  2.427989  0
Hg  Hg1  1  0.97670187  0.80192826  0.49755597  1  0  0.892551  0  1.922626  0  0  0.729612  0  2.400967  0  0  0.78243  0  2.361247  0  0  0.606273  0.693551  0  2.427987  0
Hg  Hg2  1  0.52329915  0.30192566  0.49755526  1  0  0.892582  0  1.922567  0  0  0.729619  0  2.400932  0  0  0.782435  0  2.361213  0  0  0.606266  0.693554  0  2.427947  0
Hg  Hg3  1  0.02329815  0.19807368  0.50244460  1  0  0.892567  0  1.922596  0  0  0.729617  0  2.400953  0  0  0.782432  0  2.361233  0  0  0.606277  0.693551  0  2.427961  0
H  H4  1  0.33604933  0.05376704  0.23872772  1  0  0.381148  0  0.906535  0  0  0.35194  0  0.984496  0  0  0.36392  0  0.972363  0  0  0.294953  0.343387  0  0.993204  0
H  H5  1  0.83604920  0.44623381  0.76127144  1  0  0.381172  0  0.906489  0  0  0.351947  0  0.984476  0  0  0.363927  0  0.972344  0  0  0.294952  0.343395  0  0.993185  0
H  H6  1  0.66395069  0.94623069  0.76127079  1  0  0.381162  0  0.906533  0  0  0.351942  0  0.98451  0  0  0.363922  0  0.972377  0  0  0.294961  0.343388  0  0.993225  0
H  H7  1  0.16395081  0.55376812  0.23872913  1  0  0.381145  0  0.906536  0  0  0.351931  0  0.984505  0  0  0.363911  0  0.972372  0  0  0.29495  0.343377  0  0.993224  0
H  H8  1  0.65839683  0.56315063  0.23813309  1  0  0.097082  0  0.955674  0  0  0.105885  0  1.020039  0  0  0.108415  0  1.017747  0  0  0.109211  0.103461  0  1.02285  0
H  H9  1  0.15839741  0.93685133  0.76186957  1  0  0.097084  0  0.955687  0  0  0.105881  0  1.020059  0  0  0.108411  0  1.017765  0  0  0.10922  0.103455  0  1.022866  0
H  H10  1  0.34160194  0.43684710  0.76186733  1  0  0.097056  0  0.955691  0  0  0.105852  0  1.020069  0  0  0.108381  0  1.017776  0  0  0.109204  0.103425  0  1.022872  0
H  H11  1  0.84160136  0.06315061  0.23813291  1  0  0.097088  0  0.955672  0  0  0.105862  0  1.020073  0  0  0.10839  0  1.017784  0  0  0.1092  0.10344  0  1.022877  0
H  H12  1  0.55494429  0.81631640  0.96901645  1  0  0.131845  0  0.951513  0  0  0.137447  0  1.016822  0  0  0.141848  0  1.013351  0  0  0.107129  0.134595  0  1.018653  0
H  H13  1  0.05494363  0.68368435  0.03098403  1  0  0.131838  0  0.951522  0  0  0.137439  0  1.016833  0  0  0.141841  0  1.013361  0  0  0.10713  0.134589  0  1.018668  0
H  H14  1  0.44505821  0.18368238  0.03098329  1  0  0.131851  0  0.951521  0  0  0.13745  0  1.016837  0  0  0.141854  0  1.01336  0  0  0.107124  0.134601  0  1.018666  0
H  H15  1  0.94505638  0.31631653  0.96901626  1  0  0.131826  0  0.95153  0  0  0.137423  0  1.016848  0  0  0.141825  0  1.013375  0  0  0.107123  0.134576  0  1.01868  0
H  H16  1  0.68967097  0.60242799  0.01190083  1  0  0.115813  0  0.958382  0  0  0.124037  0  1.017448  0  0  0.127589  0  1.015838  0  0  0.109058  0.121568  0  1.018722  0
H  H17  1  0.18966879  0.89757401  0.98810087  1  0  0.115807  0  0.958383  0  0  0.12404  0  1.017439  0  0  0.127592  0  1.015829  0  0  0.109052  0.121569  0  1.01871  0
H  H18  1  0.31032904  0.39756974  0.98809863  1  0  0.115772  0  0.958331  0  0  0.123988  0  1.017412  0  0  0.12754  0  1.015801  0  0  0.109046  0.121517  0  1.018683  0
H  H19  1  0.81032874  0.10242792  0.01190066  1  0  0.115796  0  0.958388  0  0  0.124025  0  1.017453  0  0  0.127576  0  1.015844  0  0  0.109057  0.121556  0  1.018722  0
C  C20  1  0.44094839  0.85720709  0.29259111  1  0  -0.043029  0  3.688086  0  0  -0.043562  0  3.924104  0  0  -0.047708  0  3.946315  0  0  0.088503  -0.041253  0  3.909392  0
C  C21  1  0.94094762  0.64279424  0.70740837  1  0  -0.043057  0  3.688137  0  0  -0.043584  0  3.924157  0  0  -0.047729  0  3.946365  0  0  0.088522  -0.041272  0  3.909441  0
C  C22  1  0.55905411  0.14279170  0.70740767  1  0  -0.043131  0  3.688369  0  0  -0.043635  0  3.924391  0  0  -0.04778  0  3.946603  0  0  0.088514  -0.041327  0  3.909676  0
C  C23  1  0.05905240  0.35720770  0.29259124  1  0  -0.043112  0  3.688286  0  0  -0.04364  0  3.924282  0  0  -0.047787  0  3.946496  0  0  0.088482  -0.041331  0  3.909571  0
C  C24  1  0.34412569  0.95255235  0.40491252  1  0  0.6283  0  3.937733  0  0  0.57047  0  4.241099  0  0  0.605842  0  4.234462  0  0  0.19116  0.546263  0  4.244929  0
C  C25  1  0.84412728  0.54744883  0.59508697  1  0  0.628348  0  3.937691  0  0  0.570469  0  4.24115  0  0  0.605841  0  4.234511  0  0  0.191099  0.546262  0  4.244983  0
C  C26  1  0.65587308  0.04744538  0.59508598  1  0  0.628355  0  3.937673  0  0  0.57049  0  4.241098  0  0  0.605862  0  4.234462  0  0  0.191169  0.546299  0  4.244911  0
C  C27  1  0.15587274  0.45255310  0.40491264  1  0  0.628339  0  3.93773  0  0  0.570508  0  4.241097  0  0  0.60588  0  4.234459  0  0  0.191175  0.546305  0  4.244918  0
C  C28  1  0.45612641  0.88727965  0.16830879  1  0  0.306416  0  3.788262  0  0  0.294265  0  4.04832  0  0  0.30475  0  4.064708  0  0  0.102491  0.286739  0  4.03723  0
C  C29  1  0.95612671  0.61272170  0.83169166  1  0  0.306397  0  3.788314  0  0  0.294265  0  4.048321  0  0  0.304753  0  4.064705  0  0  0.102503  0.286735  0  4.037236  0
C  C30  1  0.54387610  0.11272018  0.83169123  1  0  0.306483  0  3.788308  0  0  0.294284  0  4.048404  0  0  0.304772  0  4.064791  0  0  0.102492  0.286755  0  4.037323  0
C  C31  1  0.04387455  0.38727814  0.16830932  1  0  0.306445  0  3.788339  0  0  0.294295  0  4.048369  0  0  0.304782  0  4.064759  0  0  0.102507  0.286771  0  4.037285  0
C  C32  1  0.60202337  0.65290619  0.21416866  1  0  0.101795  0  3.681363  0  0  0.057402  0  3.942004  0  0  0.064991  0  3.958808  0  0  0.036102  0.051436  0  3.932968  0
C  C33  1  0.10202496  0.84709673  0.78583237  1  0  0.101857  0  3.681246  0  0  0.05748  0  3.941875  0  0  0.065059  0  3.958696  0  0  0.036131  0.051511  0  3.932832  0
C  C34  1  0.39797665  0.34709260  0.78583108  1  0  0.10185  0  3.681336  0  0  0.057461  0  3.941966  0  0  0.065049  0  3.958776  0  0  0.036124  0.051494  0  3.932919  0
C  C35  1  0.89797505  0.15290625  0.21416752  1  0  0.10176  0  3.681387  0  0  0.057378  0  3.942042  0  0  0.064972  0  3.958839  0  0  0.036098  0.05141  0  3.933  0
C  C36  1  0.54491848  0.79356534  0.06500195  1  0  -0.119826  0  3.649106  0  0  -0.144814  0  3.901238  0  0  -0.145913  0  3.916408  0  0  -0.075798  -0.143569  0  3.889884  0
C  C37  1  0.04491840  0.70643645  0.93499881  1  0  -0.119803  0  3.649133  0  0  -0.144799  0  3.901267  0  0  -0.145898  0  3.916432  0  0  -0.075811  -0.143556  0  3.889916  0
C  C38  1  0.45508402  0.20643450  0.93499807  1  0  -0.119893  0  3.649152  0  0  -0.144878  0  3.901297  0  0  -0.145978  0  3.916465  0  0  -0.07581  -0.143642  0  3.889951  0
C  C39  1  0.95508286  0.29356443  0.06500053  1  0  -0.119829  0  3.649085  0  0  -0.144824  0  3.901223  0  0  -0.145923  0  3.916393  0  0  -0.075812  -0.143588  0  3.889881  0
C  C40  1  0.61816057  0.67651909  0.08889842  1  0  -0.07078  0  3.724278  0  0  -0.085791  0  3.984178  0  0  -0.088551  0  4.001745  0  0  -0.076629  -0.083675  0  3.972012  0
C  C41  1  0.11815953  0.82348176  0.91110396  1  0  -0.070858  0  3.724318  0  0  -0.085884  0  3.984243  0  0  -0.088641  0  4.001804  0  0  -0.076661  -0.08376  0  3.972066  0
C  C42  1  0.38184193  0.32347864  0.91110200  1  0  -0.070663  0  3.724263  0  0  -0.085655  0  3.984133  0  0  -0.088414  0  4.001698  0  0  -0.076594  -0.083533  0  3.971959  0
C  C43  1  0.88184049  0.17651913  0.08889824  1  0  -0.070719  0  3.724309  0  0  -0.085728  0  3.9842  0  0  -0.088491  0  4.001769  0  0  -0.076612  -0.083609  0  3.97203  0
N  N44  1  0.51364432  0.74087333  0.31070714  1  0  -0.239898  0  3.384079  0  0  -0.146629  0  3.636402  0  0  -0.167617  0  3.662072  0  0  -0.296487  -0.132304  0  3.61905  0
N  N45  1  0.01364455  0.75912632  0.68929403  1  0  -0.239896  0  3.384067  0  0  -0.146624  0  3.636384  0  0  -0.167611  0  3.662053  0  0  -0.296504  -0.132292  0  3.619017  0
N  N46  1  0.48635694  0.25912546  0.68929356  1  0  -0.239935  0  3.384237  0  0  -0.146669  0  3.636554  0  0  -0.167654  0  3.662218  0  0  -0.29651  -0.132343  0  3.619192  0
N  N47  1  0.98635546  0.24087352  0.31070694  1  0  -0.239861  0  3.384077  0  0  -0.146589  0  3.636389  0  0  -0.167578  0  3.662061  0  0  -0.296473  -0.132263  0  3.619034  0
Cl  Cl48  1  0.47433571  0.65572535  0.71114889  1  0  -0.431542  0  1.057231  0  0  -0.369399  0  1.340579  0  0  -0.389056  0  1.323428  0  0  -0.226824  -0.355476  0  1.352684  0
Cl  Cl49  1  0.97433573  0.84427498  0.28885128  1  0  -0.431556  0  1.05726  0  0  -0.369414  0  1.340612  0  0  -0.389073  0  1.323462  0  0  -0.226828  -0.355493  0  1.352721  0
Cl  Cl50  1  0.52566306  0.34427554  0.28885141  1  0  -0.431549  0  1.057219  0  0  -0.369404  0  1.340567  0  0  -0.389062  0  1.323416  0  0  -0.22682  -0.355483  0  1.352673  0
Cl  Cl51  1  0.02566304  0.15572381  0.71114846  1  0  -0.431548  0  1.057241  0  0  -0.369415  0  1.340594  0  0  -0.389072  0  1.323442  0  0  -0.226832  -0.355496  0  1.352694  0
O  O52  1  0.31626042  0.91704200  0.50980611  1  0  -0.608032  0  2.040719  0  0  -0.55254  0  2.305079  0  0  -0.5818  0  2.296461  0  0  -0.315227  -0.532404  0  2.309783  0
O  O53  1  0.81626342  0.58295809  0.49019312  1  0  -0.608066  0  2.04075  0  0  -0.552539  0  2.305095  0  0  -0.581801  0  2.296478  0  0  -0.315202  -0.532403  0  2.309802  0
O  O54  1  0.68373587  0.08295573  0.49019049  1  0  -0.608117  0  2.040696  0  0  -0.552563  0  2.304989  0  0  -0.581825  0  2.296374  0  0  -0.315254  -0.53243  0  2.309687  0
O  O55  1  0.18373660  0.41704279  0.50980813  1  0  -0.608085  0  2.040679  0  0  -0.552565  0  2.304984  0  0  -0.581825  0  2.296368  0  0  -0.315248  -0.532424  0  2.309677  0
O  O56  1  0.29469191  0.06861633  0.38480292  1  0  -0.647066  0  2.096026  0  0  -0.582625  0  2.352207  0  0  -0.611897  0  2.341923  0  0  -0.318356  -0.561892  0  2.359288  0
O  O57  1  0.79469311  0.43138552  0.61519652  1  0  -0.647062  0  2.095963  0  0  -0.582612  0  2.352191  0  0  -0.611885  0  2.341908  0  0  -0.318315  -0.561881  0  2.359281  0
O  O58  1  0.70530562  0.93138141  0.61519559  1  0  -0.647045  0  2.09606  0  0  -0.582605  0  2.352275  0  0  -0.611879  0  2.341995  0  0  -0.318355  -0.561881  0  2.359362  0
O  O59  1  0.20530690  0.56861642  0.38480309  1  0  -0.647034  0  2.09608  0  0  -0.582607  0  2.352286  0  0  -0.61188  0  2.342003  0  0  -0.318338  -0.561879  0  2.359374  0
O  O60  1  0.38572220  0.00170441  0.14723835  1  0  -0.494758  0  2.114891  0  0  -0.445688  0  2.326357  0  0  -0.46723  0  2.319272  0  0  -0.335565  -0.430416  0  2.331115  0
O  O61  1  0.88572212  0.49829756  0.85276108  1  0  -0.494765  0  2.114946  0  0  -0.44567  0  2.326388  0  0  -0.467213  0  2.319304  0  0  -0.335546  -0.430395  0  2.331147  0
O  O62  1  0.61427906  0.99829542  0.85276071  1  0  -0.494804  0  2.11493  0  0  -0.445689  0  2.326398  0  0  -0.467231  0  2.319312  0  0  -0.335575  -0.430414  0  2.331163  0
O  O63  1  0.11427790  0.50170437  0.14723853  1  0  -0.494776  0  2.114891  0  0  -0.445679  0  2.326337  0  0  -0.467222  0  2.319252  0  0  -0.335554  -0.430403  0  2.331103  0
