# generated using pymatgen
data_KH17C9S2O5
_symmetry_space_group_name_H-M   'P 1'
_cell_length_a   9.06606205
_cell_length_b   11.55681339
_cell_length_c   13.73557841
_cell_angle_alpha   90.00002248
_cell_angle_beta   104.64143236
_cell_angle_gamma   89.99999108
_symmetry_Int_Tables_number   1
_chemical_formula_structural   KH17C9S2O5
_chemical_formula_sum   'K4 H68 C36 S8 O20'
_cell_volume   1392.40851747
_cell_formula_units_Z   4
loop_
 _symmetry_equiv_pos_site_id
 _symmetry_equiv_pos_as_xyz
  1  'x, y, z'
loop_
 _atom_site_type_symbol
 _atom_site_label
 _atom_site_symmetry_multiplicity
 _atom_site_fract_x
 _atom_site_fract_y
 _atom_site_fract_z
 _atom_site_occupancy
 _atom_site_hle17_bader_spin_density
 _atom_site_hle17_ddec_charge
 _atom_site_hle17_ddec_spin_density
 _atom_site_hle17_ddec_sum_bond_order
 _atom_site_hle17_magmom
 _atom_site_hse06_10hf_bader_spin_density
 _atom_site_hse06_10hf_ddec_charge
 _atom_site_hse06_10hf_ddec_spin_density
 _atom_site_hse06_10hf_ddec_sum_bond_order
 _atom_site_hse06_10hf_magmom
 _atom_site_hse06_bader_spin_density
 _atom_site_hse06_ddec_charge
 _atom_site_hse06_ddec_spin_density
 _atom_site_hse06_ddec_sum_bond_order
 _atom_site_hse06_magmom
 _atom_site_pbe_bader_spin_density
 _atom_site_pbe_cm5_charge
 _atom_site_pbe_ddec_charge
 _atom_site_pbe_ddec_spin_density
 _atom_site_pbe_ddec_sum_bond_order
 _atom_site_pbe_magmom
K  K0  1  0.77005571  0.53350094  0.51369660  1  0  0.902546  0  0.47539  0  0  0.821255  0  0.686079  0  0  0.838046  0  0.664465  0  0  0.705769  0.809249  0  0.700682  0
K  K1  1  0.77005750  0.96649302  0.01369811  1  0  0.902542  0  0.475406  0  0  0.821283  0  0.686036  0  0  0.838071  0  0.664421  0  0  0.705772  0.809282  0  0.70064  0
K  K2  1  0.22993693  0.46649461  0.48629778  1  0  0.902533  0  0.475414  0  0  0.821262  0  0.686066  0  0  0.838053  0  0.664451  0  0  0.705763  0.80926  0  0.700666  0
K  K3  1  0.22994655  0.03350426  0.98630180  1  0  0.902556  0  0.475382  0  0  0.821258  0  0.68608  0  0  0.838053  0  0.664463  0  0  0.705777  0.809264  0  0.700686  0
H  H4  1  0.76282365  0.28066917  0.66016964  1  0  0.325587  0  0.969601  0  0  0.298964  0  1.057376  0  0  0.308718  0  1.046816  0  0  0.257614  0.29198  0  1.065065  0
H  H5  1  0.76282432  0.21933035  0.16016942  1  0  0.32559  0  0.969592  0  0  0.298964  0  1.057369  0  0  0.308719  0  1.046807  0  0  0.257608  0.291981  0  1.06505  0
H  H6  1  0.23717697  0.71933157  0.33983044  1  0  0.325605  0  0.969559  0  0  0.29898  0  1.05734  0  0  0.308736  0  1.046778  0  0  0.257615  0.291996  0  1.065042  0
H  H7  1  0.23717631  0.78066953  0.83983065  1  0  0.325586  0  0.969598  0  0  0.298961  0  1.057374  0  0  0.308715  0  1.046812  0  0  0.257608  0.291975  0  1.065061  0
H  H8  1  0.95677306  0.63671617  0.22553019  1  0  0.075437  0  0.938288  0  0  0.086636  0  1.006907  0  0  0.086593  0  1.006888  0  0  0.103094  0.086643  0  1.006807  0
H  H9  1  0.95677353  0.86328393  0.72553062  1  0  0.075446  0  0.938284  0  0  0.086637  0  1.006896  0  0  0.086591  0  1.006874  0  0  0.103089  0.086647  0  1.006799  0
H  H10  1  0.04322757  0.36328458  0.77446989  1  0  0.075447  0  0.938354  0  0  0.086666  0  1.006952  0  0  0.086621  0  1.006931  0  0  0.103106  0.086675  0  1.006849  0
H  H11  1  0.04322710  0.13671595  0.27446945  1  0  0.075438  0  0.938301  0  0  0.086632  0  1.006913  0  0  0.086583  0  1.006893  0  0  0.103089  0.086638  0  1.006808  0
H  H12  1  0.75785515  0.62978607  0.21964331  1  0  0.06749  0  0.948615  0  0  0.079377  0  1.017692  0  0  0.079784  0  1.017202  0  0  0.100881  0.078878  0  1.018303  0
H  H13  1  0.75785562  0.87021405  0.71964302  1  0  0.067486  0  0.948626  0  0  0.079367  0  1.017695  0  0  0.07977  0  1.017204  0  0  0.100877  0.078875  0  1.018298  0
H  H14  1  0.24214433  0.37021381  0.78035585  1  0  0.067497  0  0.948621  0  0  0.079381  0  1.017696  0  0  0.079785  0  1.017205  0  0  0.100881  0.078884  0  1.018305  0
H  H15  1  0.24214387  0.12978583  0.28035614  1  0  0.067487  0  0.948636  0  0  0.079369  0  1.017706  0  0  0.079771  0  1.017214  0  0  0.100876  0.07887  0  1.018311  0
H  H16  1  0.99901507  0.73174500  0.39811100  1  0  0.062217  0  0.944973  0  0  0.072124  0  1.016557  0  0  0.073307  0  1.015251  0  0  0.098795  0.070961  0  1.017989  0
H  H17  1  0.99901326  0.76825518  0.89811029  1  0  0.062239  0  0.944971  0  0  0.072149  0  1.016569  0  0  0.073328  0  1.015261  0  0  0.098815  0.070986  0  1.018008  0
H  H18  1  0.00098556  0.26825488  0.60188981  1  0  0.062213  0  0.944994  0  0  0.072113  0  1.016591  0  0  0.07329  0  1.015285  0  0  0.098798  0.070952  0  1.018023  0
H  H19  1  0.00098623  0.23174470  0.10188959  1  0  0.062219  0  0.944966  0  0  0.07213  0  1.016562  0  0  0.073308  0  1.015254  0  0  0.098804  0.070962  0  1.017998  0
H  H20  1  0.89425643  0.81620425  0.29499026  1  0  0.04811  0  0.944182  0  0  0.057062  0  1.021363  0  0  0.056993  0  1.021634  0  0  0.094005  0.057037  0  1.021181  0
H  H21  1  0.89425577  0.68379589  0.79498972  1  0  0.048108  0  0.944188  0  0  0.057069  0  1.02137  0  0  0.056998  0  1.021637  0  0  0.094005  0.05705  0  1.021186  0
H  H22  1  0.10574420  0.18379650  0.70500981  1  0  0.048108  0  0.944183  0  0  0.057067  0  1.021364  0  0  0.056997  0  1.021629  0  0  0.094007  0.057043  0  1.021186  0
H  H23  1  0.10574372  0.31620399  0.20501017  1  0  0.048097  0  0.944178  0  0  0.057057  0  1.021365  0  0  0.056985  0  1.021632  0  0  0.094006  0.057031  0  1.021184  0
H  H24  1  0.87146818  0.83335522  0.51307812  1  0  0.062199  0  0.936695  0  0  0.076211  0  1.002141  0  0  0.077215  0  1.00096  0  0  0.096783  0.075743  0  1.00233  0
H  H25  1  0.87146772  0.66664479  0.01307770  1  0  0.062261  0  0.93666  0  0  0.076285  0  1.002089  0  0  0.077289  0  1.000907  0  0  0.09681  0.075815  0  1.002285  0
H  H26  1  0.12853245  0.16664466  0.48692268  1  0  0.062186  0  0.936711  0  0  0.076214  0  1.002156  0  0  0.077218  0  1.000974  0  0  0.096773  0.075742  0  1.002343  0
H  H27  1  0.12853177  0.33335509  0.98692219  1  0  0.062226  0  0.936684  0  0  0.076235  0  1.002129  0  0  0.077239  0  1.000949  0  0  0.096798  0.075767  0  1.002323  0
H  H28  1  0.77665387  0.91893243  0.40718647  1  0  0.048289  0  0.92637  0  0  0.06622  0  0.987372  0  0  0.066068  0  0.987291  0  0  0.09901  0.066364  0  0.987241  0
H  H29  1  0.77665435  0.58106865  0.90718608  1  0  0.048292  0  0.926399  0  0  0.066222  0  0.987399  0  0  0.06607  0  0.987318  0  0  0.099013  0.066367  0  0.987263  0
H  H30  1  0.22334676  0.08106832  0.59281433  1  0  0.048292  0  0.926373  0  0  0.066224  0  0.987378  0  0  0.066074  0  0.987295  0  0  0.099017  0.066369  0  0.987245  0
H  H31  1  0.22334628  0.41893296  0.09281399  1  0  0.048289  0  0.926386  0  0  0.066219  0  0.98739  0  0  0.066068  0  0.987309  0  0  0.099018  0.066368  0  0.987259  0
H  H32  1  0.62309417  0.92013954  0.52745519  1  0  0.045129  0  0.952708  0  0  0.055843  0  1.027037  0  0  0.056469  0  1.02629  0  0  0.088592  0.055197  0  1.027932  0
H  H33  1  0.62309485  0.57986050  0.02745493  1  0  0.04514  0  0.952723  0  0  0.055861  0  1.027045  0  0  0.056487  0  1.026297  0  0  0.088599  0.055214  0  1.027939  0
H  H34  1  0.37690532  0.07986207  0.47254470  1  0  0.045116  0  0.952671  0  0  0.055821  0  1.027007  0  0  0.056449  0  1.02626  0  0  0.088591  0.055178  0  1.027897  0
H  H35  1  0.37690464  0.42013938  0.97254496  1  0  0.045133  0  0.952732  0  0  0.055853  0  1.027045  0  0  0.056476  0  1.026297  0  0  0.088598  0.055205  0  1.027943  0
H  H36  1  0.52473838  0.83595974  0.42064151  1  0  0.052415  0  0.946419  0  0  0.062737  0  1.019804  0  0  0.063801  0  1.018635  0  0  0.090956  0.061823  0  1.020925  0
H  H37  1  0.52473886  0.66403963  0.92064188  1  0  0.05242  0  0.946562  0  0  0.062751  0  1.019911  0  0  0.063815  0  1.018743  0  0  0.090953  0.061839  0  1.021025  0
H  H38  1  0.47526111  0.16404100  0.57935837  1  0  0.052403  0  0.946545  0  0  0.062739  0  1.019886  0  0  0.063804  0  1.018717  0  0  0.090951  0.061827  0  1.021002  0
H  H39  1  0.47526062  0.33596025  0.07935801  1  0  0.052383  0  0.946536  0  0  0.062702  0  1.019899  0  0  0.063764  0  1.018729  0  0  0.09094  0.061793  0  1.021009  0
H  H40  1  0.47477194  0.82381025  0.61717732  1  0  0.04572  0  0.934957  0  0  0.063999  0  0.998833  0  0  0.063571  0  0.999094  0  0  0.098762  0.064181  0  0.998711  0
H  H41  1  0.47477147  0.67618986  0.11717690  1  0  0.045746  0  0.934903  0  0  0.064023  0  0.998788  0  0  0.063594  0  0.999051  0  0  0.098776  0.064204  0  0.998664  0
H  H42  1  0.52522869  0.17619049  0.38282348  1  0  0.04576  0  0.9349  0  0  0.064033  0  0.99878  0  0  0.063604  0  0.999043  0  0  0.098781  0.064214  0  0.998654  0
H  H43  1  0.52522916  0.32381002  0.88282390  1  0  0.04572  0  0.934933  0  0  0.064017  0  0.998794  0  0  0.063588  0  0.999056  0  0  0.098774  0.064196  0  0.998672  0
H  H44  1  0.39232122  0.71851045  0.52402500  1  0  0.059759  0  0.942765  0  0  0.069408  0  1.015141  0  0  0.0709  0  1.013513  0  0  0.101909  0.068607  0  1.015496  0
H  H45  1  0.39232074  0.78148963  0.02402389  1  0  0.059754  0  0.942738  0  0  0.069403  0  1.015119  0  0  0.070898  0  1.013492  0  0  0.101906  0.068602  0  1.015479  0
H  H46  1  0.60767827  0.28149030  0.47597634  1  0  0.059756  0  0.942761  0  0  0.069404  0  1.015138  0  0  0.070896  0  1.013512  0  0  0.101907  0.068601  0  1.015496  0
H  H47  1  0.60767875  0.21851025  0.97597600  1  0  0.059758  0  0.942745  0  0  0.069407  0  1.015126  0  0  0.0709  0  1.013499  0  0  0.101908  0.068606  0  1.015479  0
H  H48  1  0.62431085  0.66222593  0.72254039  1  0  0.054493  0  0.954273  0  0  0.067544  0  1.022897  0  0  0.068127  0  1.02244  0  0  0.101099  0.066945  0  1.023742  0
H  H49  1  0.62431151  0.83777334  0.22254021  1  0  0.054537  0  0.954262  0  0  0.067591  0  1.022859  0  0  0.068173  0  1.022405  0  0  0.101124  0.066997  0  1.023703  0
H  H50  1  0.37568864  0.33777395  0.27746023  1  0  0.0545  0  0.954257  0  0  0.067549  0  1.022887  0  0  0.068132  0  1.022429  0  0  0.101103  0.066952  0  1.023731  0
H  H51  1  0.37568798  0.16222654  0.77745968  1  0  0.05452  0  0.954285  0  0  0.067578  0  1.022877  0  0  0.068161  0  1.022422  0  0  0.101114  0.066982  0  1.023724  0
H  H52  1  0.42302261  0.66112962  0.70897412  1  0  0.051813  0  0.970965  0  0  0.059844  0  1.048265  0  0  0.059165  0  1.050062  0  0  0.090934  0.060396  0  1.046931  0
H  H53  1  0.42302327  0.83887054  0.20897395  1  0  0.051857  0  0.970925  0  0  0.059889  0  1.048218  0  0  0.059212  0  1.050014  0  0  0.090952  0.060449  0  1.046881  0
H  H54  1  0.57697688  0.33887026  0.29102576  1  0  0.051823  0  0.970954  0  0  0.059854  0  1.048253  0  0  0.059176  0  1.05005  0  0  0.090942  0.06041  0  1.046917  0
H  H55  1  0.57697736  0.16112934  0.79102613  1  0  0.051846  0  0.970936  0  0  0.059876  0  1.048233  0  0  0.059199  0  1.050029  0  0  0.090944  0.060437  0  1.046891  0
H  H56  1  0.50263935  0.47690756  0.76952862  1  0  0.046746  0  0.946265  0  0  0.057514  0  1.021575  0  0  0.057867  0  1.021256  0  0  0.09391  0.057305  0  1.021907  0
H  H57  1  0.50264004  0.02309204  0.26952907  1  0  0.046734  0  0.946271  0  0  0.057499  0  1.021583  0  0  0.057851  0  1.021263  0  0  0.093906  0.05729  0  1.02191  0
H  H58  1  0.49736014  0.52309232  0.23047126  1  0  0.046728  0  0.946281  0  0  0.057493  0  1.021594  0  0  0.057846  0  1.021274  0  0  0.093904  0.057285  0  1.021923  0
H  H59  1  0.49736059  0.97690784  0.73047100  1  0  0.046693  0  0.946303  0  0  0.057488  0  1.021596  0  0  0.05784  0  1.021274  0  0  0.093899  0.057279  0  1.021927  0
H  H60  1  0.47296549  0.37055297  0.67231266  1  0  0.074993  0  0.937907  0  0  0.088209  0  1.001288  0  0  0.089374  0  1.000291  0  0  0.1091  0.08704  0  1.002331  0
H  H61  1  0.47296617  0.12944746  0.17231315  1  0  0.074973  0  0.937938  0  0  0.08819  0  1.001317  0  0  0.089353  0  1.000323  0  0  0.10909  0.087016  0  1.002359  0
H  H62  1  0.52703399  0.62944691  0.32768722  1  0  0.074974  0  0.93794  0  0  0.088191  0  1.00132  0  0  0.089355  0  1.000325  0  0  0.10909  0.08702  0  1.002361  0
H  H63  1  0.52703446  0.87055329  0.82768766  1  0  0.074966  0  0.93794  0  0  0.088201  0  1.001304  0  0  0.089361  0  1.000308  0  0  0.10911  0.087029  0  1.002347  0
H  H64  1  0.77687655  0.49768490  0.75179954  1  0  0.038387  0  0.933577  0  0  0.055362  0  1.000092  0  0  0.055591  0  0.999278  0  0  0.094984  0.055236  0  1.000386  0
H  H65  1  0.77687609  0.00231466  0.25179906  1  0  0.038388  0  0.933576  0  0  0.055361  0  1.000096  0  0  0.05559  0  0.999283  0  0  0.094982  0.055235  0  1.000389  0
H  H66  1  0.22312408  0.50231498  0.24820127  1  0  0.038324  0  0.933629  0  0  0.055325  0  1.000124  0  0  0.055553  0  0.999312  0  0  0.094965  0.055201  0  1.000417  0
H  H67  1  0.22312340  0.99768522  0.74820082  1  0  0.038383  0  0.933586  0  0  0.055352  0  1.000109  0  0  0.055579  0  0.999299  0  0  0.094982  0.055228  0  1.000404  0
H  H68  1  0.73521894  0.36053638  0.79667338  1  0  0.043959  0  0.980823  0  0  0.057406  0  1.052219  0  0  0.057991  0  1.051686  0  0  0.086374  0.056889  0  1.052547  0
H  H69  1  0.73521847  0.13946407  0.29667295  1  0  0.043959  0  0.980827  0  0  0.05741  0  1.052219  0  0  0.057994  0  1.051686  0  0  0.086376  0.056891  0  1.05255  0
H  H70  1  0.26478055  0.63946350  0.20332723  1  0  0.043969  0  0.980823  0  0  0.05743  0  1.05221  0  0  0.058016  0  1.051676  0  0  0.08638  0.056911  0  1.052543  0
H  H71  1  0.26478102  0.86053580  0.70332693  1  0  0.043956  0  0.980839  0  0  0.057414  0  1.052227  0  0  0.058001  0  1.051692  0  0  0.086378  0.056895  0  1.052562  0
C  C72  1  0.86229262  0.42379417  0.29498920  1  0  0.321389  0  3.860936  0  0  0.300932  0  4.170415  0  0  0.329222  0  4.173064  0  0  0.093432  0.281953  0  4.168126  0
C  C73  1  0.86229311  0.07620626  0.79499027  1  0  0.321325  0  3.860988  0  0  0.300896  0  4.170459  0  0  0.329188  0  4.173109  0  0  0.093437  0.281929  0  4.168154  0
C  C74  1  0.13770686  0.57620570  0.70500923  1  0  0.321392  0  3.860968  0  0  0.300934  0  4.170447  0  0  0.329224  0  4.173097  0  0  0.093467  0.281957  0  4.168152  0
C  C75  1  0.13770751  0.92379362  0.20500908  1  0  0.321359  0  3.860982  0  0  0.300933  0  4.170449  0  0  0.329224  0  4.1731  0  0  0.093476  0.281963  0  4.168144  0
C  C76  1  0.87255016  0.63377852  0.27061128  1  0  0.064536  0  3.605749  0  0  0.001401  0  3.873581  0  0  0.010084  0  3.877244  0  0  -0.074401  -0.004455  0  3.871366  0
C  C77  1  0.87254948  0.86622161  0.77061079  1  0  0.064518  0  3.605797  0  0  0.001448  0  3.873609  0  0  0.010143  0  3.877248  0  0  -0.074373  -0.004419  0  3.871405  0
C  C78  1  0.12744933  0.36622136  0.72938861  1  0  0.064508  0  3.60581  0  0  0.001384  0  3.873625  0  0  0.010071  0  3.877273  0  0  -0.074404  -0.004476  0  3.871409  0
C  C79  1  0.12745001  0.13377827  0.22938909  1  0  0.064488  0  3.605769  0  0  0.001419  0  3.873572  0  0  0.010121  0  3.877202  0  0  -0.074392  -0.004439  0  3.871348  0
C  C80  1  0.89085434  0.73691423  0.33938404  1  0  0.049291  0  3.677562  0  0  -0.011285  0  3.955796  0  0  -0.004995  0  3.960539  0  0  -0.078493  -0.01574  0  3.953028  0
C  C81  1  0.89085481  0.76308593  0.83938371  1  0  0.049235  0  3.677592  0  0  -0.011389  0  3.955861  0  0  -0.005086  0  3.96058  0  0  -0.078544  -0.015846  0  3.953107  0
C  C82  1  0.10914515  0.26308564  0.66061658  1  0  0.049289  0  3.677541  0  0  -0.011314  0  3.95582  0  0  -0.005009  0  3.960537  0  0  -0.078512  -0.01577  0  3.953058  0
C  C83  1  0.10914467  0.23691395  0.16061618  1  0  0.049325  0  3.677491  0  0  -0.011294  0  3.955763  0  0  -0.004991  0  3.960478  0  0  -0.078508  -0.015747  0  3.952998  0
C  C84  1  0.76978018  0.83791010  0.44873329  1  0  0.057183  0  3.675241  0  0  -0.000545  0  3.945019  0  0  0.00578  0  3.95101  0  0  -0.075419  -0.004452  0  3.940118  0
C  C85  1  0.76978066  0.66209012  0.94873365  1  0  0.05711  0  3.675255  0  0  -0.000619  0  3.945028  0  0  0.005706  0  3.951018  0  0  -0.075461  -0.004523  0  3.940125  0
C  C86  1  0.23022045  0.16209064  0.55126679  1  0  0.057196  0  3.675179  0  0  -0.00055  0  3.944958  0  0  0.005775  0  3.95095  0  0  -0.075421  -0.004453  0  3.940051  0
C  C87  1  0.23021997  0.33791062  0.05126642  1  0  0.057158  0  3.675254  0  0  -0.000565  0  3.945028  0  0  0.005755  0  3.951019  0  0  -0.07545  -0.00448  0  3.94014  0
C  C88  1  0.62647899  0.83916046  0.48509702  1  0  0.055611  0  3.67679  0  0  -0.003645  0  3.949767  0  0  0.002373  0  3.955588  0  0  -0.0801  -0.007977  0  3.946223  0
C  C89  1  0.62647833  0.66083980  0.98509719  1  0  0.055637  0  3.676993  0  0  -0.003668  0  3.949966  0  0  0.002354  0  3.95578  0  0  -0.0801  -0.008003  0  3.946412  0
C  C90  1  0.37352163  0.16084115  0.51490306  1  0  0.055689  0  3.676786  0  0  -0.003551  0  3.949739  0  0  0.002466  0  3.95556  0  0  -0.08006  -0.007889  0  3.94619  0
C  C91  1  0.37352115  0.33916095  0.01490269  1  0  0.055657  0  3.676904  0  0  -0.003601  0  3.949861  0  0  0.002431  0  3.955663  0  0  -0.080074  -0.007933  0  3.946317  0
C  C92  1  0.49312560  0.73835762  0.58601631  1  0  0.061146  0  3.672817  0  0  0.002356  0  3.94295  0  0  0.008604  0  3.948629  0  0  -0.07409  -0.001598  0  3.938437  0
C  C93  1  0.49312513  0.76164247  0.08601592  1  0  0.061203  0  3.6727  0  0  0.002376  0  3.942857  0  0  0.008618  0  3.948547  0  0  -0.074105  -0.001578  0  3.938343  0
C  C94  1  0.50687388  0.26164312  0.41398430  1  0  0.061105  0  3.672811  0  0  0.002317  0  3.942959  0  0  0.008563  0  3.948642  0  0  -0.07411  -0.001631  0  3.938439  0
C  C95  1  0.50687436  0.23835741  0.91398397  1  0  0.061183  0  3.672811  0  0  0.002371  0  3.942968  0  0  0.008617  0  3.948655  0  0  -0.074106  -0.001581  0  3.938453  0
C  C96  1  0.51283286  0.64966191  0.66842537  1  0  0.043053  0  3.673452  0  0  -0.013594  0  3.943537  0  0  -0.007467  0  3.94993  0  0  -0.082863  -0.017751  0  3.939411  0
C  C97  1  0.51283238  0.85033822  0.16842501  1  0  0.042916  0  3.67346  0  0  -0.01373  0  3.94357  0  0  -0.007606  0  3.949967  0  0  -0.082898  -0.017902  0  3.939452  0
C  C98  1  0.48716777  0.35033797  0.33157543  1  0  0.043061  0  3.673488  0  0  -0.013595  0  3.943571  0  0  -0.007466  0  3.949965  0  0  -0.082869  -0.01776  0  3.939446  0
C  C99  1  0.48716825  0.14966253  0.83157507  1  0  0.042931  0  3.673525  0  0  -0.013718  0  3.94364  0  0  -0.007594  0  3.950036  0  0  -0.082887  -0.017889  0  3.939519  0
C  C100  1  0.53968841  0.44773688  0.70279254  1  0  0.03341  0  3.646473  0  0  -0.02231  0  3.917452  0  0  -0.016275  0  3.922934  0  0  -0.086541  -0.026648  0  3.914254  0
C  C101  1  0.53968795  0.05226269  0.20279208  1  0  0.033462  0  3.646475  0  0  -0.022245  0  3.917435  0  0  -0.016209  0  3.922915  0  0  -0.086516  -0.026573  0  3.914222  0
C  C102  1  0.46031221  0.55226300  0.29720754  1  0  0.033467  0  3.646499  0  0  -0.022256  0  3.917472  0  0  -0.016221  0  3.922953  0  0  -0.086529  -0.026586  0  3.914262  0
C  C103  1  0.46031153  0.94773632  0.79720708  1  0  0.033487  0  3.646414  0  0  -0.022272  0  3.917416  0  0  -0.016229  0  3.922887  0  0  -0.086537  -0.026604  0  3.914207  0
C  C104  1  0.70813178  0.41835594  0.73065125  1  0  0.098866  0  3.695099  0  0  0.0386  0  3.968468  0  0  0.045508  0  3.973835  0  0  -0.094951  0.033595  0  3.964965  0
C  C105  1  0.70813246  0.08164449  0.23065099  1  0  0.098853  0  3.695112  0  0  0.038581  0  3.968492  0  0  0.045491  0  3.973857  0  0  -0.094955  0.033573  0  3.964991  0
C  C106  1  0.29186771  0.58164481  0.26934863  1  0  0.098891  0  3.695132  0  0  0.038597  0  3.968505  0  0  0.045505  0  3.973872  0  0  -0.094941  0.033591  0  3.965  0
C  C107  1  0.29186703  0.91835539  0.76934816  1  0  0.098869  0  3.695068  0  0  0.038604  0  3.968422  0  0  0.045511  0  3.973787  0  0  -0.094946  0.033601  0  3.964918  0
S  S108  1  0.90808326  0.31903694  0.38348686  1  0  -0.507166  0  1.910126  0  0  -0.492743  0  2.220477  0  0  -0.506957  0  2.212074  0  0  -0.235171  -0.482328  0  2.224538  0
S  S109  1  0.90808374  0.18096266  0.88348796  1  0  -0.507143  0  1.910149  0  0  -0.492719  0  2.22049  0  0  -0.506932  0  2.212083  0  0  -0.235163  -0.482311  0  2.224552  0
S  S110  1  0.09191623  0.68096294  0.61651230  1  0  -0.507136  0  1.910123  0  0  -0.492711  0  2.220479  0  0  -0.506926  0  2.212074  0  0  -0.235151  -0.482291  0  2.224541  0
S  S111  1  0.09191575  0.81903721  0.11651192  1  0  -0.507153  0  1.91017  0  0  -0.492734  0  2.220517  0  0  -0.506946  0  2.212111  0  0  -0.235174  -0.482327  0  2.224587  0
S  S112  1  0.77934977  0.40714856  0.17119503  1  0  -0.437676  0  1.956791  0  0  -0.404684  0  2.253529  0  0  -0.420127  0  2.246578  0  0  -0.175942  -0.394655  0  2.257707  0
S  S113  1  0.77935025  0.09285183  0.67119538  1  0  -0.437648  0  1.956797  0  0  -0.404653  0  2.253523  0  0  -0.420098  0  2.246574  0  0  -0.175921  -0.394624  0  2.257701  0
S  S114  1  0.22064972  0.59285132  0.82880485  1  0  -0.437722  0  1.956787  0  0  -0.404728  0  2.253528  0  0  -0.420173  0  2.246577  0  0  -0.175968  -0.394693  0  2.257707  0
S  S115  1  0.22065038  0.90714805  0.32880470  1  0  -0.437698  0  1.956815  0  0  -0.404704  0  2.25354  0  0  -0.420149  0  2.246589  0  0  -0.175952  -0.394669  0  2.257717  0
O  O116  1  0.89826444  0.53211297  0.33479992  1  0  -0.320386  0  2.393762  0  0  -0.238162  0  2.635574  0  0  -0.259377  0  2.637279  0  0  -0.214981  -0.22392  0  2.634161  0
O  O117  1  0.89826375  0.96788632  0.83480020  1  0  -0.320322  0  2.393774  0  0  -0.238169  0  2.635613  0  0  -0.259391  0  2.63731  0  0  -0.214997  -0.223929  0  2.634201  0
O  O118  1  0.10173619  0.46788691  0.66519942  1  0  -0.320353  0  2.39373  0  0  -0.238148  0  2.63557  0  0  -0.259358  0  2.637251  0  0  -0.214986  -0.223903  0  2.634151  0
O  O119  1  0.10173687  0.03211356  0.16519988  1  0  -0.320306  0  2.393728  0  0  -0.238154  0  2.635576  0  0  -0.259376  0  2.637269  0  0  -0.214983  -0.223912  0  2.634155  0
O  O120  1  0.76447579  0.73996959  0.38425409  1  0  -0.341755  0  2.29703  0  0  -0.270829  0  2.552983  0  0  -0.286966  0  2.555226  0  0  -0.265221  -0.259156  0  2.55093  0
O  O121  1  0.76447626  0.76003060  0.88425449  1  0  -0.34173  0  2.297032  0  0  -0.270796  0  2.552993  0  0  -0.28694  0  2.55523  0  0  -0.265195  -0.259122  0  2.55094  0
O  O122  1  0.23552370  0.26003029  0.61574652  1  0  -0.341766  0  2.297027  0  0  -0.270835  0  2.552994  0  0  -0.28698  0  2.555233  0  0  -0.265215  -0.259163  0  2.550943  0
O  O123  1  0.23552437  0.23997014  0.11574558  1  0  -0.341755  0  2.297001  0  0  -0.270812  0  2.552952  0  0  -0.286958  0  2.555194  0  0  -0.265207  -0.259138  0  2.550899  0
O  O124  1  0.62770895  0.74168032  0.54964165  1  0  -0.34257  0  2.263207  0  0  -0.269758  0  2.517901  0  0  -0.285393  0  2.519277  0  0  -0.282861  -0.258794  0  2.515855  0
O  O125  1  0.62770962  0.75831887  0.04964217  1  0  -0.342676  0  2.26323  0  0  -0.269793  0  2.517893  0  0  -0.285425  0  2.51927  0  0  -0.28286  -0.258814  0  2.51584  0
O  O126  1  0.37229054  0.25832043  0.45035751  1  0  -0.342618  0  2.263239  0  0  -0.269817  0  2.517939  0  0  -0.28545  0  2.519317  0  0  -0.282897  -0.258853  0  2.51589  0
O  O127  1  0.37229101  0.24168101  0.95035790  1  0  -0.34261  0  2.263199  0  0  -0.269786  0  2.517891  0  0  -0.285422  0  2.519264  0  0  -0.282875  -0.258819  0  2.515843  0
O  O128  1  0.50207652  0.53539078  0.62575414  1  0  -0.35137  0  2.237574  0  0  -0.279891  0  2.488801  0  0  -0.295391  0  2.489403  0  0  -0.297881  -0.269286  0  2.4883  0
O  O129  1  0.50207603  0.96460846  0.12575381  1  0  -0.351359  0  2.237624  0  0  -0.279879  0  2.488854  0  0  -0.29538  0  2.489456  0  0  -0.297902  -0.269279  0  2.488356  0
O  O130  1  0.49792411  0.46460910  0.37424594  1  0  -0.351399  0  2.237667  0  0  -0.279894  0  2.488881  0  0  -0.295395  0  2.489484  0  0  -0.297881  -0.26929  0  2.488378  0
O  O131  1  0.49792346  0.03539055  0.87424607  1  0  -0.351361  0  2.23753  0  0  -0.27989  0  2.488775  0  0  -0.295389  0  2.489374  0  0  -0.297898  -0.269285  0  2.488274  0
O  O132  1  0.75377268  0.36594614  0.64849772  1  0  -0.588837  0  2.117051  0  0  -0.531562  0  2.355372  0  0  -0.548209  0  2.344187  0  0  -0.487102  -0.519281  0  2.362672  0
O  O133  1  0.75377222  0.13405338  0.14849802  1  0  -0.588844  0  2.117079  0  0  -0.53157  0  2.355398  0  0  -0.548217  0  2.344213  0  0  -0.48709  -0.519288  0  2.3627  0
O  O134  1  0.24622680  0.63405374  0.35150144  1  0  -0.588847  0  2.117055  0  0  -0.531581  0  2.35539  0  0  -0.548228  0  2.344204  0  0  -0.48711  -0.519305  0  2.362694  0
O  O135  1  0.24622727  0.86594650  0.85150187  1  0  -0.588842  0  2.117039  0  0  -0.531562  0  2.355352  0  0  -0.548209  0  2.344169  0  0  -0.487098  -0.519283  0  2.362672  0
