# generated using pymatgen
data_ZnH19C26N7O6
_symmetry_space_group_name_H-M   'P 1'
_cell_length_a   14.18818963
_cell_length_b   15.25661134
_cell_length_c   23.60361325
_cell_angle_alpha   89.22598525
_cell_angle_beta   89.81466720
_cell_angle_gamma   90.25554088
_symmetry_Int_Tables_number   1
_chemical_formula_structural   ZnH19C26N7O6
_chemical_formula_sum   'Zn2 H38 C52 N14 O12'
_cell_volume   5108.78057847
_cell_formula_units_Z   2
loop_
 _symmetry_equiv_pos_site_id
 _symmetry_equiv_pos_as_xyz
  1  'x, y, z'
loop_
 _atom_site_type_symbol
 _atom_site_label
 _atom_site_symmetry_multiplicity
 _atom_site_fract_x
 _atom_site_fract_y
 _atom_site_fract_z
 _atom_site_occupancy
 _atom_site_pbe_bader_charge
 _atom_site_pbe_bader_spin_density
 _atom_site_pbe_cm5_charge
 _atom_site_pbe_ddec_charge
 _atom_site_pbe_ddec_spin_density
 _atom_site_pbe_ddec_sum_bond_order
 _atom_site_pbe_magmom
Zn  Zn0  1  0.38950512  0.50013271  0.49985225  1  1.293099  0  0.67787  0.845958  0  2.355149  0
Zn  Zn1  1  0.59702235  0.50051262  0.50012368  1  1.274836  0  0.680995  0.850758  0  2.321083  0
H  H2  1  0.55796791  0.71908278  0.03955982  1  0.114252  0  0.114033  0.127545  0  0.989283  0
H  H3  1  0.65669528  0.06371257  0.45483292  1  0.020267  0  0.091522  0.106469  0  1.022584  0
H  H4  1  0.39019196  0.05408528  0.54198904  1  0.040096  0  0.091803  0.106087  0  1.024703  0
H  H5  1  0.65549181  0.93864046  0.54737126  1  0.026007  0  0.091365  0.10644  0  1.022173  0
H  H6  1  0.92751924  0.52719128  0.59048668  1  0.058541  0  0.100451  0.12202  0  1.016835  0
H  H7  1  0.05781861  0.38146612  0.45194022  1  0.052662  0  0.099557  0.121361  0  1.019006  0
H  H8  1  0.92886904  0.47199745  0.41178561  1  0.044025  0  0.099944  0.1213  0  1.017578  0
H  H9  1  0.05874495  0.61802552  0.55002755  1  0.06015  0  0.099562  0.120951  0  1.018296  0
H  H10  1  0.67284324  0.50781125  0.60013601  1  0.492179  0  0.295281  0.310385  0  1.013293  0
H  H11  1  0.77751099  0.53145874  0.63414354  1  0.459639  0  0.314776  0.309663  0  0.928084  0
H  H12  1  0.31250438  0.36165373  0.45745837  1  0.493166  0  0.300788  0.319741  0  0.986844  0
H  H13  1  0.43817189  0.28008939  0.95986871  1  0.102467  0  0.114621  0.128143  0  0.98853  0
H  H14  1  0.20708614  0.31843516  0.43503665  1  0.457064  0  0.316974  0.313225  0  0.922698  0
H  H15  1  0.67479638  0.49045748  0.40118254  1  0.513645  0  0.295106  0.309128  0  1.014205  0
H  H16  1  0.78002405  0.46696905  0.36772063  1  0.437207  0  0.314579  0.308725  0  0.929731  0
H  H17  1  0.20840048  0.68210503  0.56523008  1  0.448114  0  0.316182  0.31238  0  0.92445  0
H  H18  1  0.31353472  0.63917803  0.54236215  1  0.484206  0  0.300533  0.319578  0  0.987048  0
H  H19  1  0.58185313  0.78021089  0.94597571  1  0.443192  0  0.322264  0.31625  0  0.92425  0
H  H20  1  0.56688861  0.71566315  0.88429762  1  0.497804  0  0.30598  0.322053  0  0.980469  0
H  H21  1  0.43824396  0.28110619  0.11507423  1  0.501665  0  0.306857  0.322572  0  0.980136  0
H  H22  1  0.42084257  0.21743434  0.05324788  1  0.460645  0  0.3227  0.31705  0  0.923245  0
H  H23  1  0.35326180  0.53427018  0.67957594  1  0.106008  0  0.107983  0.113419  0  0.997239  0
H  H24  1  0.35825399  0.53855409  0.78597949  1  0.06863  0  0.109794  0.116183  0  0.97964  0
H  H25  1  0.63183858  0.58053594  0.32126241  1  0.073595  0  0.104533  0.104602  0  1.005628  0
H  H26  1  0.36084122  0.71249203  0.45483926  1  0.49882  0  0.296386  0.307213  0  0.992291  0
H  H27  1  0.32768032  0.81453804  0.42834837  1  0.420539  0  0.304497  0.298424  0  0.94605  0
H  H28  1  0.71917733  0.19980247  0.42861773  1  0.410052  0  0.304829  0.298971  0  0.946946  0
H  H29  1  0.66213394  0.29950597  0.44124489  1  0.522342  0  0.290163  0.305972  0  1.01589  0
H  H30  1  0.35833205  0.28698713  0.54429935  1  0.462389  0  0.296056  0.307334  0  0.992829  0
H  H31  1  0.32424194  0.18479450  0.57083080  1  0.423406  0  0.304734  0.299172  0  0.945642  0
H  H32  1  0.66149548  0.70257125  0.55979169  1  0.489333  0  0.290414  0.308616  0  1.010058  0
H  H33  1  0.71807929  0.80256455  0.57325103  1  0.422851  0  0.304949  0.299347  0  0.946142  0
H  H34  1  0.63642701  0.57579373  0.21546818  1  0.074288  0  0.108987  0.118238  0  0.984336  0
H  H35  1  0.61753977  0.39871210  0.67792997  1  0.069181  0  0.106282  0.107356  0  0.99802  0
H  H36  1  0.34383236  0.49368775  0.32029896  1  0.116291  0  0.107489  0.114149  0  0.996652  0
H  H37  1  0.62187850  0.40101916  0.78418412  1  0.079182  0  0.10924  0.11685  0  0.980311  0
H  H38  1  0.34696945  0.49090840  0.21420244  1  0.077094  0  0.109148  0.115966  0  0.982455  0
H  H39  1  0.39204630  0.94550748  0.45791735  1  0.026184  0  0.091758  0.105947  0  1.024881  0
C  C40  1  0.50441412  0.67021434  0.51366471  1  1.508827  0  0.208763  0.614752  0  4.129486  0
C  C41  1  0.40730496  0.51190145  0.29681258  1  -0.012191  0  -0.078958  -0.074436  0  3.966894  0
C  C42  1  0.56378010  0.43079509  0.76091560  1  0.100996  0  -0.084478  -0.154021  0  3.979828  0
C  C43  1  0.40919177  0.51029706  0.23794401  1  -0.015363  0  -0.084188  -0.14919  0  3.986376  0
C  C44  1  0.49104410  0.47124115  0.79044741  1  0.281913  0  0.092257  0.198187  0  4.014319  0
C  C45  1  0.49253769  0.53112747  0.20907039  1  0.336078  0  0.091936  0.1953  0  4.003227  0
C  C46  1  0.44689944  0.90795867  0.47936975  1  -0.007231  0  -0.137525  -0.323895  0  4.009186  0
C  C47  1  0.59650286  0.09732071  0.47334539  1  -0.004681  0  -0.136011  -0.322912  0  3.992419  0
C  C48  1  0.44577750  0.09224248  0.52110504  1  -0.042982  0  -0.138522  -0.325631  0  4.009265  0
C  C49  1  0.59595498  0.90441698  0.52844021  1  -0.019798  0  -0.136729  -0.323791  0  3.992218  0
C  C50  1  0.43874081  0.81645806  0.48275401  1  0.418251  0  0.098721  0.325646  0  4.102361  0
C  C51  1  0.50343479  0.33045071  0.48655374  1  1.492435  0  0.209074  0.61498  0  4.128563  0
C  C52  1  0.59033345  0.18920927  0.46763978  1  0.420373  0  0.104972  0.336191  0  4.088372  0
C  C53  1  0.43735660  0.18365063  0.51744276  1  0.426601  0  0.099335  0.326504  0  4.103184  0
C  C54  1  0.59014633  0.81239214  0.53366546  1  0.428596  0  0.105493  0.336361  0  4.089017  0
C  C55  1  0.51050287  0.76616878  0.51077218  1  0.031271  0  -0.05405  -0.301964  0  3.870802  0
C  C56  1  0.50975359  0.23461900  0.48981861  1  0.003578  0  -0.054346  -0.302028  0  3.872584  0
C  C57  1  0.52422030  0.95190658  0.50215972  1  -0.094835  0  -0.006822  0.129708  0  4.07193  0
C  C58  1  0.52409633  0.04911409  0.49911962  1  0.036572  0  -0.007055  0.129637  0  4.071753  0
C  C59  1  0.48501850  0.47264320  0.60924916  1  1.514581  0  0.218804  0.59376  0  4.1668  0
C  C60  1  0.48696310  0.52906554  0.39059485  1  1.524981  0  0.21889  0.594525  0  4.16334  0
C  C61  1  0.89089861  0.51649969  0.55068744  1  0.016826  0  -0.130157  -0.358907  0  3.969179  0
C  C62  1  0.41446262  0.50772070  0.76190140  1  -0.037794  0  -0.083156  -0.151698  0  3.978956  0
C  C63  1  0.09487570  0.43456877  0.47286822  1  0.018017  0  -0.131937  -0.36237  0  3.974244  0
C  C64  1  0.89165589  0.48277353  0.45149770  1  0.037364  0  -0.130056  -0.358985  0  3.972245  0
C  C65  1  0.09545457  0.56505501  0.52890388  1  0.024772  0  -0.131949  -0.360948  0  3.971648  0
C  C66  1  0.79188236  0.51500235  0.54951447  1  0.981117  0  0.222992  0.472876  0  4.098803  0
C  C67  1  0.19395847  0.43560335  0.47379258  1  0.980505  0  0.223394  0.474466  0  4.103854  0
C  C68  1  0.79270319  0.48418204  0.45233482  1  0.975691  0  0.222905  0.47325  0  4.099888  0
C  C69  1  0.19453994  0.56450518  0.52720121  1  0.955113  0  0.223626  0.475102  0  4.101263  0
C  C70  1  0.94111216  0.49969363  0.50115740  1  -0.074437  0  0.002953  0.1533  0  4.068714  0
C  C71  1  0.04543731  0.49971472  0.50106309  1  -0.07556  0  2.1e-05  0.148885  0  4.075703  0
C  C72  1  0.47779623  0.43847974  0.12627964  1  1.300099  0  0.23498  0.441154  0  4.0916  0
C  C73  1  0.57268846  0.55738513  0.23860679  1  -0.002293  0  -0.086077  -0.153799  0  3.983309  0
C  C74  1  0.52076065  0.56021375  0.87314754  1  1.292933  0  0.234833  0.442755  0  4.097539  0
C  C75  1  0.51760440  0.59815560  0.11548334  1  1.370591  0  0.240124  0.434924  0  4.096795  0
C  C76  1  0.47307255  0.40240696  0.88381324  1  1.351207  0  0.240092  0.435278  0  4.104756  0
C  C77  1  0.51971443  0.58573693  0.05337588  1  -0.121526  0  -0.01007  -0.049201  0  4.026161  0
C  C78  1  0.47607314  0.41350792  0.94605248  1  -0.042845  0  -0.009769  -0.045989  0  4.020725  0
C  C79  1  0.49829541  0.50284147  0.02967146  1  0.013619  0  -0.008095  0.029293  0  4.05091  0
C  C80  1  0.49892449  0.49614199  0.96973295  1  0.035763  0  -0.007801  0.029077  0  4.046588  0
C  C81  1  0.47722062  0.42945411  0.06493617  1  0.019147  0  -0.029969  -0.207947  0  3.984939  0
C  C82  1  0.52146726  0.56922293  0.93450997  1  0.014071  0  -0.030327  -0.205986  0  3.981387  0
C  C83  1  0.54199058  0.65696732  0.01919523  1  0.000712  0  -0.078099  -0.189164  0  3.904733  0
C  C84  1  0.41178466  0.50566875  0.70304466  1  -0.037854  0  -0.076581  -0.069499  0  3.958807  0
C  C85  1  0.45529461  0.34194693  0.98023843  1  -0.028659  0  -0.078734  -0.19138  0  3.903329  0
C  C86  1  0.54420068  0.65115798  0.95921931  1  0.502787  0  0.120585  0.313631  0  4.088145  0
C  C87  1  0.45592039  0.34709538  0.04026154  1  0.511607  0  0.121527  0.316384  0  4.084558  0
C  C88  1  0.57007014  0.55971724  0.29756414  1  -0.027525  0  -0.083176  -0.082167  0  3.982308  0
C  C89  1  0.48598585  0.46804042  0.67266175  1  0.059135  0  -0.015531  -0.035938  0  3.967353  0
C  C90  1  0.48822833  0.53500775  0.32716736  1  0.02159  0  -0.018164  -0.038739  0  3.970751  0
C  C91  1  0.56126657  0.42957809  0.70193732  1  -0.044622  0  -0.082047  -0.081255  0  3.97915  0
N  N92  1  0.49572262  0.52291322  0.14831495  1  -1.214123  0  -0.22857  -0.2024  0  3.549846  0
N  N93  1  0.43598616  0.27486395  0.07204982  1  -1.265154  0  -0.571386  -0.594295  0  3.344178  0
N  N94  1  0.36016484  0.77871650  0.45887537  1  -1.255218  0  -0.606091  -0.630787  0  3.341215  0
N  N95  1  0.66006335  0.23296296  0.43861008  1  -1.266713  0  -0.599893  -0.625005  0  3.357973  0
N  N96  1  0.35792773  0.22070923  0.54055927  1  -1.226305  0  -0.605607  -0.630925  0  3.341651  0
N  N97  1  0.65917920  0.76903469  0.56291944  1  -1.259423  0  -0.599838  -0.626985  0  3.351842  0
N  N98  1  0.49534305  0.47765432  0.85137147  1  -1.200787  0  -0.231248  -0.207682  0  3.569033  0
N  N99  1  0.74327964  0.49975028  0.50080259  1  -1.238393  0  -0.345591  -0.430246  0  3.331879  0
N  N100  1  0.24330579  0.50016847  0.50029740  1  -1.269017  0  -0.346712  -0.432816  0  3.327162  0
N  N101  1  0.74101545  0.53083758  0.59739905  1  -1.291986  0  -0.584979  -0.635114  0  3.298258  0
N  N102  1  0.24353455  0.37226471  0.44684732  1  -1.27622  0  -0.585058  -0.63486  0  3.295477  0
N  N103  1  0.74274466  0.46774817  0.40430834  1  -1.276101  0  -0.585813  -0.635524  0  3.302952  0
N  N104  1  0.24463207  0.62828267  0.55359698  1  -1.234088  0  -0.584335  -0.634774  0  3.296238  0
N  N105  1  0.56709767  0.72256827  0.92732788  1  -1.244582  0  -0.571053  -0.593387  0  3.343678  0
O  O106  1  0.42543856  0.63255322  0.50106718  1  -1.197009  0  -0.318531  -0.576094  0  2.403848  0
O  O107  1  0.54078186  0.62082543  0.83930871  1  -1.11545  0  -0.284137  -0.459134  0  2.103693  0
O  O108  1  0.53320158  0.66917459  0.13782889  1  -1.110983  0  -0.287973  -0.450666  0  2.07361  0
O  O109  1  0.45214711  0.33295670  0.86098160  1  -1.116131  0  -0.291581  -0.452508  0  2.06212  0
O  O110  1  0.57615064  0.37616572  0.47218180  1  -1.178073  0  -0.319115  -0.552776  0  2.374011  0
O  O111  1  0.42429323  0.36769556  0.49896598  1  -1.193681  0  -0.318974  -0.576671  0  2.396642  0
O  O112  1  0.57699152  0.62492121  0.52788162  1  -1.181654  0  -0.318597  -0.553013  0  2.368853  0
O  O113  1  0.40790868  0.49400054  0.58599851  1  -1.165795  0  -0.311179  -0.536069  0  2.349156  0
O  O114  1  0.56431869  0.54386976  0.41672920  1  -1.189678  0  -0.315114  -0.56372  0  2.347666  0
O  O115  1  0.40917201  0.50815067  0.41384620  1  -1.164255  0  -0.311863  -0.536859  0  2.346654  0
O  O116  1  0.56212862  0.45613753  0.58316485  1  -1.183461  0  -0.31393  -0.562833  0  2.348035  0
O  O117  1  0.46339195  0.37614075  0.15979395  1  -1.118352  0  -0.279713  -0.454486  0  2.117575  0
