# generated using pymatgen
data_AlH7C13BrNO6
_symmetry_space_group_name_H-M   'P 1'
_cell_length_a   6.60825592
_cell_length_b   11.04125902
_cell_length_c   17.03280598
_cell_angle_alpha   83.22669312
_cell_angle_beta   81.46628739
_cell_angle_gamma   73.88661106
_symmetry_Int_Tables_number   1
_chemical_formula_structural   AlH7C13BrNO6
_chemical_formula_sum   'Al2 H14 C26 Br2 N2 O12'
_cell_volume   1176.87118975
_cell_formula_units_Z   2
loop_
 _symmetry_equiv_pos_site_id
 _symmetry_equiv_pos_as_xyz
  1  'x, y, z'
loop_
 _atom_site_type_symbol
 _atom_site_label
 _atom_site_symmetry_multiplicity
 _atom_site_fract_x
 _atom_site_fract_y
 _atom_site_fract_z
 _atom_site_occupancy
 _atom_site_pbe_bader_charge
 _atom_site_pbe_bader_spin_density
 _atom_site_pbe_cm5_charge
 _atom_site_pbe_ddec_charge
 _atom_site_pbe_ddec_spin_density
 _atom_site_pbe_ddec_sum_bond_order
 _atom_site_pbe_magmom
Al  Al0  1  0.50383927  0.49892666  0.49790805  1  2.50308  0  0.386893  1.638693  0  2.580304  0
Al  Al1  1  0.00305519  0.50172017  0.49759723  1  2.50078  0  0.396969  1.634685  0  2.565931  0
H  H2  1  0.20406068  0.65306097  0.44835311  1  0.612199  0  0.333921  0.410182  0  0.901412  0
H  H3  1  0.81668185  0.34493516  0.53859261  1  0.60046  0  0.348868  0.42476  0  0.868687  0
H  H4  1  0.82063132  0.55395415  0.73877499  1  0.083891  0  0.10611  0.112671  0  1.021161  0
H  H5  1  0.76737266  0.55510631  0.88718279  1  0.12849  0  0.104797  0.110435  0  1.029107  0
H  H6  1  0.44596923  0.45495776  0.88825630  1  0.115198  0  0.115931  0.139021  0  0.991261  0
H  H7  1  0.56074419  0.54457593  0.10762685  1  0.113444  0  0.115794  0.138485  0  0.98862  0
H  H8  1  0.23911047  0.44855003  0.10905906  1  0.104711  0  0.10441  0.110802  0  1.027589  0
H  H9  1  0.18475335  0.44982305  0.25748720  1  0.156539  0  0.103671  0.112611  0  1.027473  0
H  H10  1  0.82697514  0.75904068  0.61407232  1  0.087628  0  0.106648  0.113588  0  1.03165  0
H  H11  1  0.93831775  0.87126756  0.70916802  1  0.071709  0  0.107794  0.106022  0  0.984545  0
H  H12  1  0.56996845  0.22828975  0.61281186  1  0.081726  0  0.105436  0.105737  0  1.038121  0
H  H13  1  0.80774025  0.10722999  0.70881583  1  0.09599  0  0.109424  0.108667  0  0.98014  0
H  H14  1  0.53386017  0.45373431  0.67759438  1  0.634753  0  0.314601  0.357304  0  0.961415  0
H  H15  1  0.47288579  0.54346931  0.31849579  1  0.636848  0  0.31329  0.358942  0  0.95938  0
C  C16  1  0.63606551  0.72534975  0.50218885  1  1.570201  0  0.27309  0.663895  0  4.094297  0
C  C17  1  0.81959519  0.49992059  0.35339162  1  1.486192  0  0.260332  0.648541  0  4.082714  0
C  C18  1  0.36647051  0.27442169  0.49324551  1  1.559759  0  0.273024  0.6653  0  4.089047  0
C  C19  1  0.18601004  0.50158655  0.64258683  1  1.486345  0  0.259999  0.642105  0  4.084067  0
C  C20  1  0.16152047  0.50588214  0.72935221  1  0.024868  0  -0.0373  -0.205287  0  3.978395  0
C  C21  1  0.95599391  0.53443891  0.77216939  1  -0.01491  0  -0.079073  -0.04503  0  3.995819  0
C  C22  1  0.92539597  0.53410479  0.85407049  1  -0.001109  0  -0.098142  -0.1802  0  3.974447  0
C  C23  1  0.10487096  0.50391082  0.89574326  1  0.362878  0  0.09364  0.201021  0  4.05662  0
C  C24  1  0.30967167  0.47795080  0.85499488  1  0.006795  0  -0.090223  -0.26274  0  3.889992  0
C  C25  1  0.34102130  0.47790716  0.77180557  1  0.470535  0  0.097438  0.327474  0  4.050287  0
C  C26  1  0.69676162  0.52263045  0.14094288  1  -0.089464  0  -0.089806  -0.260322  0  3.882104  0
C  C27  1  0.90168498  0.49793621  0.10028141  1  0.385694  0  0.093482  0.199638  0  4.058663  0
C  C28  1  0.08090061  0.46891769  0.14201094  1  0.017005  0  -0.097691  -0.177843  0  3.971125  0
C  C29  1  0.04988652  0.46856087  0.22392811  1  -0.064504  0  -0.081533  -0.045776  0  3.991308  0
C  C30  1  0.84430573  0.49560201  0.26658598  1  0.004932  0  -0.03663  -0.198992  0  3.967797  0
C  C31  1  0.66507264  0.52207524  0.22416619  1  0.551543  0  0.097385  0.328621  0  4.044947  0
C  C32  1  0.56680195  0.86698697  0.49971481  1  0.079134  0  -0.009397  -0.115307  0  3.926515  0
C  C33  1  0.63686735  0.92938665  0.55514737  1  0.024667  0  0.002105  0.070278  0  3.958245  0
C  C34  1  0.43564695  0.93575544  0.44441221  1  -0.064551  0  -0.015731  0.037458  0  3.951847  0
C  C35  1  0.77164939  0.86172851  0.61250188  1  -0.062333  0  -0.088216  -0.128268  0  3.952895  0
C  C36  1  0.83384627  0.92476345  0.66593425  1  -0.006473  0  -0.08535  -0.0716  0  4.015008  0
C  C37  1  0.43226934  0.13277029  0.49567274  1  0.090044  0  -0.011022  -0.117481  0  3.929207  0
C  C38  1  0.36910396  0.06994766  0.44179665  1  -0.055074  0  -0.017562  0.034361  0  3.96707  0
C  C39  1  0.56565399  0.06459278  0.55383002  1  -0.005524  0  0.001079  0.070159  0  3.961256  0
C  C40  1  0.62840779  0.12608316  0.61126188  1  -0.017282  0  -0.093022  -0.137413  0  3.970861  0
C  C41  1  0.76083754  0.05784999  0.66560899  1  -0.081249  0  -0.085447  -0.073312  0  4.018662  0
Br  Br42  1  0.20516556  0.16357112  0.36160070  1  -0.002871  0  0.061455  -0.008241  0  1.528321  0
Br  Br43  1  0.35490073  0.85197198  0.36766389  1  -0.015485  0  0.070594  -0.011601  0  1.537958  0
N  N44  1  0.09551391  0.49665397  0.97965431  1  -0.486219  0  -0.143134  -0.129199  0  3.256762  0
N  N45  1  0.91148923  0.50498212  0.01641227  1  -0.485989  0  -0.141642  -0.124693  0  3.2578  0
O  O46  1  0.49232685  0.66722783  0.51940073  1  -1.265609  0  -0.233631  -0.588241  0  2.350755  0
O  O47  1  0.98274843  0.48300225  0.38874050  1  -1.258023  0  -0.235642  -0.583317  0  2.367337  0
O  O48  1  0.17055323  0.32889404  0.50886535  1  -1.252398  0  -0.228715  -0.591299  0  2.362141  0
O  O49  1  0.37859843  0.47159657  0.60639343  1  -1.273823  0  -0.243699  -0.62145  0  2.403294  0
O  O50  1  0.51474421  0.32957458  0.47848343  1  -1.256214  0  -0.230275  -0.582613  0  2.335202  0
O  O51  1  0.02205554  0.52422979  0.60678704  1  -1.260012  0  -0.232108  -0.57254  0  2.340492  0
O  O52  1  0.83348370  0.67366043  0.48749147  1  -1.24935  0  -0.22463  -0.579237  0  2.343379  0
O  O53  1  0.62745537  0.52374340  0.38984503  1  -1.270632  0  -0.245183  -0.635966  0  2.439141  0
O  O54  1  0.23975528  0.56223338  0.46246216  1  -1.422428  0  -0.44918  -0.980211  0  2.205653  0
O  O55  1  0.76894718  0.43681052  0.53368255  1  -1.405248  0  -0.448917  -0.979405  0  2.171235  0
O  O56  1  0.54294074  0.44976105  0.73598680  1  -1.144002  0  -0.34205  -0.432379  0  2.285743  0
O  O57  1  0.46338082  0.54868298  0.26006512  1  -1.137263  0  -0.343227  -0.43149  0  2.290338  0
