# generated using pymatgen
data_CdH16C20N4O5
_symmetry_space_group_name_H-M   'P 1'
_cell_length_a   7.44421279
_cell_length_b   12.02119915
_cell_length_c   11.34365583
_cell_angle_alpha   96.08865123
_cell_angle_beta   98.64810128
_cell_angle_gamma   110.74556472
_symmetry_Int_Tables_number   1
_chemical_formula_structural   CdH16C20N4O5
_chemical_formula_sum   'Cd2 H32 C40 N8 O10'
_cell_volume   924.47226322
_cell_formula_units_Z   2
loop_
 _symmetry_equiv_pos_site_id
 _symmetry_equiv_pos_as_xyz
  1  'x, y, z'
loop_
 _atom_site_type_symbol
 _atom_site_label
 _atom_site_symmetry_multiplicity
 _atom_site_fract_x
 _atom_site_fract_y
 _atom_site_fract_z
 _atom_site_occupancy
 _atom_site_hle17_bader_spin_density
 _atom_site_hle17_ddec_charge
 _atom_site_hle17_ddec_spin_density
 _atom_site_hle17_ddec_sum_bond_order
 _atom_site_hle17_magmom
 _atom_site_hse06_10hf_bader_spin_density
 _atom_site_hse06_10hf_ddec_charge
 _atom_site_hse06_10hf_ddec_spin_density
 _atom_site_hse06_10hf_ddec_sum_bond_order
 _atom_site_hse06_10hf_magmom
 _atom_site_hse06_bader_spin_density
 _atom_site_hse06_ddec_charge
 _atom_site_hse06_ddec_spin_density
 _atom_site_hse06_ddec_sum_bond_order
 _atom_site_hse06_magmom
 _atom_site_pbe_bader_spin_density
 _atom_site_pbe_cm5_charge
 _atom_site_pbe_ddec_charge
 _atom_site_pbe_ddec_spin_density
 _atom_site_pbe_ddec_sum_bond_order
 _atom_site_pbe_magmom
Cd  Cd0  1  0.08790609  0.14014752  0.20823920  1  0  1.129563  0  1.664484  0  0  0.93984  0  2.105294  0  0  0.992787  0  2.056747  0  0  0.779649  0.902413  0  2.138405  0
Cd  Cd1  1  0.91209368  0.85985363  0.79175854  1  0  1.129593  0  1.664463  0  0  0.939851  0  2.105279  0  0  0.992798  0  2.056728  0  0  0.779658  0.902424  0  2.138397  0
H  H2  1  0.45911630  0.50511495  0.10065566  1  0  0.094467  0  0.962999  0  0  0.104565  0  1.025386  0  0  0.107512  0  1.023903  0  0  0.101674  0.102415  0  1.026592  0
H  H3  1  0.54088657  0.49488447  0.89934310  1  0  0.094461  0  0.963025  0  0  0.10456  0  1.025404  0  0  0.107506  0  1.023923  0  0  0.10166  0.102393  0  1.026629  0
H  H4  1  0.50402814  0.67341946  0.98099330  1  0  0.103699  0  0.952757  0  0  0.112735  0  1.016383  0  0  0.116573  0  1.01341  0  0  0.105261  0.10988  0  1.018707  0
H  H5  1  0.49596690  0.32658066  0.01900644  1  0  0.10372  0  0.952725  0  0  0.112754  0  1.016341  0  0  0.116593  0  1.013366  0  0  0.105274  0.109889  0  1.018675  0
H  H6  1  0.99995332  0.72087058  0.08339117  1  0  0.100897  0  0.967984  0  0  0.108918  0  1.033979  0  0  0.112045  0  1.03219  0  0  0.10276  0.10662  0  1.035362  0
H  H7  1  0.00004069  0.27912320  0.91661476  1  0  0.10091  0  0.968012  0  0  0.108933  0  1.03401  0  0  0.112062  0  1.032212  0  0  0.1028  0.106644  0  1.035376  0
H  H8  1  0.96537204  0.55806926  0.21124966  1  0  0.096903  0  0.949096  0  0  0.105899  0  1.010487  0  0  0.109304  0  1.008968  0  0  0.101953  0.10341  0  1.011714  0
H  H9  1  0.03463339  0.44192564  0.78876032  1  0  0.096837  0  0.949202  0  0  0.105835  0  1.010593  0  0  0.109242  0  1.009071  0  0  0.101919  0.103346  0  1.011817  0
H  H10  1  0.80375010  0.84305251  0.14255546  1  0  0.081643  0  0.960595  0  0  0.086252  0  1.033664  0  0  0.089555  0  1.029847  0  0  0.111238  0.08378  0  1.036515  0
H  H11  1  0.19624410  0.15693870  0.85744137  1  0  0.081583  0  0.960576  0  0  0.086125  0  1.03372  0  0  0.089426  0  1.029908  0  0  0.111197  0.083658  0  1.036565  0
H  H12  1  0.70962505  0.66710601  0.25385906  1  0  0.099615  0  0.958037  0  0  0.112218  0  1.013271  0  0  0.114521  0  1.013708  0  0  0.105557  0.110533  0  1.013151  0
H  H13  1  0.29037470  0.33289060  0.74614520  1  0  0.099677  0  0.958005  0  0  0.11225  0  1.013255  0  0  0.114552  0  1.013692  0  0  0.105564  0.110566  0  1.013134  0
H  H14  1  0.88863258  0.68850062  0.46288296  1  0  0.105256  0  0.934484  0  0  0.119875  0  0.988096  0  0  0.12301  0  0.985706  0  0  0.114353  0.117496  0  0.989988  0
H  H15  1  0.11137555  0.31150602  0.53712076  1  0  0.10535  0  0.934282  0  0  0.119913  0  0.98796  0  0  0.123092  0  0.985514  0  0  0.114357  0.117523  0  0.989862  0
H  H16  1  0.65239640  0.22792430  0.69722137  1  0  0.081378  0  0.989049  0  0  0.093838  0  1.05151  0  0  0.095722  0  1.051485  0  0  0.102536  0.092482  0  1.05152  0
H  H17  1  0.34760428  0.77206883  0.30277729  1  0  0.081394  0  0.989088  0  0  0.093862  0  1.051513  0  0  0.095749  0  1.051482  0  0  0.102555  0.092498  0  1.051544  0
H  H18  1  0.72133293  0.38548442  0.56941797  1  0  0.121709  0  0.967927  0  0  0.128293  0  1.02903  0  0  0.132324  0  1.027109  0  0  0.106788  0.125393  0  1.030517  0
H  H19  1  0.27867571  0.61451333  0.43058388  1  0  0.121737  0  0.96793  0  0  0.128334  0  1.029007  0  0  0.132364  0  1.027087  0  0  0.106807  0.125435  0  1.030495  0
H  H20  1  0.49992505  0.34269653  0.36307906  1  0  0.086676  0  0.926341  0  0  0.096599  0  0.984275  0  0  0.099844  0  0.980792  0  0  0.118258  0.094174  0  0.986859  0
H  H21  1  0.50007799  0.65731085  0.63692682  1  0  0.086667  0  0.926226  0  0  0.09658  0  0.984186  0  0  0.099826  0  0.9807  0  0  0.118258  0.094155  0  0.986772  0
H  H22  1  0.23779784  0.80926888  0.73136079  1  0  0.305318  0  0.948272  0  0  0.292759  0  1.003312  0  0  0.299226  0  0.999574  0  0  0.293632  0.288175  0  1.005968  0
H  H23  1  0.76219665  0.19073485  0.26863402  1  0  0.30551  0  0.948065  0  0  0.292912  0  1.003195  0  0  0.29938  0  0.999445  0  0  0.293687  0.288328  0  1.005846  0
H  H24  1  0.03477963  0.72475031  0.63105886  1  0  0.315038  0  0.940745  0  0  0.297818  0  1.006449  0  0  0.305353  0  1.000316  0  0  0.286417  0.292422  0  1.010809  0
H  H25  1  0.96521845  0.27525260  0.36893713  1  0  0.315025  0  0.940812  0  0  0.297809  0  1.006501  0  0  0.30534  0  1.000379  0  0  0.286402  0.29241  0  1.010861  0
H  H26  1  0.42937934  0.95670834  0.80453885  1  0  0.318476  0  0.955154  0  0  0.297921  0  1.02346  0  0  0.306359  0  1.016114  0  0  0.292487  0.291928  0  1.0286  0
H  H27  1  0.57061465  0.04329449  0.19545580  1  0  0.318463  0  0.955265  0  0  0.297949  0  1.023501  0  0  0.306385  0  1.016156  0  0  0.292488  0.291957  0  1.028638  0
H  H28  1  0.57539383  0.09724475  0.78362097  1  0  0.299732  0  0.926401  0  0  0.288292  0  0.986254  0  0  0.292784  0  0.984721  0  0  0.296589  0.285094  0  0.987326  0
H  H29  1  0.42459254  0.90275430  0.21637503  1  0  0.299726  0  0.926556  0  0  0.288377  0  0.986289  0  0  0.292869  0  0.984756  0  0  0.296603  0.285175  0  0.987369  0
H  H30  1  0.36778879  0.13362553  0.07289526  1  0  0.42042  0  0.889069  0  0  0.385954  0  0.958825  0  0  0.396988  0  0.942893  0  0  0.288061  0.378186  0  0.97002  0
H  H31  1  0.63221135  0.86637648  0.92710615  1  0  0.420361  0  0.889128  0  0  0.385867  0  0.958933  0  0  0.396903  0  0.943001  0  0  0.288014  0.378099  0  0.97013  0
H  H32  1  0.19821041  0.00629247  0.02201302  1  0  0.422093  0  0.88235  0  0  0.390045  0  0.948619  0  0  0.400747  0  0.933077  0  0  0.288112  0.382523  0  0.959516  0
H  H33  1  0.80179752  0.99370884  0.97798829  1  0  0.422068  0  0.882378  0  0  0.390021  0  0.948652  0  0  0.400722  0  0.93311  0  0  0.288088  0.382498  0  0.959551  0
C  C34  1  0.21196483  0.52319967  0.16436523  1  0  -0.036101  0  3.724215  0  0  -0.015878  0  3.957149  0  0  -0.020604  0  3.978718  0  0  -0.009823  -0.012775  0  3.942566  0
C  C35  1  0.78804251  0.47679807  0.83563471  1  0  -0.036069  0  3.724328  0  0  -0.015824  0  3.957265  0  0  -0.02055  0  3.978835  0  0  -0.009783  -0.012728  0  3.942684  0
C  C36  1  0.36271243  0.55547252  0.09878450  1  0  -0.090666  0  3.746755  0  0  -0.110053  0  3.994423  0  0  -0.112377  0  4.0156  0  0  -0.087519  -0.108433  0  3.980071  0
C  C37  1  0.63729551  0.44452878  0.90121680  1  0  -0.090684  0  3.746853  0  0  -0.110085  0  3.994515  0  0  -0.11241  0  4.015694  0  0  -0.087535  -0.108451  0  3.980175  0
C  C38  1  0.38676577  0.64846563  0.03196313  1  0  -0.072148  0  3.734618  0  0  -0.096765  0  3.985995  0  0  -0.096881  0  4.006009  0  0  -0.083499  -0.096468  0  3.972384  0
C  C39  1  0.61323582  0.35153643  0.96803667  1  0  -0.07213  0  3.73468  0  0  -0.096719  0  3.986039  0  0  -0.096833  0  4.006049  0  0  -0.083471  -0.096415  0  3.972428  0
C  C40  1  0.25608065  0.70897169  0.02763253  1  0  -0.085059  0  3.776241  0  0  -0.06249  0  4.015625  0  0  -0.069948  0  4.037767  0  0  -0.024584  -0.057635  0  4.000658  0
C  C41  1  0.74391570  0.29102580  0.97236528  1  0  -0.085059  0  3.776037  0  0  -0.062532  0  4.015449  0  0  -0.069989  0  4.037592  0  0  -0.024584  -0.057681  0  4.000484  0
C  C42  1  0.10285518  0.67514248  0.09125660  1  0  -0.074804  0  3.740244  0  0  -0.099812  0  3.992644  0  0  -0.099382  0  4.012185  0  0  -0.086949  -0.099916  0  3.979467  0
C  C43  1  0.89714382  0.32485504  0.90874415  1  0  -0.07476  0  3.740199  0  0  -0.099761  0  3.992604  0  0  -0.099327  0  4.012143  0  0  -0.086989  -0.099875  0  3.97943  0
C  C44  1  0.08250696  0.58411821  0.16043044  1  0  -0.083985  0  3.743068  0  0  -0.104222  0  3.993283  0  0  -0.106965  0  4.01501  0  0  -0.086623  -0.10228  0  3.978591  0
C  C45  1  0.91749380  0.41588020  0.83957414  1  0  -0.083978  0  3.743178  0  0  -0.104226  0  3.993384  0  0  -0.106974  0  4.015114  0  0  -0.086655  -0.102282  0  3.978692  0
C  C46  1  0.18445865  0.42085927  0.23512104  1  0  0.636977  0  3.9366  0  0  0.587928  0  4.236001  0  0  0.621474  0  4.228931  0  0  0.197715  0.565186  0  4.239854  0
C  C47  1  0.81555020  0.57913665  0.76488503  1  0  0.636886  0  3.936911  0  0  0.587781  0  4.23637  0  0  0.621329  0  4.229301  0  0  0.197618  0.56505  0  4.240211  0
C  C48  1  0.27146486  0.80500473  0.95178383  1  0  0.665687  0  3.873151  0  0  0.606771  0  4.171069  0  0  0.641488  0  4.161658  0  0  0.213796  0.583208  0  4.176809  0
C  C49  1  0.72853705  0.19499364  0.04822704  1  0  0.665766  0  3.87305  0  0  0.606941  0  4.170875  0  0  0.641656  0  4.161465  0  0  0.213959  0.583387  0  4.176602  0
C  C50  1  0.88215987  0.84853104  0.23374610  1  0  0.13216  0  3.713486  0  0  0.096975  0  3.977666  0  0  0.105879  0  3.991941  0  0  0.040797  0.091113  0  3.967886  0
C  C51  1  0.11783358  0.15146372  0.76625107  1  0  0.132369  0  3.713369  0  0  0.097267  0  3.977492  0  0  0.106171  0  3.991764  0  0  0.040918  0.091401  0  3.967717  0
C  C52  1  0.83081659  0.75088230  0.29690653  1  0  -0.115257  0  3.747255  0  0  -0.125493  0  4.001432  0  0  -0.131393  0  4.022115  0  0  -0.086262  -0.121667  0  3.987446  0
C  C53  1  0.16918201  0.24911436  0.70309143  1  0  -0.115336  0  3.747373  0  0  -0.125537  0  4.001467  0  0  -0.13144  0  4.022165  0  0  -0.086226  -0.12171  0  3.987479  0
C  C54  1  0.93101510  0.76362051  0.41330344  1  0  -0.040589  0  3.672822  0  0  -0.069225  0  3.925249  0  0  -0.066579  0  3.941812  0  0  -0.068452  -0.070745  0  3.913993  0
C  C55  1  0.06898401  0.23637968  0.58669852  1  0  -0.040731  0  3.672706  0  0  -0.069323  0  3.925146  0  0  -0.06671  0  3.941699  0  0  -0.068503  -0.070835  0  3.913891  0
C  C56  1  0.08677308  0.87431332  0.46788319  1  0  -0.04183  0  3.783325  0  0  -0.02783  0  4.021175  0  0  -0.029389  0  4.045221  0  0  -0.006646  -0.026869  0  4.004976  0
C  C57  1  0.91322077  0.12568683  0.53211113  1  0  -0.041732  0  3.783336  0  0  -0.027752  0  4.021199  0  0  -0.029311  0  4.045255  0  0  -0.006631  -0.026794  0  4.005002  0
C  C58  1  0.19224467  0.89544430  0.58940972  1  0  0.124037  0  3.794438  0  0  0.111718  0  4.052911  0  0  0.111612  0  4.079501  0  0  0.069546  0.111644  0  4.034855  0
C  C59  1  0.80775103  0.10455941  0.41058963  1  0  0.123994  0  3.794447  0  0  0.111656  0  4.052939  0  0  0.111549  0  4.079531  0  0  0.069516  0.111585  0  4.034875  0
C  C60  1  0.35161648  0.00357575  0.63733530  1  0  0.187375  0  3.831235  0  0  0.167377  0  4.095995  0  0  0.174322  0  4.11921  0  0  0.093088  0.162601  0  4.080194  0
C  C61  1  0.64837919  0.99642531  0.36266110  1  0  0.187437  0  3.831294  0  0  0.167461  0  4.096021  0  0  0.174408  0  4.119238  0  0  0.093146  0.162686  0  4.080212  0
C  C62  1  0.40488294  0.09649266  0.56420355  1  0  -0.065772  0  3.781103  0  0  -0.048838  0  4.015979  0  0  -0.053398  0  4.040075  0  0  -0.007705  -0.046051  0  3.999973  0
C  C63  1  0.59511561  0.90350851  0.43578965  1  0  -0.065884  0  3.781183  0  0  -0.048894  0  4.015995  0  0  -0.053458  0  4.040095  0  0  -0.007786  -0.046095  0  3.999952  0
C  C64  1  0.56122840  0.20896561  0.60731584  1  0  -0.034581  0  3.70558  0  0  -0.06523  0  3.959748  0  0  -0.062001  0  3.97863  0  0  -0.069752  -0.067155  0  3.947021  0
C  C65  1  0.43876894  0.79103106  0.39267846  1  0  -0.03447  0  3.705382  0  0  -0.065091  0  3.959434  0  0  -0.061858  0  3.978317  0  0  -0.06971  -0.067015  0  3.946706  0
C  C66  1  0.60131721  0.29810623  0.53656134  1  0  -0.119977  0  3.712027  0  0  -0.129293  0  3.964908  0  0  -0.136428  0  3.984464  0  0  -0.086021  -0.124752  0  3.951867  0
C  C67  1  0.39868981  0.70189330  0.46343701  1  0  -0.120173  0  3.712062  0  0  -0.129523  0  3.96496  0  0  -0.136663  0  3.984519  0  0  -0.086069  -0.124985  0  3.951927  0
C  C68  1  0.48038352  0.27500175  0.42202039  1  0  0.150558  0  3.695567  0  0  0.114814  0  3.953868  0  0  0.124878  0  3.967553  0  0  0.051723  0.108162  0  3.944583  0
C  C69  1  0.51961538  0.72500290  0.57798119  1  0  0.150683  0  3.695646  0  0  0.114949  0  3.95394  0  0  0.125013  0  3.967627  0  0  0.051727  0.108296  0  3.944662  0
C  C70  1  0.29367701  0.08015676  0.44576718  1  0  0.131103  0  3.798077  0  0  0.119425  0  4.0454  0  0  0.124837  0  4.066569  0  0  0.109179  0.11587  0  4.031038  0
C  C71  1  0.70632265  0.91984889  0.55422755  1  0  0.13131  0  3.797913  0  0  0.119474  0  4.045392  0  0  0.124886  0  4.066565  0  0  0.109252  0.115917  0  4.03104  0
C  C72  1  0.13302039  0.96707341  0.39554801  1  0  0.115192  0  3.77777  0  0  0.10408  0  4.028118  0  0  0.107715  0  4.049672  0  0  0.101293  0.10162  0  4.013538  0
C  C73  1  0.86697588  0.03292859  0.60444592  1  0  0.115105  0  3.778054  0  0  0.104069  0  4.028388  0  0  0.107703  0  4.049942  0  0  0.10131  0.101602  0  4.013819  0
N  N74  1  0.02890643  0.95300637  0.28219574  1  0  -0.368349  0  3.259837  0  0  -0.299641  0  3.529397  0  0  -0.316858  0  3.545871  0  0  -0.324908  -0.287799  0  3.517905  0
N  N75  1  0.97108657  0.04699204  0.71779388  1  0  -0.368448  0  3.260005  0  0  -0.299767  0  3.529517  0  0  -0.316984  0  3.545991  0  0  -0.325004  -0.287928  0  3.518037  0
N  N76  1  0.33251296  0.16976883  0.37909397  1  0  -0.364876  0  3.275141  0  0  -0.296897  0  3.549096  0  0  -0.314844  0  3.564912  0  0  -0.332254  -0.2847  0  3.538132  0
N  N77  1  0.66749020  0.83023596  0.62090457  1  0  -0.365008  0  3.275226  0  0  -0.297001  0  3.549261  0  0  -0.314949  0  3.565077  0  0  -0.332301  -0.284803  0  3.538301  0
N  N78  1  0.12747122  0.81256139  0.66696640  1  0  -0.674397  0  3.21093  0  0  -0.617189  0  3.445883  0  0  -0.640117  0  3.448937  0  0  -0.609035  -0.600981  0  3.443393  0
N  N79  1  0.87252072  0.18744044  0.33303231  1  0  -0.674648  0  3.210868  0  0  -0.617415  0  3.445815  0  0  -0.640343  0  3.448874  0  0  -0.609144  -0.601206  0  3.443317  0
N  N80  1  0.44768013  0.02524668  0.75514459  1  0  -0.631255  0  3.151146  0  0  -0.597074  0  3.392446  0  0  -0.618905  0  3.396792  0  0  -0.593835  -0.581568  0  3.389016  0
N  N81  1  0.55231094  0.97475603  0.24485413  1  0  -0.631253  0  3.151365  0  0  -0.597207  0  3.392533  0  0  -0.619038  0  3.396883  0  0  -0.593854  -0.5817  0  3.389103  0
O  O82  1  0.24203811  0.33856237  0.19316953  1  0  -0.659245  0  1.982389  0  0  -0.594629  0  2.234455  0  0  -0.624041  0  2.223497  0  0  -0.344736  -0.573645  0  2.24088  0
O  O83  1  0.75797762  0.66143823  0.80683167  1  0  -0.659239  0  1.982716  0  0  -0.594572  0  2.234789  0  0  -0.623974  0  2.223803  0  0  -0.34468  -0.573587  0  2.241206  0
O  O84  1  0.10726491  0.42326711  0.32671585  1  0  -0.630644  0  1.906963  0  0  -0.585412  0  2.121739  0  0  -0.607531  0  2.111533  0  0  -0.335874  -0.569779  0  2.128131  0
O  O85  1  0.89273329  0.57673394  0.67328699  1  0  -0.630595  0  1.906887  0  0  -0.58535  0  2.121697  0  0  -0.607471  0  2.111487  0  0  -0.335832  -0.569722  0  2.128087  0
O  O86  1  0.39459038  0.82356438  0.88173104  1  0  -0.641394  0  2.02815  0  0  -0.573497  0  2.242864  0  0  -0.597697  0  2.23176  0  0  -0.311228  -0.556772  0  2.250159  0
O  O87  1  0.60539422  0.17643188  0.11827150  1  0  -0.641456  0  2.02835  0  0  -0.573625  0  2.243051  0  0  -0.59782  0  2.231942  0  0  -0.311312  -0.556906  0  2.250341  0
O  O88  1  0.15603444  0.86183353  0.95836675  1  0  -0.671185  0  2.053965  0  0  -0.596967  0  2.303529  0  0  -0.623771  0  2.290228  0  0  -0.330241  -0.578286  0  2.312103  0
O  O89  1  0.84397044  0.13816498  0.04163829  1  0  -0.67122  0  2.054009  0  0  -0.597033  0  2.303554  0  0  -0.623839  0  2.290255  0  0  -0.330287  -0.578352  0  2.312116  0
O  O90  1  0.22188831  0.09268491  0.04828233  1  0  -0.823857  0  1.860105  0  0  -0.754437  0  2.056092  0  0  -0.777721  0  2.022319  0  0  -0.586508  -0.738006  0  2.079425  0
O  O91  1  0.77811364  0.90731538  0.95171732  1  0  -0.823757  0  1.860144  0  0  -0.754326  0  2.056117  0  0  -0.777609  0  2.022345  0  0  -0.586428  -0.737892  0  2.079448  0
