# generated using pymatgen
data_H14PbC19S(NO3)2
_symmetry_space_group_name_H-M   'P 1'
_cell_length_a   6.80143611
_cell_length_b   11.25921732
_cell_length_c   12.66906441
_cell_angle_alpha   99.89742669
_cell_angle_beta   97.90617801
_cell_angle_gamma   103.29504080
_symmetry_Int_Tables_number   1
_chemical_formula_structural   H14PbC19S(NO3)2
_chemical_formula_sum   'H28 Pb2 C38 S2 N4 O12'
_cell_volume   914.12439594
_cell_formula_units_Z   2
loop_
 _symmetry_equiv_pos_site_id
 _symmetry_equiv_pos_as_xyz
  1  'x, y, z'
loop_
 _atom_site_type_symbol
 _atom_site_label
 _atom_site_symmetry_multiplicity
 _atom_site_fract_x
 _atom_site_fract_y
 _atom_site_fract_z
 _atom_site_occupancy
 _atom_site_hle17_bader_spin_density
 _atom_site_hle17_ddec_charge
 _atom_site_hle17_ddec_spin_density
 _atom_site_hle17_ddec_sum_bond_order
 _atom_site_hle17_magmom
 _atom_site_hse06_10hf_bader_spin_density
 _atom_site_hse06_10hf_ddec_charge
 _atom_site_hse06_10hf_ddec_spin_density
 _atom_site_hse06_10hf_ddec_sum_bond_order
 _atom_site_hse06_10hf_magmom
 _atom_site_hse06_bader_spin_density
 _atom_site_hse06_ddec_charge
 _atom_site_hse06_ddec_spin_density
 _atom_site_hse06_ddec_sum_bond_order
 _atom_site_hse06_magmom
 _atom_site_pbe_bader_spin_density
 _atom_site_pbe_cm5_charge
 _atom_site_pbe_ddec_charge
 _atom_site_pbe_ddec_spin_density
 _atom_site_pbe_ddec_sum_bond_order
 _atom_site_pbe_magmom
H  H0  1  0.62958243  0.37480881  0.27897501  1  0  0.086638  0  0.948773  0  0  0.097268  0  1.010735  0  0  0.099359  0  1.008486  0  0  0.122918  0.095717  0  1.012378  0
H  H1  1  0.37042911  0.62519093  0.72102521  1  0  0.086717  0  0.94875  0  0  0.097307  0  1.01073  0  0  0.099397  0  1.008481  0  0  0.122911  0.095756  0  1.012372  0
H  H2  1  0.85854986  0.47274834  0.45722788  1  0  0.099126  0  0.961256  0  0  0.11293  0  1.014975  0  0  0.115867  0  1.014294  0  0  0.107042  0.11086  0  1.015587  0
H  H3  1  0.14145572  0.52725138  0.54277584  1  0  0.099137  0  0.961274  0  0  0.112963  0  1.014964  0  0  0.115901  0  1.014283  0  0  0.107055  0.110894  0  1.015574  0
H  H4  1  0.73299670  0.43141030  0.63006452  1  0  0.109122  0  0.937221  0  0  0.121389  0  0.994517  0  0  0.123982  0  0.992824  0  0  0.111827  0.119508  0  0.995705  0
H  H5  1  0.26700035  0.56859030  0.36993632  1  0  0.109111  0  0.937193  0  0  0.121378  0  0.994491  0  0  0.123971  0  0.992798  0  0  0.111824  0.119498  0  0.995679  0
H  H6  1  0.45069902  0.33125661  0.71578834  1  0  0.105791  0  0.961023  0  0  0.117057  0  1.023197  0  0  0.119299  0  1.02256  0  0  0.106742  0.115438  0  1.023696  0
H  H7  1  0.54929655  0.66874399  0.28421240  1  0  0.105802  0  0.960924  0  0  0.117069  0  1.023102  0  0  0.11931  0  1.022465  0  0  0.106746  0.115447  0  1.023603  0
H  H8  1  0.09288377  0.20427226  0.69753249  1  0  0.102179  0  0.973807  0  0  0.114263  0  1.03285  0  0  0.115561  0  1.034499  0  0  0.1028  0.113373  0  1.031648  0
H  H9  1  0.90711839  0.79572277  0.30246474  1  0  0.102105  0  0.973753  0  0  0.114238  0  1.032753  0  0  0.115537  0  1.034401  0  0  0.102778  0.113348  0  1.031551  0
H  H10  1  0.76023282  0.08463827  0.58094482  1  0  0.106259  0  0.943275  0  0  0.118159  0  1.002504  0  0  0.121407  0  0.999766  0  0  0.109089  0.11579  0  1.004571  0
H  H11  1  0.23976424  0.91536233  0.41905366  1  0  0.106291  0  0.943203  0  0  0.118203  0  1.00242  0  0  0.121452  0  0.99968  0  0  0.109098  0.115834  0  1.004485  0
H  H12  1  0.54317326  0.00558445  0.38984819  1  0  0.109941  0  0.959898  0  0  0.120063  0  1.019268  0  0  0.123198  0  1.018208  0  0  0.107428  0.11778  0  1.020327  0
H  H13  1  0.45682678  0.99441616  0.61014972  1  0  0.109992  0  0.959852  0  0  0.120099  0  1.019223  0  0  0.123238  0  1.018155  0  0  0.10744  0.117816  0  1.020285  0
H  H14  1  0.70065196  0.05193888  0.23221819  1  0  0.09345  0  0.93922  0  0  0.100281  0  1.005032  0  0  0.103028  0  1.001797  0  0  0.121392  0.098221  0  1.007367  0
H  H15  1  0.29934619  0.94806079  0.76778023  1  0  0.093421  0  0.93928  0  0  0.100273  0  1.005075  0  0  0.103021  0  1.001838  0  0  0.121383  0.098213  0  1.00741  0
H  H16  1  0.28689776  0.65589369  0.15350903  1  0  0.102945  0  0.977931  0  0  0.10921  0  1.049909  0  0  0.113278  0  1.046206  0  0  0.104492  0.106277  0  1.052478  0
H  H17  1  0.71309813  0.34410411  0.84649131  1  0  0.102911  0  0.977973  0  0  0.10918  0  1.049954  0  0  0.113248  0  1.04625  0  0  0.104482  0.106265  0  1.052507  0
H  H18  1  0.81585270  0.84634131  0.08727992  1  0  0.109628  0  0.95038  0  0  0.121358  0  1.009005  0  0  0.124297  0  1.007354  0  0  0.113661  0.119341  0  1.010083  0
H  H19  1  0.18414507  0.15365743  0.91271833  1  0  0.109644  0  0.95033  0  0  0.121382  0  1.008957  0  0  0.124319  0  1.007304  0  0  0.113676  0.119364  0  1.010038  0
H  H20  1  0.54925667  0.65095221  0.07541749  1  0  0.098275  0  0.959231  0  0  0.108239  0  1.021412  0  0  0.111344  0  1.01955  0  0  0.105979  0.106094  0  1.022853  0
H  H21  1  0.45074149  0.34904746  0.92458172  1  0  0.098289  0  0.95922  0  0  0.108259  0  1.021386  0  0  0.111363  0  1.019526  0  0  0.105994  0.106114  0  1.02283  0
H  H22  1  0.64894185  0.46064769  0.11257675  1  0  0.10169  0  0.95802  0  0  0.110292  0  1.024768  0  0  0.114111  0  1.021208  0  0  0.106734  0.107435  0  1.027574  0
H  H23  1  0.35105481  0.53935198  0.88742393  1  0  0.101692  0  0.958049  0  0  0.110291  0  1.024792  0  0  0.114111  0  1.021229  0  0  0.106753  0.107434  0  1.027597  0
H  H24  1  0.66213686  0.26384414  0.12743802  1  0  0.42787  0  0.881105  0  0  0.394079  0  0.950501  0  0  0.405635  0  0.933523  0  0  0.283854  0.385942  0  0.962446  0
H  H25  1  0.33786316  0.73615648  0.87256384  1  0  0.427891  0  0.881077  0  0  0.394104  0  0.950467  0  0  0.40566  0  0.933489  0  0  0.283867  0.385967  0  0.962411  0
H  H26  1  0.51667604  0.16912516  0.02531557  1  0  0.422768  0  0.877738  0  0  0.393972  0  0.938933  0  0  0.40388  0  0.924443  0  0  0.289637  0.387002  0  0.949101  0
H  H27  1  0.48332360  0.83087453  0.97468612  1  0  0.422747  0  0.877764  0  0  0.393953  0  0.938952  0  0  0.403862  0  0.924462  0  0  0.289623  0.386984  0  0.94912  0
Pb  Pb28  1  0.16002590  0.18961944  0.15654434  1  0  1.298764  0  1.427403  0  0  1.111167  0  1.821434  0  0  1.166838  0  1.782757  0  0  0.639148  1.072763  0  1.847275  0
Pb  Pb29  1  0.83997600  0.81038211  0.84345622  1  0  1.298763  0  1.427391  0  0  1.111169  0  1.821415  0  0  1.166843  0  1.782737  0  0  0.639158  1.072766  0  1.847254  0
C  C30  1  0.57727098  0.35901675  0.35409962  1  0  0.156524  0  3.685929  0  0  0.12294  0  3.940841  0  0  0.132063  0  3.957478  0  0  0.065886  0.117125  0  3.92937  0
C  C31  1  0.42273203  0.64098388  0.64590167  1  0  0.156429  0  3.685851  0  0  0.122912  0  3.940713  0  0  0.132035  0  3.95735  0  0  0.065919  0.117098  0  3.929242  0
C  C32  1  0.70726083  0.41293926  0.45548347  1  0  -0.119808  0  3.751038  0  0  -0.13709  0  4.012281  0  0  -0.143668  0  4.032659  0  0  -0.08468  -0.132851  0  3.998462  0
C  C33  1  0.29274218  0.58706137  0.54451625  1  0  -0.119879  0  3.750952  0  0  -0.137197  0  4.0122  0  0  -0.143777  0  4.032578  0  0  -0.084741  -0.132958  0  3.998382  0
C  C34  1  0.63832158  0.39039838  0.54947177  1  0  -0.04321  0  3.682896  0  0  -0.067609  0  3.932835  0  0  -0.064678  0  3.950391  0  0  -0.060986  -0.069186  0  3.92068  0
C  C35  1  0.36167696  0.60960223  0.45052840  1  0  -0.043106  0  3.68287  0  0  -0.067519  0  3.932796  0  0  -0.064588  0  3.950353  0  0  -0.060978  -0.069099  0  3.920644  0
C  C36  1  0.43704697  0.31547683  0.54164350  1  0  0.021744  0  3.802799  0  0  0.039214  0  4.033406  0  0  0.03633  0  4.058506  0  0  -0.001433  0.040789  0  4.016856  0
C  C37  1  0.56294414  0.68452374  0.45835374  1  0  0.021623  0  3.802812  0  0  0.039162  0  4.033355  0  0  0.036276  0  4.058459  0  0  -0.001391  0.040739  0  4.0168  0
C  C38  1  0.35374480  0.29150543  0.63580058  1  0  -0.103137  0  3.742823  0  0  -0.124512  0  3.991127  0  0  -0.128458  0  4.015568  0  0  -0.084116  -0.121864  0  3.974922  0
C  C39  1  0.64626751  0.70849618  0.36420235  1  0  -0.103047  0  3.742754  0  0  -0.124443  0  3.991074  0  0  -0.128388  0  4.015517  0  0  -0.084104  -0.121792  0  3.974861  0
C  C40  1  0.15605862  0.22281035  0.62576763  1  0  -0.094423  0  3.745206  0  0  -0.114879  0  3.991852  0  0  -0.118328  0  4.01729  0  0  -0.083094  -0.112471  0  3.974654  0
C  C41  1  0.84393907  0.77718466  0.37423084  1  0  -0.094408  0  3.745097  0  0  -0.114911  0  3.991731  0  0  -0.11836  0  4.017169  0  0  -0.08312  -0.112502  0  3.974531  0
C  C42  1  0.02670584  0.17342031  0.52108708  1  0  0.021023  0  3.807392  0  0  0.036558  0  4.040467  0  0  0.033951  0  4.065149  0  0  -0.003906  0.038057  0  4.023878  0
C  C43  1  0.97329968  0.82657567  0.47891212  1  0  0.020987  0  3.807258  0  0  0.036559  0  4.040313  0  0  0.033953  0  4.064994  0  0  -0.003901  0.038058  0  4.023724  0
C  C44  1  0.82055112  0.10331178  0.50823848  1  0  -0.053451  0  3.685603  0  0  -0.078227  0  3.936262  0  0  -0.076333  0  3.954391  0  0  -0.064755  -0.079193  0  3.923923  0
C  C45  1  0.17945259  0.89668700  0.49176417  1  0  -0.053455  0  3.685654  0  0  -0.078273  0  3.936306  0  0  -0.076382  0  3.954439  0  0  -0.064738  -0.079237  0  3.923964  0
C  C46  1  0.70271512  0.05947759  0.40492428  1  0  -0.103937  0  3.715137  0  0  -0.119922  0  3.973177  0  0  -0.126186  0  3.994376  0  0  -0.080579  -0.115898  0  3.959004  0
C  C47  1  0.29728265  0.94052115  0.59507240  1  0  -0.103985  0  3.715084  0  0  -0.119931  0  3.973097  0  0  -0.126191  0  3.994294  0  0  -0.080599  -0.115909  0  3.958926  0
C  C48  1  0.79144752  0.08538974  0.31454360  1  0  0.157295  0  3.662691  0  0  0.124975  0  3.918472  0  0  0.133525  0  3.934603  0  0  0.066175  0.119579  0  3.907133  0
C  C49  1  0.20855024  0.91460900  0.68545623  1  0  0.157266  0  3.662506  0  0  0.124917  0  3.918272  0  0  0.133466  0  3.934401  0  0  0.066199  0.119522  0  3.906936  0
C  C50  1  0.31395699  0.26635507  0.43576740  1  0  0.135549  0  3.736035  0  0  0.126176  0  3.975945  0  0  0.131187  0  3.997575  0  0  0.12374  0.122859  0  3.961399  0
C  C51  1  0.68604272  0.73364834  0.56423328  1  0  0.135585  0  3.736063  0  0  0.126166  0  3.976005  0  0  0.131179  0  3.997634  0  0  0.123747  0.122847  0  3.96146  0
C  C52  1  0.10412800  0.19432951  0.42532788  1  0  0.131061  0  3.754212  0  0  0.124405  0  3.993416  0  0  0.128981  0  4.014751  0  0  0.120729  0.12134  0  3.978985  0
C  C53  1  0.89587352  0.80567112  0.57467173  1  0  0.13105  0  3.754298  0  0  0.124376  0  3.993521  0  0  0.12895  0  4.014854  0  0  0.120716  0.121312  0  3.979091  0
C  C54  1  0.04229749  0.43481352  0.16146881  1  0  0.626472  0  3.950115  0  0  0.577771  0  4.239352  0  0  0.611558  0  4.234081  0  0  0.199422  0.554964  0  4.242026  0
C  C55  1  0.95770066  0.56518616  0.83853198  1  0  0.626505  0  3.950181  0  0  0.577818  0  4.239413  0  0  0.611618  0  4.234146  0  0  0.199468  0.55501  0  4.242089  0
C  C56  1  0.97534781  0.54730344  0.13836180  1  0  -0.060124  0  3.753275  0  0  -0.034365  0  3.987193  0  0  -0.042578  0  4.009871  0  0  -0.019249  -0.029196  0  3.971723  0
C  C57  1  0.02464886  0.45269623  0.86163572  1  0  -0.060116  0  3.753262  0  0  -0.034388  0  3.987217  0  0  -0.042655  0  4.009966  0  0  -0.019265  -0.029219  0  3.971751  0
C  C58  1  0.06837482  0.76198965  0.11934319  1  0  -0.130571  0  3.776641  0  0  -0.101244  0  4.021738  0  0  -0.108668  0  4.043348  0  0  -0.022774  -0.096677  0  4.007531  0
C  C59  1  0.93162333  0.23801003  0.88065602  1  0  -0.130584  0  3.776622  0  0  -0.101235  0  4.021682  0  0  -0.108652  0  4.043278  0  0  -0.02276  -0.096662  0  4.007479  0
C  C60  1  0.12566274  0.65571174  0.13865157  1  0  -0.072634  0  3.729535  0  0  -0.112351  0  3.981033  0  0  -0.109976  0  3.999417  0  0  -0.084379  -0.113226  0  3.96793  0
C  C61  1  0.87433393  0.34428792  0.86134753  1  0  -0.072609  0  3.729529  0  0  -0.112332  0  3.981042  0  0  -0.109939  0  3.999439  0  0  -0.084372  -0.113225  0  3.967926  0
C  C62  1  0.86040815  0.76161163  0.09862309  1  0  -0.091445  0  3.762219  0  0  -0.112158  0  4.004915  0  0  -0.111421  0  4.024557  0  0  -0.080586  -0.11274  0  3.991991  0
C  C63  1  0.13959110  0.23838711  0.90137527  1  0  -0.091459  0  3.762128  0  0  -0.112186  0  4.004832  0  0  -0.111444  0  4.024467  0  0  -0.080614  -0.11277  0  3.99191  0
C  C64  1  0.71068014  0.65197674  0.09436721  1  0  -0.04357  0  3.723243  0  0  -0.057359  0  3.977305  0  0  -0.060045  0  3.996611  0  0  -0.078718  -0.055715  0  3.964531  0
C  C65  1  0.28931801  0.34802293  0.90563121  1  0  -0.043645  0  3.723322  0  0  -0.057442  0  3.977404  0  0  -0.060128  0  3.996707  0  0  -0.078767  -0.055799  0  3.964632  0
C  C66  1  0.76706067  0.54543500  0.11504251  1  0  -0.053335  0  3.680045  0  0  -0.082655  0  3.931294  0  0  -0.080225  0  3.948637  0  0  -0.076661  -0.084245  0  3.919758  0
C  C67  1  0.23293560  0.45456374  0.88495721  1  0  -0.05325  0  3.680027  0  0  -0.082538  0  3.931246  0  0  -0.080091  0  3.948604  0  0  -0.07661  -0.084128  0  3.91971  0
S  S68  1  0.26047389  0.90095182  0.12260316  1  0  1.289397  0  5.674063  0  0  1.193346  0  6.184974  0  0  1.242079  0  6.162173  0  0  0.507367  1.159593  0  6.200169  0
S  S69  1  0.73952723  0.09904787  0.87739706  1  0  1.28939  0  5.674045  0  0  1.193343  0  6.184947  0  0  1.242061  0  6.162168  0  0  0.507367  1.159579  0  6.200159  0
N  N70  1  0.38760504  0.28810835  0.34465610  1  0  -0.345858  0  3.210469  0  0  -0.273634  0  3.459757  0  0  -0.293452  0  3.480679  0  0  -0.285845  -0.260123  0  3.445042  0
N  N71  1  0.61240100  0.71189602  0.65534520  1  0  -0.345829  0  3.210545  0  0  -0.273607  0  3.459814  0  0  -0.293425  0  3.480738  0  0  -0.285852  -0.260098  0  3.445104  0
N  N72  1  0.98551442  0.15003421  0.32463179  1  0  -0.353277  0  3.209271  0  0  -0.286043  0  3.459588  0  0  -0.305005  0  3.480012  0  0  -0.290351  -0.273011  0  3.445223  0
N  N73  1  0.01448037  0.84996451  0.67536545  1  0  -0.353203  0  3.209302  0  0  -0.285971  0  3.459627  0  0  -0.304932  0  3.480053  0  0  -0.290365  -0.272939  0  3.445263  0
O  O74  1  0.90612020  0.34075715  0.17363711  1  0  -0.677688  0  2.019489  0  0  -0.610091  0  2.248771  0  0  -0.639241  0  2.24093  0  0  -0.314124  -0.590161  0  2.253364  0
O  O75  1  0.09387795  0.65924253  0.82636447  1  0  -0.677744  0  2.019467  0  0  -0.610144  0  2.248729  0  0  -0.639292  0  2.240883  0  0  -0.314152  -0.590214  0  2.253323  0
O  O76  1  0.23138435  0.43688511  0.16936865  1  0  -0.635148  0  1.913735  0  0  -0.578328  0  2.142046  0  0  -0.606518  0  2.137356  0  0  -0.311964  -0.558939  0  2.144576  0
O  O77  1  0.76861231  0.56311457  0.83063282  1  0  -0.635143  0  1.913757  0  0  -0.578336  0  2.142074  0  0  -0.606526  0  2.137379  0  0  -0.311981  -0.558947  0  2.144606  0
O  O78  1  0.18736137  0.94829747  0.02704449  1  0  -0.717912  0  1.99415  0  0  -0.654838  0  2.243475  0  0  -0.680729  0  2.233627  0  0  -0.332388  -0.63692  0  2.249868  0
O  O79  1  0.81263976  0.05170222  0.97295652  1  0  -0.717908  0  1.994071  0  0  -0.654848  0  2.243417  0  0  -0.680733  0  2.233572  0  0  -0.332391  -0.636936  0  2.24983  0
O  O80  1  0.26477584  0.98588780  0.22653819  1  0  -0.687512  0  1.930724  0  0  -0.638415  0  2.186204  0  0  -0.661158  0  2.173682  0  0  -0.338995  -0.622526  0  2.193992  0
O  O81  1  0.73522005  0.01411001  0.77346293  1  0  -0.687509  0  1.930794  0  0  -0.638406  0  2.186264  0  0  -0.661151  0  2.173757  0  0  -0.339001  -0.622515  0  2.194057  0
O  O82  1  0.45393189  0.86497719  0.11794796  1  0  -0.653215  0  1.961663  0  0  -0.596034  0  2.200997  0  0  -0.617077  0  2.186573  0  0  -0.329784  -0.581084  0  2.210446  0
O  O83  1  0.54606736  0.13502157  0.88205356  1  0  -0.653232  0  1.961643  0  0  -0.596056  0  2.200984  0  0  -0.617095  0  2.186567  0  0  -0.329791  -0.581092  0  2.21042  0
O  O84  1  0.51943590  0.20969932  0.10127362  1  0  -0.873247  0  1.822147  0  0  -0.815358  0  2.010948  0  0  -0.837019  0  1.979816  0  0  -0.586698  -0.799822  0  2.032302  0
O  O85  1  0.48056413  0.79030130  0.89872824  1  0  -0.873253  0  1.822118  0  0  -0.815356  0  2.010885  0  0  -0.837016  0  1.979751  0  0  -0.586707  -0.79982  0  2.032238  0
