# generated using pymatgen
data_Zn2H30C39BrN3O8
_symmetry_space_group_name_H-M   'P 1'
_cell_length_a   10.89900378
_cell_length_b   12.45892143
_cell_length_c   13.58041352
_cell_angle_alpha   79.85876488
_cell_angle_beta   88.14142322
_cell_angle_gamma   76.49315630
_symmetry_Int_Tables_number   1
_chemical_formula_structural   Zn2H30C39BrN3O8
_chemical_formula_sum   'Zn2 H30 C39 Br1 N3 O8'
_cell_volume   1764.99194760
_cell_formula_units_Z   1
loop_
 _symmetry_equiv_pos_site_id
 _symmetry_equiv_pos_as_xyz
  1  'x, y, z'
loop_
 _atom_site_type_symbol
 _atom_site_label
 _atom_site_symmetry_multiplicity
 _atom_site_fract_x
 _atom_site_fract_y
 _atom_site_fract_z
 _atom_site_occupancy
 _atom_site_pbe_bader_charge
 _atom_site_pbe_bader_spin_density
 _atom_site_pbe_cm5_charge
 _atom_site_pbe_ddec_charge
 _atom_site_pbe_ddec_spin_density
 _atom_site_pbe_ddec_sum_bond_order
 _atom_site_pbe_magmom
Zn  Zn0  1  0.46817476  0.61219904  0.51066686  1  1.284622  0  0.668268  0.813603  0  2.442558  0
Zn  Zn1  1  0.53486655  0.38578076  0.48999631  1  1.283297  0  0.667302  0.82061  0  2.402969  0
H  H2  1  0.14914709  0.31823627  0.52663546  1  0.014922  0  0.083645  0.080746  0  0.998752  0
H  H3  1  0.54962445  0.80517638  0.01739935  1  0.036191  0  0.098857  0.096125  0  0.995235  0
H  H4  1  0.38756040  0.41263550  0.25256726  1  0.095826  0  0.103151  0.116506  0  1.014717  0
H  H5  1  0.31159333  0.72495469  0.65994417  1  0.138801  0  0.128744  0.107974  0  0.975129  0
H  H6  1  0.29782997  0.10855292  0.68668910  1  0.086047  0  0.112987  0.114503  0  0.977927  0
H  H7  1  0.26504516  0.91391385  0.71347027  1  0.088144  0  0.116276  0.123814  0  0.98035  0
H  H8  1  0.55264291  0.81821446  0.43832961  1  0.145318  0  0.129944  0.106361  0  0.994243  0
H  H9  1  0.68088283  0.27804593  0.33926946  1  0.163105  0  0.134077  0.112847  0  0.967024  0
H  H10  1  0.62955940  0.94214033  0.35694870  1  0.085527  0  0.117928  0.117849  0  0.990674  0
H  H11  1  0.72666881  0.09647836  0.27355139  1  0.093677  0  0.119688  0.125705  0  0.972391  0
H  H12  1  0.40527759  0.25094992  0.59807785  1  0.154974  0  0.11607  0.137192  0  1.043999  0
H  H13  1  0.90440239  0.43268264  0.64376932  1  0.041193  0  0.097196  0.098901  0  0.967601  0
H  H14  1  0.09831549  0.58699209  0.34506234  1  0.050646  0  0.093988  0.117144  0  0.987426  0
H  H15  1  0.07149484  0.67524857  0.43618401  1  0.060825  0  0.097228  0.111118  0  0.992272  0
H  H16  1  0.85858843  0.57948689  0.62742979  1  0.071687  0  0.092682  0.092246  0  1.009749  0
H  H17  1  0.07035303  0.59512350  0.61728064  1  0.019851  0  0.087666  0.082889  0  1.010404  0
H  H18  1  0.93308083  0.32812995  0.51672768  1  0.047728  0  0.089776  0.095301  0  0.99487  0
H  H19  1  0.93368860  0.38608483  0.38909509  1  0.05189  0  0.078524  0.083418  0  1.027059  0
H  H20  1  0.14888052  0.37809240  0.39927141  1  0.04517  0  0.089046  0.093668  0  0.982685  0
H  H21  1  0.87226035  0.77039204  0.36077995  1  0.387053  0  0.281847  0.225925  0  0.972113  0
H  H22  1  0.80430014  0.85658894  0.49078058  1  -0.010424  0  0.092551  0.095775  0  1.013854  0
H  H23  1  0.92738194  0.74564776  0.54876103  1  0.014228  0  0.085228  0.08229  0  1.020256  0
H  H24  1  0.11107955  0.44917281  0.65988673  1  0.020821  0  0.091328  0.090315  0  0.973624  0
H  H25  1  0.76611271  0.73467367  0.56117778  1  0.066173  0  0.09592  0.10774  0  1.011932  0
H  H26  1  0.43138279  0.24942662  0.80095779  1  0.075147  0  0.098237  0.101872  0  1.013106  0
H  H27  1  0.35231102  0.28348965  0.14459366  1  0.03633  0  0.097431  0.098126  0  1.00089  0
H  H28  1  0.37578060  0.21987481  0.98239161  1  0.046452  0  0.096632  0.095741  0  1.003107  0
H  H29  1  0.50919595  0.56446426  0.82424704  1  0.094641  0  0.102321  0.107082  0  1.032454  0
H  H30  1  0.52952999  0.75379071  0.20328076  1  0.046572  0  0.100381  0.103283  0  1.00385  0
H  H31  1  0.51755627  0.67663800  0.90780580  1  0.033675  0  0.099225  0.09748  0  1.019626  0
C  C32  1  0.48375991  0.56801684  0.30722184  1  1.545124  0  0.214178  0.598156  0  4.169595  0
C  C33  1  0.47022371  0.55320016  0.02775147  1  -0.040057  0  -0.003356  0.033548  0  3.947975  0
C  C34  1  0.45295989  0.52675731  0.13323934  1  0.008369  0  -0.000872  0.060421  0  3.951487  0
C  C35  1  0.73832684  0.50461855  0.49197309  1  1.571554  0  0.21804  0.592925  0  4.104875  0
C  C36  1  0.45495186  0.47393703  0.96487521  1  -0.032634  0  -0.00459  0.03208  0  3.957815  0
C  C37  1  0.41573878  0.37453934  0.00850254  1  0.035833  0  -0.008621  0.080938  0  4.021773  0
C  C38  1  0.38824105  0.35691104  0.11296431  1  0.003454  0  -0.097722  -0.147333  0  4.038858  0
C  C39  1  0.40729697  0.42881213  0.17297907  1  -0.07545  0  -0.090216  -0.118802  0  3.999453  0
C  C40  1  0.48038454  0.48978607  0.86178901  1  -0.059732  0  -0.085001  -0.139122  0  3.951985  0
C  C41  1  0.43595329  0.31143945  0.84737573  1  -0.043055  0  -0.092849  -0.102022  0  4.023005  0
C  C42  1  0.47879953  0.60003144  0.19546226  1  -0.023628  0  -0.012875  -0.066181  0  3.924828  0
C  C43  1  0.12166898  0.49868070  0.49862295  1  0.03464  0  -0.019157  0.040794  0  3.815859  0
C  C44  1  0.32803819  0.89665874  0.65126339  1  -0.010833  0  -0.079169  -0.178679  0  3.971637  0
C  C45  1  0.64016167  0.20853580  0.37382078  1  0.474831  0  0.07129  0.118769  0  3.903718  0
C  C46  1  0.66493683  0.10690353  0.33753170  1  0.046632  0  -0.077725  -0.131183  0  3.995712  0
C  C47  1  0.49918619  0.43494005  0.69403730  1  1.561693  0  0.211468  0.591608  0  4.172982  0
C  C48  1  0.61013531  0.02184122  0.38388514  1  -0.063429  0  -0.057936  -0.073977  0  3.95775  0
C  C49  1  0.52916811  0.03895656  0.46576350  1  -0.013741  0  0.005809  -0.000786  0  3.966827  0
C  C50  1  0.50657587  0.14523068  0.49688695  1  0.462499  0  0.127958  0.212288  0  3.939448  0
C  C51  1  0.46827491  0.95477397  0.51941731  1  -0.035422  0  0.002553  -0.01385  0  3.96423  0
C  C52  1  0.38526173  0.98062312  0.59966749  1  -0.041807  0  0.009491  0.103482  0  4.02834  0
C  C53  1  0.36286807  0.08950723  0.62594192  1  -0.000479  0  -0.076379  -0.114828  0  3.975347  0
C  C54  1  0.05994621  0.51459688  0.60041806  1  -0.015302  0  -0.160525  -0.177391  0  3.872455  0
C  C55  1  0.42142690  0.16867754  0.57694002  1  -0.029058  0  -0.069604  -0.128589  0  3.925345  0
C  C56  1  0.48800132  0.84606082  0.49675054  1  0.534313  0  0.06935  0.067635  0  3.874153  0
C  C57  1  0.35263134  0.79307285  0.62272835  1  0.446609  0  0.049328  0.088615  0  3.942576  0
C  C58  1  0.26096619  0.50104689  0.50223154  1  1.555526  0  0.220768  0.587867  0  4.099072  0
C  C59  1  0.91065082  0.60667839  0.41422996  1  0.352509  0  0.117057  0.294081  0  3.578573  0
C  C60  1  0.05554245  0.59682901  0.41819465  1  -0.041913  0  -0.164917  -0.285634  0  3.83373  0
C  C61  1  0.91969281  0.51006269  0.59730026  1  -0.073458  0  -0.156622  -0.161744  0  3.827434  0
C  C62  1  0.95976293  0.39579773  0.46373880  1  -0.055212  0  -0.174083  -0.185079  0  3.893715  0
C  C63  1  0.87866801  0.50710774  0.48896982  1  0.033573  0  -0.013536  -0.04425  0  3.72854  0
C  C64  1  0.83516452  0.76492650  0.50966072  1  0.288166  0  -0.151131  -0.212326  0  3.991052  0
C  C65  1  0.10219593  0.38988945  0.47073946  1  -0.017125  0  -0.168795  -0.177688  0  3.894856  0
C  C66  1  0.40624683  0.29526004  0.94775321  1  -0.02439  0  -0.096885  -0.144993  0  4.017705  0
C  C67  1  0.47241974  0.41056142  0.80346573  1  -0.05389  0  -0.024258  -0.035986  0  3.999141  0
C  C68  1  0.51072672  0.69965083  0.15355376  1  0.06701  0  -0.088884  -0.097704  0  4.014105  0
C  C69  1  0.52290634  0.72736773  0.04958292  1  -0.041084  0  -0.099693  -0.09295  0  4.072806  0
C  C70  1  0.50465935  0.65471192  0.98812966  1  -0.032904  0  -0.0936  -0.131965  0  4.006089  0
Br  Br71  1  0.86682461  0.58788834  0.27334040  1  -0.202659  0  -0.054599  -0.200855  0  1.238624  0
N  N72  1  0.43142511  0.76911259  0.54608182  1  -1.236476  0  -0.320676  -0.18973  0  3.543842  0
N  N73  1  0.56425159  0.22703903  0.45108249  1  -1.231515  0  -0.308688  -0.237208  0  3.451685  0
N  N74  1  0.83747339  0.72002835  0.41692533  1  -1.027306  0  -0.488874  -0.375743  0  3.460077  0
O  O75  1  0.44193044  0.64511105  0.35845895  1  -1.162433  0  -0.323084  -0.545031  0  2.288743  0
O  O76  1  0.53360227  0.46600209  0.34235519  1  -1.172925  0  -0.312642  -0.558545  0  2.378133  0
O  O77  1  0.65870245  0.59678237  0.49174426  1  -1.166898  0  -0.309486  -0.534183  0  2.388722  0
O  O78  1  0.71283526  0.40863881  0.49961002  1  -1.160712  0  -0.318624  -0.543362  0  2.333048  0
O  O79  1  0.50572369  0.53475110  0.65793534  1  -1.183036  0  -0.320842  -0.555414  0  2.351893  0
O  O80  1  0.51169498  0.35517273  0.64411183  1  -1.172983  0  -0.319267  -0.552252  0  2.32607  0
O  O81  1  0.28759778  0.58525306  0.53035907  1  -1.169041  0  -0.320917  -0.550389  0  2.311769  0
O  O82  1  0.34062187  0.41907332  0.47602885  1  -1.18186  0  -0.314736  -0.551588  0  2.373243  0
