# generated using pymatgen
data_AgH16(C2N)9
_symmetry_space_group_name_H-M   'P 1'
_cell_length_a   7.58366055
_cell_length_b   8.18963969
_cell_length_c   14.99419094
_cell_angle_alpha   95.93531559
_cell_angle_beta   103.03676992
_cell_angle_gamma   102.55643396
_symmetry_Int_Tables_number   1
_chemical_formula_structural   AgH16(C2N)9
_chemical_formula_sum   'Ag2 H32 C36 N18'
_cell_volume   874.09556392
_cell_formula_units_Z   2
loop_
 _symmetry_equiv_pos_site_id
 _symmetry_equiv_pos_as_xyz
  1  'x, y, z'
loop_
 _atom_site_type_symbol
 _atom_site_label
 _atom_site_symmetry_multiplicity
 _atom_site_fract_x
 _atom_site_fract_y
 _atom_site_fract_z
 _atom_site_occupancy
 _atom_site_hle17_bader_spin_density
 _atom_site_hle17_ddec_charge
 _atom_site_hle17_ddec_spin_density
 _atom_site_hle17_ddec_sum_bond_order
 _atom_site_hle17_magmom
 _atom_site_hse06_10hf_bader_spin_density
 _atom_site_hse06_10hf_ddec_charge
 _atom_site_hse06_10hf_ddec_spin_density
 _atom_site_hse06_10hf_ddec_sum_bond_order
 _atom_site_hse06_10hf_magmom
 _atom_site_hse06_bader_spin_density
 _atom_site_hse06_ddec_charge
 _atom_site_hse06_ddec_spin_density
 _atom_site_hse06_ddec_sum_bond_order
 _atom_site_hse06_magmom
 _atom_site_pbe_bader_spin_density
 _atom_site_pbe_cm5_charge
 _atom_site_pbe_ddec_charge
 _atom_site_pbe_ddec_spin_density
 _atom_site_pbe_ddec_sum_bond_order
 _atom_site_pbe_magmom
Ag  Ag0  1  0.52308426  0.64639708  0.94248042  1  0  0.492423  0  1.547214  0  0  0.353545  0  2.015434  0  0  0.378648  0  1.97398  0  0  0.456838  0.336813  0  2.043491  0
Ag  Ag1  1  0.47691038  0.35360040  0.05752319  1  0  0.492413  0  1.547264  0  0  0.353505  0  2.015488  0  0  0.378583  0  1.974078  0  0  0.456825  0.336772  0  2.04355  0
H  H2  1  0.53955049  0.48051941  0.72327389  1  0  0.084889  0  0.980266  0  0  0.094339  0  1.044217  0  0  0.09454  0  1.046015  0  0  0.127488  0.094079  0  1.043123  0
H  H3  1  0.46045668  0.51947932  0.27673060  1  0  0.084907  0  0.98026  0  0  0.094382  0  1.044168  0  0  0.094584  0  1.045964  0  0  0.127506  0.094121  0  1.043074  0
H  H4  1  0.10293660  0.35419316  0.85523230  1  0  0.116402  0  0.979029  0  0  0.118658  0  1.054947  0  0  0.121646  0  1.051264  0  0  0.134247  0.116428  0  1.057525  0
H  H5  1  0.89706222  0.64580441  0.14476514  1  0  0.116406  0  0.978988  0  0  0.118601  0  1.054979  0  0  0.12159  0  1.051274  0  0  0.134236  0.116372  0  1.05755  0
H  H6  1  0.02142882  0.01265937  0.66123630  1  0  0.094584  0  0.920984  0  0  0.107265  0  0.988874  0  0  0.107942  0  0.988781  0  0  0.11599  0.106814  0  0.988889  0
H  H7  1  0.97858123  0.98733947  0.33875986  1  0  0.094555  0  0.920967  0  0  0.107203  0  0.988924  0  0  0.107882  0  0.988835  0  0  0.115937  0.106755  0  0.988926  0
H  H8  1  0.90769565  0.09828417  0.73956616  1  0  0.098149  0  0.940348  0  0  0.112348  0  1.00584  0  0  0.112758  0  1.006323  0  0  0.116678  0.112031  0  1.00549  0
H  H9  1  0.09230493  0.90170966  0.26042593  1  0  0.098206  0  0.940354  0  0  0.112453  0  1.005803  0  0  0.112866  0  1.006287  0  0  0.116716  0.112131  0  1.005456  0
H  H10  1  0.01401601  0.16864077  0.50846464  1  0  0.092094  0  0.963726  0  0  0.101036  0  1.030896  0  0  0.103979  0  1.029292  0  0  0.098012  0.09894  0  1.032075  0
H  H11  1  0.98598534  0.83136068  0.49152732  1  0  0.092098  0  0.963704  0  0  0.101048  0  1.03087  0  0  0.103992  0  1.029258  0  0  0.098015  0.098946  0  1.032065  0
H  H12  1  0.78049463  0.22321163  0.37811774  1  0  0.086758  0  0.968951  0  0  0.094877  0  1.037377  0  0  0.097934  0  1.035507  0  0  0.096174  0.092701  0  1.03873  0
H  H13  1  0.21950265  0.77679486  0.62187670  1  0  0.086697  0  0.969084  0  0  0.094835  0  1.037471  0  0  0.097887  0  1.035607  0  0  0.09619  0.092661  0  1.038826  0
H  H14  1  0.40110978  0.22816443  0.55416682  1  0  0.087606  0  0.999128  0  0  0.090565  0  1.076258  0  0  0.09414  0  1.073808  0  0  0.095189  0.088025  0  1.077972  0
H  H15  1  0.59889346  0.77183944  0.44583351  1  0  0.087593  0  0.999195  0  0  0.090548  0  1.076297  0  0  0.094118  0  1.073859  0  0  0.095172  0.088008  0  1.078014  0
H  H16  1  0.63690349  0.17972237  0.68323991  1  0  0.090668  0  0.969082  0  0  0.098055  0  1.038596  0  0  0.100663  0  1.037583  0  0  0.096542  0.096172  0  1.03942  0
H  H17  1  0.36310580  0.82027391  0.31675868  1  0  0.090603  0  0.969086  0  0  0.09799  0  1.038621  0  0  0.100596  0  1.03761  0  0  0.096504  0.096105  0  1.039442  0
H  H18  1  0.51867069  0.11115332  0.27315184  1  0  0.096515  0  0.975345  0  0  0.104956  0  1.041823  0  0  0.108037  0  1.040109  0  0  0.101109  0.102753  0  1.043105  0
H  H19  1  0.48132609  0.88884676  0.72684751  1  0  0.096524  0  0.97538  0  0  0.104971  0  1.041848  0  0  0.108052  0  1.040135  0  0  0.10111  0.102769  0  1.043131  0
H  H20  1  0.26820877  0.13183691  0.14252948  1  0  0.077446  0  0.993604  0  0  0.087492  0  1.065598  0  0  0.090338  0  1.062558  0  0  0.089907  0.085259  0  1.068093  0
H  H21  1  0.73178800  0.86816316  0.85747052  1  0  0.077453  0  0.993564  0  0  0.087474  0  1.065582  0  0  0.090342  0  1.062517  0  0  0.089908  0.085242  0  1.068078  0
H  H22  1  0.04622962  0.41810298  0.32794289  1  0  0.098461  0  0.943102  0  0  0.110321  0  1.000168  0  0  0.113137  0  0.99944  0  0  0.102552  0.108352  0  1.000689  0
H  H23  1  0.95377292  0.58189835  0.67205720  1  0  0.098499  0  0.943075  0  0  0.110394  0  1.000098  0  0  0.113204  0  0.999388  0  0  0.102577  0.108427  0  1.000617  0
H  H24  1  0.29610563  0.39586675  0.45991553  1  0  0.099325  0  0.952805  0  0  0.110981  0  1.011503  0  0  0.113698  0  1.010864  0  0  0.103691  0.109022  0  1.012091  0
H  H25  1  0.70390205  0.60413839  0.54008407  1  0  0.099261  0  0.952851  0  0  0.110935  0  1.011544  0  0  0.113651  0  1.010906  0  0  0.103698  0.108987  0  1.012115  0
H  H26  1  0.91543542  0.38420974  0.16260437  1  0  0.087939  0  0.959854  0  0  0.096737  0  1.035835  0  0  0.097987  0  1.03454  0  0  0.112142  0.095787  0  1.036751  0
H  H27  1  0.08455995  0.61579030  0.83739814  1  0  0.087934  0  0.959871  0  0  0.09677  0  1.035846  0  0  0.098023  0  1.03455  0  0  0.112141  0.095821  0  1.036763  0
H  H28  1  0.03697043  0.31351249  0.08410593  1  0  0.10027  0  0.935179  0  0  0.110882  0  1.004675  0  0  0.11141  0  1.005122  0  0  0.117447  0.110384  0  1.004441  0
H  H29  1  0.96302094  0.68648760  0.91589277  1  0  0.100275  0  0.935198  0  0  0.110857  0  1.004752  0  0  0.111403  0  1.005182  0  0  0.117428  0.110359  0  1.004517  0
H  H30  1  0.84413270  0.05055276  0.97509023  1  0  0.100094  0  0.967594  0  0  0.105595  0  1.040876  0  0  0.108314  0  1.037555  0  0  0.13429  0.103651  0  1.043069  0
H  H31  1  0.15585650  0.94944472  0.02491407  1  0  0.100129  0  0.967618  0  0  0.105597  0  1.040921  0  0  0.108326  0  1.037587  0  0  0.134302  0.103652  0  1.043109  0
H  H32  1  0.51664829  0.84128103  0.14787226  1  0  0.093908  0  0.961336  0  0  0.101363  0  1.025601  0  0  0.102834  0  1.024875  0  0  0.133058  0.100215  0  1.026205  0
H  H33  1  0.48334696  0.15871893  0.85213557  1  0  0.093884  0  0.961259  0  0  0.101354  0  1.025512  0  0  0.102827  0  1.024783  0  0  0.133043  0.100207  0  1.026117  0
C  C34  1  0.40829994  0.42200210  0.73746168  1  0  0.188498  0  3.716458  0  0  0.138039  0  3.99609  0  0  0.148931  0  4.011623  0  0  0.140675  0.13097  0  3.985315  0
C  C35  1  0.59170592  0.57799666  0.26254066  1  0  0.188588  0  3.716221  0  0  0.138132  0  3.995838  0  0  0.149023  0  4.011367  0  0  0.140687  0.13106  0  3.98507  0
C  C36  1  0.19001693  0.36173230  0.80632358  1  0  0.143284  0  3.648714  0  0  0.070873  0  3.908527  0  0  0.084508  0  3.92026  0  0  0.151883  0.06236  0  3.900221  0
C  C37  1  0.80998387  0.63826271  0.19367527  1  0  0.143526  0  3.648465  0  0  0.071151  0  3.908358  0  0  0.084797  0  3.920086  0  0  0.152033  0.062629  0  3.90006  0
C  C38  1  0.97457392  0.12440889  0.68328298  1  0  -0.059565  0  3.65003  0  0  -0.139881  0  3.897633  0  0  -0.135738  0  3.908534  0  0  -0.044743  -0.142377  0  3.890069  0
C  C39  1  0.02542937  0.87558997  0.31671239  1  0  -0.059597  0  3.649918  0  0  -0.139927  0  3.897562  0  0  -0.135804  0  3.908491  0  0  -0.044747  -0.142428  0  3.890003  0
C  C40  1  0.83995586  0.16838015  0.60436889  1  0  0.06891  0  3.745425  0  0  0.086863  0  3.988739  0  0  0.085781  0  4.013297  0  0  -0.015941  0.087714  0  3.971897  0
C  C41  1  0.16004541  0.83161620  0.39562409  1  0  0.068811  0  3.745189  0  0  0.086759  0  3.988539  0  0  0.08568  0  4.013098  0  0  -0.015962  0.087611  0  3.971694  0
C  C42  1  0.87928744  0.18254719  0.51808730  1  0  -0.117502  0  3.755086  0  0  -0.138173  0  4.003877  0  0  -0.140089  0  4.024644  0  0  -0.096078  -0.136769  0  3.989633  0
C  C43  1  0.12071523  0.81745423  0.48190615  1  0  -0.117508  0  3.755043  0  0  -0.138184  0  4.003841  0  0  -0.140099  0  4.024603  0  0  -0.096102  -0.136782  0  3.9896  0
C  C44  1  0.74746854  0.21346728  0.44485991  1  0  -0.105042  0  3.735385  0  0  -0.121763  0  3.977844  0  0  -0.124485  0  3.99916  0  0  -0.090894  -0.119793  0  3.963272  0
C  C45  1  0.25253104  0.78653286  0.55513510  1  0  -0.104978  0  3.73535  0  0  -0.1217  0  3.977758  0  0  -0.124418  0  3.999075  0  0  -0.090878  -0.119734  0  3.963196  0
C  C46  1  0.57217631  0.22968453  0.45583047  1  0  0.043678  0  3.788812  0  0  0.059794  0  4.014863  0  0  0.058994  0  4.039842  0  0  -0.010348  0.060319  0  3.997901  0
C  C47  1  0.42782489  0.77031682  0.54416880  1  0  0.043735  0  3.788883  0  0  0.059834  0  4.014905  0  0  0.05903  0  4.03988  0  0  -0.010349  0.060353  0  3.997949  0
C  C48  1  0.53584798  0.21904155  0.54300849  1  0  -0.100316  0  3.739147  0  0  -0.119724  0  3.986595  0  0  -0.122709  0  4.008653  0  0  -0.09033  -0.117563  0  3.971605  0
C  C49  1  0.46415730  0.78095980  0.45699059  1  0  -0.100384  0  3.739241  0  0  -0.119728  0  3.986602  0  0  -0.122709  0  4.008655  0  0  -0.090338  -0.117566  0  3.971607  0
C  C50  1  0.66831282  0.18978632  0.61622525  1  0  -0.108655  0  3.752082  0  0  -0.127009  0  3.998428  0  0  -0.129961  0  4.021566  0  0  -0.091173  -0.124979  0  3.982732  0
C  C51  1  0.33169349  0.81021378  0.38377188  1  0  -0.108499  0  3.751779  0  0  -0.126883  0  3.998143  0  0  -0.129835  0  4.021282  0  0  -0.091095  -0.124849  0  3.982434  0
C  C52  1  0.42537271  0.24911030  0.37712747  1  0  0.051792  0  3.777234  0  0  0.068112  0  4.003155  0  0  0.068822  0  4.026663  0  0  -0.004575  0.067614  0  3.987231  0
C  C53  1  0.57462960  0.75089488  0.62286949  1  0  0.051767  0  3.777246  0  0  0.068109  0  4.00315  0  0  0.068823  0  4.026654  0  0  -0.004572  0.067614  0  3.98723  0
C  C54  1  0.41519164  0.17780323  0.28613648  1  0  -0.105139  0  3.738811  0  0  -0.123931  0  3.984156  0  0  -0.12677  0  4.004725  0  0  -0.08866  -0.121973  0  3.97028  0
C  C55  1  0.58480891  0.82220065  0.71386287  1  0  -0.105239  0  3.738913  0  0  -0.124044  0  3.984238  0  0  -0.126885  0  4.004816  0  0  -0.0887  -0.122086  0  3.970367  0
C  C56  1  0.27350590  0.19031229  0.21204488  1  0  -0.126776  0  3.787225  0  0  -0.146503  0  4.041039  0  0  -0.148118  0  4.060325  0  0  -0.099288  -0.145349  0  4.028128  0
C  C57  1  0.72649190  0.80968653  0.78795384  1  0  -0.126719  0  3.787221  0  0  -0.146398  0  4.041021  0  0  -0.148029  0  4.060297  0  0  -0.099257  -0.145244  0  4.028114  0
C  C58  1  0.13797516  0.27543990  0.22561038  1  0  0.06144  0  3.765246  0  0  0.079547  0  4.007723  0  0  0.078432  0  4.031829  0  0  -0.017921  0.080384  0  3.991156  0
C  C59  1  0.86202195  0.72456142  0.77439040  1  0  0.061419  0  3.765137  0  0  0.079515  0  4.007682  0  0  0.078403  0  4.031794  0  0  -0.017949  0.08035  0  3.991121  0
C  C60  1  0.14828701  0.34842670  0.31590524  1  0  -0.109356  0  3.745029  0  0  -0.129409  0  3.995311  0  0  -0.131022  0  4.015083  0  0  -0.089576  -0.128248  0  3.981825  0
C  C61  1  0.85171251  0.65157340  0.68409242  1  0  -0.109476  0  3.745013  0  0  -0.129547  0  3.99533  0  0  -0.131164  0  4.015096  0  0  -0.089595  -0.128387  0  3.981852  0
C  C62  1  0.28945738  0.33520532  0.39059885  1  0  -0.106326  0  3.723349  0  0  -0.124468  0  3.967787  0  0  -0.126433  0  3.987458  0  0  -0.087165  -0.123109  0  3.954487  0
C  C63  1  0.71054416  0.66479729  0.60940121  1  0  -0.106122  0  3.72341  0  0  -0.124299  0  3.967872  0  0  -0.126261  0  3.98754  0  0  -0.087127  -0.122943  0  3.954563  0
C  C64  1  0.98401920  0.28561788  0.14475845  1  0  -0.058726  0  3.644612  0  0  -0.134413  0  3.886226  0  0  -0.130499  0  3.897026  0  0  -0.046792  -0.136574  0  3.878644  0
C  C65  1  0.01597484  0.71438217  0.85524257  1  0  -0.058654  0  3.64446  0  0  -0.134425  0  3.886216  0  0  -0.130521  0  3.897003  0  0  -0.046719  -0.136583  0  3.878636  0
C  C66  1  0.78751344  0.02132546  0.03367625  1  0  0.150007  0  3.650095  0  0  0.077967  0  3.910085  0  0  0.091154  0  3.922946  0  0  0.153818  0.069717  0  3.901057  0
C  C67  1  0.21247442  0.97867203  0.96632722  1  0  0.149924  0  3.650004  0  0  0.077885  0  3.910004  0  0  0.091073  0  3.922849  0  0  0.153793  0.069639  0  3.900969  0
C  C68  1  0.62308427  0.92149502  0.12291880  1  0  0.190242  0  3.707914  0  0  0.137628  0  3.997739  0  0  0.148758  0  4.011364  0  0  0.138373  0.130481  0  3.988109  0
C  C69  1  0.37690148  0.07849990  0.87708694  1  0  0.19029  0  3.707829  0  0  0.137606  0  3.997726  0  0  0.148748  0  4.011317  0  0  0.13826  0.130461  0  3.988103  0
N  N70  1  0.35813825  0.46739835  0.81673822  1  0  -0.384948  0  3.287372  0  0  -0.305102  0  3.594587  0  0  -0.326882  0  3.606889  0  0  -0.366977  -0.290415  0  3.585672  0
N  N71  1  0.64186283  0.53259787  0.18326407  1  0  -0.38512  0  3.287272  0  0  -0.305263  0  3.594464  0  0  -0.327046  0  3.606768  0  0  -0.366997  -0.29058  0  3.585556  0
N  N72  1  0.28044471  0.29614009  0.67905861  1  0  -0.269777  0  2.870017  0  0  -0.26115  0  3.132028  0  0  -0.269484  0  3.146005  0  0  -0.218023  -0.255223  0  3.12255  0
N  N73  1  0.71956421  0.70385994  0.32094349  1  0  -0.269897  0  2.869953  0  0  -0.26126  0  3.131982  0  0  -0.269594  0  3.145958  0  0  -0.218088  -0.255343  0  3.122507  0
N  N74  1  0.14316049  0.26040518  0.72389181  1  0  0.048698  0  3.577991  0  0  0.167858  0  3.764122  0  0  0.156464  0  3.789932  0  0  -0.132333  0.174108  0  3.748819  0
N  N75  1  0.85684274  0.73959364  0.27610622  1  0  0.04863  0  3.578073  0  0  0.167756  0  3.764308  0  0  0.156366  0  3.790119  0  0  -0.132428  0.174029  0  3.74896  0
N  N76  1  0.83886506  0.12634359  0.11513008  1  0  0.049969  0  3.565663  0  0  0.169031  0  3.754264  0  0  0.158196  0  3.778627  0  0  -0.130913  0.174485  0  3.74066  0
N  N77  1  0.16112893  0.87365643  0.88487360  1  0  0.049996  0  3.565843  0  0  0.169115  0  3.754411  0  0  0.158238  0  3.778854  0  0  -0.130976  0.174568  0  3.740807  0
N  N78  1  0.73528393  0.06482810  0.17303425  1  0  -0.271537  0  2.856518  0  0  -0.267992  0  3.131415  0  0  -0.27511  0  3.143012  0  0  -0.21927  -0.262825  0  3.12357  0
N  N79  1  0.26471405  0.93517188  0.82697257  1  0  -0.271599  0  2.856699  0  0  -0.268045  0  3.131599  0  0  -0.275153  0  3.143194  0  0  -0.21923  -0.262876  0  3.123756  0
N  N80  1  0.65074962  0.88844827  0.03633485  1  0  -0.377486  0  3.278277  0  0  -0.300866  0  3.594033  0  0  -0.321853  0  3.606023  0  0  -0.365232  -0.286705  0  3.585292  0
N  N81  1  0.34924191  0.11154792  0.96367097  1  0  -0.377428  0  3.277947  0  0  -0.300709  0  3.593592  0  0  -0.321695  0  3.605583  0  0  -0.365092  -0.286549  0  3.584849  0
N  N82  1  0.75323395  0.47380917  0.98204182  1  0  -0.558285  0  2.650107  0  0  -0.526766  0  2.955127  0  0  -0.54411  0  2.959419  0  0  -0.303523  -0.514875  0  2.952182  0
N  N83  1  0.24676239  0.52618958  0.01796206  1  0  -0.558279  0  2.650071  0  0  -0.52673  0  2.955054  0  0  -0.544082  0  2.959369  0  0  -0.303431  -0.514843  0  2.952113  0
N  N84  1  0.78276485  0.37247130  0.92766917  1  0  0.380298  0  4.286144  0  0  0.41847  0  4.562541  0  0  0.433229  0  4.594222  0  0  0.055626  0.408686  0  4.540942  0
N  N85  1  0.21723593  0.62753376  0.07233628  1  0  0.380309  0  4.286028  0  0  0.41848  0  4.562427  0  0  0.433235  0  4.594109  0  0  0.055585  0.408696  0  4.540832  0
N  N86  1  0.81269703  0.27085232  0.87461245  1  0  -0.51492  0  2.420066  0  0  -0.506076  0  2.657704  0  0  -0.518035  0  2.668068  0  0  -0.261989  -0.497513  0  2.650582  0
N  N87  1  0.18731191  0.72915275  0.12539196  1  0  -0.514927  0  2.42004  0  0  -0.506084  0  2.657683  0  0  -0.518024  0  2.668025  0  0  -0.262022  -0.497525  0  2.65056  0
