# generated using pymatgen
data_FeHg2H20C30(S3N5)2
_symmetry_space_group_name_H-M   'P 1'
_cell_length_a   8.53037227
_cell_length_b   8.81805417
_cell_length_c   13.31234286
_cell_angle_alpha   75.23709881
_cell_angle_beta   72.38464008
_cell_angle_gamma   89.00574348
_symmetry_Int_Tables_number   1
_chemical_formula_structural   FeHg2H20C30(S3N5)2
_chemical_formula_sum   'Fe1 Hg2 H20 C30 S6 N10'
_cell_volume   920.96783382
_cell_formula_units_Z   1
loop_
 _symmetry_equiv_pos_site_id
 _symmetry_equiv_pos_as_xyz
  1  'x, y, z'
loop_
 _atom_site_type_symbol
 _atom_site_label
 _atom_site_symmetry_multiplicity
 _atom_site_fract_x
 _atom_site_fract_y
 _atom_site_fract_z
 _atom_site_occupancy
 _atom_site_hle17_bader_spin_density
 _atom_site_hle17_ddec_charge
 _atom_site_hle17_ddec_spin_density
 _atom_site_hle17_ddec_sum_bond_order
 _atom_site_hle17_magmom
 _atom_site_hse06_10hf_bader_spin_density
 _atom_site_hse06_10hf_ddec_charge
 _atom_site_hse06_10hf_ddec_spin_density
 _atom_site_hse06_10hf_ddec_sum_bond_order
 _atom_site_hse06_10hf_magmom
 _atom_site_hse06_bader_spin_density
 _atom_site_hse06_ddec_charge
 _atom_site_hse06_ddec_spin_density
 _atom_site_hse06_ddec_sum_bond_order
 _atom_site_hse06_magmom
 _atom_site_pbe_bader_spin_density
 _atom_site_pbe_cm5_charge
 _atom_site_pbe_ddec_charge
 _atom_site_pbe_ddec_spin_density
 _atom_site_pbe_ddec_sum_bond_order
 _atom_site_pbe_magmom
Fe  Fe0  1  0.50000036  0.99999982  0.49999966  1  0  0.651945  0  3.464358  0  0  0.650267  0  3.934496  0  0  0.671173  0  3.892955  0  0  0.925503  0.643423  0  3.952906  0
Hg  Hg1  1  0.97546795  0.57553761  0.61544539  1  0  0.493202  0  2.25397  0  0  0.361513  0  2.740167  0  0  0.397928  0  2.719845  0  0  0.448194  0.336568  0  2.753593  0
Hg  Hg2  1  0.02453104  0.42446108  0.38455414  1  0  0.49327  0  2.253918  0  0  0.361592  0  2.740104  0  0  0.398003  0  2.719787  0  0  0.448213  0.336645  0  2.75353  0
H  H3  1  0.60301665  0.80157475  0.34701861  1  0  0.079149  0  0.97812  0  0  0.083797  0  1.049674  0  0  0.08521  0  1.048183  0  0  0.10838  0.082695  0  1.050902  0
H  H4  1  0.39697735  0.19842276  0.65298130  1  0  0.079151  0  0.978105  0  0  0.083778  0  1.049687  0  0  0.085189  0  1.048201  0  0  0.108381  0.082678  0  1.050914  0
H  H5  1  0.60058576  0.81035277  0.16185093  1  0  0.104746  0  0.950641  0  0  0.117576  0  1.005082  0  0  0.119911  0  1.004832  0  0  0.10563  0.115917  0  1.00546  0
H  H6  1  0.39940586  0.18964591  0.83814923  1  0  0.104757  0  0.950625  0  0  0.117587  0  1.005067  0  0  0.119919  0  1.004817  0  0  0.105636  0.115915  0  1.005461  0
H  H7  1  0.43537320  0.28191529  0.13565879  1  0  0.117384  0  0.949398  0  0  0.125626  0  1.011219  0  0  0.127657  0  1.011646  0  0  0.108385  0.124277  0  1.010946  0
H  H8  1  0.56462716  0.71808575  0.86434084  1  0  0.117403  0  0.949352  0  0  0.125639  0  1.011176  0  0  0.12767  0  1.011601  0  0  0.108381  0.12429  0  1.010903  0
H  H9  1  0.44177233  0.25268312  0.32413793  1  0  0.071225  0  0.990218  0  0  0.073559  0  1.066457  0  0  0.074711  0  1.065501  0  0  0.105922  0.072733  0  1.067178  0
H  H10  1  0.55822934  0.74731910  0.67586127  1  0  0.071231  0  0.990199  0  0  0.073563  0  1.066442  0  0  0.074714  0  1.065487  0  0  0.10593  0.072733  0  1.067168  0
H  H11  1  0.45581677  0.17313844  0.98717881  1  0  0.095856  0  0.952254  0  0  0.108581  0  1.010344  0  0  0.111152  0  1.009275  0  0  0.10303  0.1067  0  1.011305  0
H  H12  1  0.54418091  0.82685907  0.01282117  1  0  0.095842  0  0.952253  0  0  0.10857  0  1.010341  0  0  0.111137  0  1.009271  0  0  0.103026  0.106682  0  1.011298  0
H  H13  1  0.14467796  0.53939168  0.81084706  1  0  0.070424  0  0.934199  0  0  0.079503  0  0.996487  0  0  0.081852  0  0.994487  0  0  0.109503  0.077801  0  0.997916  0
H  H14  1  0.85532495  0.46060940  0.18914684  1  0  0.070465  0  0.934156  0  0  0.079513  0  0.996466  0  0  0.081862  0  0.994465  0  0  0.109486  0.077812  0  0.997892  0
H  H15  1  0.17004994  0.66769774  0.95310409  1  0  0.121121  0  0.98432  0  0  0.126929  0  1.051804  0  0  0.130633  0  1.049972  0  0  0.105056  0.124319  0  1.053171  0
H  H16  1  0.82995147  0.33229979  0.04689293  1  0  0.121107  0  0.984342  0  0  0.126884  0  1.051871  0  0  0.130586  0  1.050043  0  0  0.105029  0.124274  0  1.053237  0
H  H17  1  0.88577901  0.03883466  0.82606690  1  0  0.106461  0  0.950856  0  0  0.118246  0  1.009049  0  0  0.121041  0  1.00876  0  0  0.106251  0.116288  0  1.009343  0
H  H18  1  0.11422255  0.96116638  0.17393402  1  0  0.106463  0  0.950842  0  0  0.118246  0  1.009031  0  0  0.121041  0  1.008743  0  0  0.10625  0.116286  0  1.009323  0
H  H19  1  0.87259596  0.89509816  0.69209223  1  0  0.069419  0  0.969661  0  0  0.076823  0  1.039268  0  0  0.078674  0  1.038014  0  0  0.10257  0.075377  0  1.040368  0
H  H20  1  0.12740584  0.10490640  0.30790730  1  0  0.069429  0  0.969645  0  0  0.076828  0  1.039267  0  0  0.078681  0  1.038008  0  0  0.102567  0.075383  0  1.040365  0
H  H21  1  0.12144269  0.88047703  0.03407427  1  0  0.095648  0  0.954262  0  0  0.108161  0  1.014513  0  0  0.110377  0  1.014259  0  0  0.104916  0.10658  0  1.014774  0
H  H22  1  0.87856073  0.11951461  0.96592711  1  0  0.095652  0  0.954312  0  0  0.108156  0  1.014566  0  0  0.110371  0  1.014313  0  0  0.104924  0.106575  0  1.014827  0
C  C23  1  0.84301359  0.87253214  0.46227839  1  0  0.249488  0  3.921473  0  0  0.23743  0  4.23347  0  0  0.255858  0  4.24703  0  0  0.147271  0.225085  0  4.224095  0
C  C24  1  0.15698532  0.12746538  0.53772136  1  0  0.249423  0  3.921486  0  0  0.237363  0  4.233495  0  0  0.255792  0  4.247051  0  0  0.14723  0.22502  0  4.224113  0
C  C25  1  0.35318268  0.66400894  0.55446116  1  0  0.255706  0  3.901242  0  0  0.240714  0  4.214472  0  0  0.259346  0  4.226876  0  0  0.149966  0.228222  0  4.206053  0
C  C26  1  0.64681884  0.33599093  0.44553770  1  0  0.255734  0  3.901225  0  0  0.240747  0  4.214445  0  0  0.259379  0  4.226848  0  0  0.149973  0.228253  0  4.206024  0
C  C27  1  0.69410191  0.42616760  0.83215213  1  0  0.221883  0  3.953196  0  0  0.214948  0  4.260106  0  0  0.230731  0  4.274708  0  0  0.122492  0.204157  0  4.250244  0
C  C28  1  0.30589753  0.57384159  0.16785834  1  0  0.221914  0  3.952916  0  0  0.214988  0  4.259831  0  0  0.230772  0  4.27443  0  0  0.122573  0.204194  0  4.249968  0
C  C29  1  0.56518680  0.90547081  0.29796314  1  0  0.116992  0  3.685732  0  0  0.085875  0  3.94291  0  0  0.095223  0  3.958613  0  0  0.03984  0.079643  0  3.932651  0
C  C30  1  0.43481094  0.09452787  0.70203738  1  0  0.116965  0  3.685802  0  0  0.085872  0  3.942975  0  0  0.095221  0  3.958678  0  0  0.039838  0.079639  0  3.932715  0
C  C31  1  0.56264411  0.91177174  0.19373336  1  0  -0.161289  0  3.720761  0  0  -0.179713  0  3.969487  0  0  -0.187556  0  3.989913  0  0  -0.085835  -0.174758  0  3.955741  0
C  C32  1  0.43735250  0.08822812  0.80626567  1  0  -0.161272  0  3.720721  0  0  -0.179686  0  3.969452  0  0  -0.187525  0  3.989877  0  0  -0.085815  -0.174723  0  3.955718  0
C  C33  1  0.50932250  0.04560981  0.13197061  1  0  0.13073  0  3.805877  0  0  0.143653  0  4.041481  0  0  0.150205  0  4.061626  0  0  0.002059  0.139685  0  4.027551  0
C  C34  1  0.49067647  0.95438888  0.86802968  1  0  0.130753  0  3.805841  0  0  0.143615  0  4.041509  0  0  0.150166  0  4.061654  0  0  0.002035  0.139648  0  4.027576  0
C  C35  1  0.47077199  0.17198497  0.18027030  1  0  -0.159828  0  3.695015  0  0  -0.176796  0  3.943146  0  0  -0.184792  0  3.963136  0  0  -0.080349  -0.171731  0  3.929661  0
C  C36  1  0.52922838  0.82801607  0.81972858  1  0  -0.15998  0  3.69508  0  0  -0.176903  0  3.943208  0  0  -0.184899  0  3.963199  0  0  -0.080393  -0.171839  0  3.929728  0
C  C37  1  0.47511447  0.15698340  0.28547029  1  0  0.112835  0  3.6824  0  0  0.082776  0  3.937779  0  0  0.092263  0  3.953711  0  0  0.039469  0.076214  0  3.927776  0
C  C38  1  0.52488705  0.84301647  0.71452857  1  0  0.112945  0  3.682356  0  0  0.082873  0  3.937735  0  0  0.092361  0  3.953665  0  0  0.039524  0.076325  0  3.927705  0
C  C39  1  0.49009093  0.05824716  0.02592679  1  0  -0.101029  0  3.724291  0  0  -0.124354  0  3.982542  0  0  -0.125157  0  3.999447  0  0  -0.083746  -0.124174  0  3.971398  0
C  C40  1  0.50990795  0.94175034  0.97407446  1  0  -0.100938  0  3.724258  0  0  -0.124236  0  3.982511  0  0  -0.125029  0  3.99941  0  0  -0.083712  -0.124046  0  3.971359  0
C  C41  1  0.08767821  0.64936323  0.81855838  1  0  0.135002  0  3.715783  0  0  0.105065  0  3.964061  0  0  0.112451  0  3.983362  0  0  0.044871  0.100294  0  3.950804  0
C  C42  1  0.91232360  0.35064018  0.18143683  1  0  0.134817  0  3.715782  0  0  0.104926  0  3.964047  0  0  0.11231  0  3.98335  0  0  0.044803  0.100157  0  3.950789  0
C  C43  1  0.10159265  0.72134481  0.89716250  1  0  -0.162123  0  3.670364  0  0  -0.175574  0  3.908353  0  0  -0.184257  0  3.929997  0  0  -0.081119  -0.169857  0  3.893674  0
C  C44  1  0.89841007  0.27865391  0.10283408  1  0  -0.162051  0  3.67031  0  0  -0.175487  0  3.908301  0  0  -0.18417  0  3.929945  0  0  -0.081045  -0.169771  0  3.893624  0
C  C45  1  0.02693318  0.86370518  0.90405665  1  0  0.140177  0  3.790865  0  0  0.155412  0  4.020285  0  0  0.160834  0  4.042875  0  0  0.009933  0.151987  0  4.004748  0
C  C46  1  0.97306934  0.13629116  0.09594337  1  0  0.140132  0  3.790862  0  0  0.155347  0  4.020313  0  0  0.16077  0  4.0429  0  0  0.009864  0.151922  0  4.004779  0
C  C47  1  0.94341992  0.92734304  0.82799202  1  0  -0.159159  0  3.68817  0  0  -0.174634  0  3.92846  0  0  -0.18259  0  3.949687  0  0  -0.083503  -0.169498  0  3.914207  0
C  C48  1  0.05658165  0.07265800  0.17200814  1  0  -0.159102  0  3.688108  0  0  -0.174543  0  3.928378  0  0  -0.182499  0  3.949605  0  0  -0.083453  -0.169404  0  3.914122  0
C  C49  1  0.93568155  0.84751895  0.75218979  1  0  0.126045  0  3.729325  0  0  0.09533  0  3.981696  0  0  0.10254  0  4.00105  0  0  0.040278  0.090611  0  3.968607  0
C  C50  1  0.06432027  0.15248562  0.24780823  1  0  0.125976  0  3.729357  0  0  0.09525  0  3.981742  0  0  0.10246  0  4.001096  0  0  0.040268  0.090531  0  3.968651  0
C  C51  1  0.03989828  0.93676531  0.98809488  1  0  -0.098241  0  3.711553  0  0  -0.117505  0  3.958662  0  0  -0.120666  0  3.979762  0  0  -0.078466  -0.115201  0  3.944003  0
C  C52  1  0.96010283  0.06322868  0.01190654  1  0  -0.0982  0  3.711643  0  0  -0.117449  0  3.958766  0  0  -0.12061  0  3.979865  0  0  -0.078417  -0.115146  0  3.944107  0
S  S53  1  0.02767712  0.80524977  0.43864273  1  0  -0.246186  0  2.307086  0  0  -0.215609  0  2.658823  0  0  -0.233125  0  2.654105  0  0  -0.112178  -0.203115  0  2.661709  0
S  S54  1  0.97232181  0.19474775  0.56135625  1  0  -0.246184  0  2.307079  0  0  -0.215609  0  2.658817  0  0  -0.233124  0  2.654097  0  0  -0.112178  -0.203116  0  2.661704  0
S  S55  1  0.27177069  0.48496708  0.58061963  1  0  -0.23607  0  2.28874  0  0  -0.204984  0  2.640739  0  0  -0.221171  0  2.633509  0  0  -0.108271  -0.193716  0  2.645568  0
S  S56  1  0.72822969  0.51503397  0.41937850  1  0  -0.23611  0  2.288708  0  0  -0.205016  0  2.640685  0  0  -0.221203  0  2.633454  0  0  -0.10828  -0.193747  0  2.645514  0
S  S57  1  0.69031233  0.44969144  0.70485034  1  0  -0.219945  0  2.317823  0  0  -0.185505  0  2.666764  0  0  -0.200055  0  2.662531  0  0  -0.107189  -0.175886  0  2.669687  0
S  S58  1  0.30968886  0.55030602  0.29515950  1  0  -0.219971  0  2.317915  0  0  -0.185551  0  2.666886  0  0  -0.200103  0  2.662658  0  0  -0.107174  -0.175933  0  2.669806  0
N  N59  1  0.71216324  0.92361450  0.47582062  1  0  -0.384924  0  3.209081  0  0  -0.368985  0  3.511717  0  0  -0.384199  0  3.520566  0  0  -0.382864  -0.359624  0  3.504171  0
N  N60  1  0.28783574  0.07638419  0.52417966  1  0  -0.384871  0  3.20909  0  0  -0.368922  0  3.51171  0  0  -0.384139  0  3.520565  0  0  -0.382829  -0.359564  0  3.504168  0
N  N61  1  0.40889482  0.79299645  0.53512571  1  0  -0.376688  0  3.208578  0  0  -0.357747  0  3.50963  0  0  -0.372373  0  3.517749  0  0  -0.376414  -0.34899  0  3.502815  0
N  N62  1  0.59110671  0.20700343  0.46487315  1  0  -0.376711  0  3.208566  0  0  -0.357773  0  3.509622  0  0  -0.3724  0  3.517741  0  0  -0.376434  -0.349021  0  3.502822  0
N  N63  1  0.69348791  0.40910879  0.92307074  1  0  -0.436445  0  2.622321  0  0  -0.415305  0  2.848774  0  0  -0.426784  0  2.859107  0  0  -0.340694  -0.407479  0  2.841863  0
N  N64  1  0.30651189  0.59090512  0.07693587  1  0  -0.436486  0  2.62199  0  0  -0.41537  0  2.848474  0  0  -0.42685  0  2.858804  0  0  -0.340803  -0.407543  0  2.841564  0
N  N65  1  0.51766989  0.02422302  0.34594082  1  0  -0.214564  0  3.336259  0  0  -0.165544  0  3.603449  0  0  -0.18648  0  3.622576  0  0  -0.33324  -0.152409  0  3.589596  0
N  N66  1  0.48232917  0.97577685  0.65405850  1  0  -0.214586  0  3.336285  0  0  -0.165568  0  3.603475  0  0  -0.186506  0  3.622603  0  0  -0.333262  -0.152435  0  3.589626  0
N  N67  1  0.00565405  0.71062458  0.74741276  1  0  -0.283016  0  3.255706  0  0  -0.204435  0  3.514768  0  0  -0.225016  0  3.538309  0  0  -0.312917  -0.190465  0  3.498477  0
N  N68  1  0.99434773  0.28937882  0.25258396  1  0  -0.2829  0  3.255739  0  0  -0.204315  0  3.514776  0  0  -0.224896  0  3.53832  0  0  -0.312868  -0.190346  0  3.498488  0
