# generated using pymatgen
data_CdH22C34S2(N2O3)2
_symmetry_space_group_name_H-M   'P 1'
_cell_length_a   8.28348327
_cell_length_b   8.93937525
_cell_length_c   9.70707773
_cell_angle_alpha   96.44187258
_cell_angle_beta   92.18426595
_cell_angle_gamma   104.28681492
_symmetry_Int_Tables_number   1
_chemical_formula_structural   CdH22C34S2(N2O3)2
_chemical_formula_sum   'Cd1 H22 C34 S2 N4 O6'
_cell_volume   690.55445320
_cell_formula_units_Z   1
loop_
 _symmetry_equiv_pos_site_id
 _symmetry_equiv_pos_as_xyz
  1  'x, y, z'
loop_
 _atom_site_type_symbol
 _atom_site_label
 _atom_site_symmetry_multiplicity
 _atom_site_fract_x
 _atom_site_fract_y
 _atom_site_fract_z
 _atom_site_occupancy
 _atom_site_hle17_bader_spin_density
 _atom_site_hle17_ddec_charge
 _atom_site_hle17_ddec_spin_density
 _atom_site_hle17_ddec_sum_bond_order
 _atom_site_hle17_magmom
 _atom_site_hse06_10hf_bader_spin_density
 _atom_site_hse06_10hf_ddec_charge
 _atom_site_hse06_10hf_ddec_spin_density
 _atom_site_hse06_10hf_ddec_sum_bond_order
 _atom_site_hse06_10hf_magmom
 _atom_site_hse06_bader_spin_density
 _atom_site_hse06_ddec_charge
 _atom_site_hse06_ddec_spin_density
 _atom_site_hse06_ddec_sum_bond_order
 _atom_site_hse06_magmom
 _atom_site_pbe_bader_spin_density
 _atom_site_pbe_cm5_charge
 _atom_site_pbe_ddec_charge
 _atom_site_pbe_ddec_spin_density
 _atom_site_pbe_ddec_sum_bond_order
 _atom_site_pbe_magmom
Cd  Cd0  1  0.99999921  0.49999985  0.49999967  1  0  1.070431  0  1.71675  0  0  0.863026  0  2.158985  0  0  0.915926  0  2.114964  0  0  0.801802  0.825924  0  2.188401  0
H  H1  1  0.61575039  0.42591982  0.63004762  1  0  0.090142  0  0.945687  0  0  0.09944  0  1.009049  0  0  0.10183  0  1.006514  0  0  0.118416  0.097299  0  1.011944  0
H  H2  1  0.38424686  0.57407959  0.36995551  1  0  0.090103  0  0.945758  0  0  0.099379  0  1.009136  0  0  0.101781  0  1.00658  0  0  0.118383  0.097239  0  1.012029  0
H  H3  1  0.46885184  0.26931038  0.80510367  1  0  0.10498  0  0.958751  0  0  0.11652  0  1.013232  0  0  0.118403  0  1.015187  0  0  0.107913  0.115309  0  1.011857  0
H  H4  1  0.53114642  0.73067970  0.19489873  1  0  0.104927  0  0.958734  0  0  0.116488  0  1.013233  0  0  0.118383  0  1.015156  0  0  0.107888  0.115277  0  1.011857  0
H  H5  1  0.60347805  0.08345746  0.91129481  1  0  0.121979  0  0.925001  0  0  0.134506  0  0.979771  0  0  0.137806  0  0.97686  0  0  0.115293  0.131866  0  0.982455  0
H  H6  1  0.39652416  0.91653370  0.08870578  1  0  0.121987  0  0.925071  0  0  0.134519  0  0.979822  0  0  0.137822  0  0.97691  0  0  0.115289  0.131879  0  0.982507  0
H  H7  1  0.83852446  0.95596338  0.91600660  1  0  0.098191  0  0.959886  0  0  0.110807  0  1.019847  0  0  0.112776  0  1.020607  0  0  0.105649  0.108984  0  1.020392  0
H  H8  1  0.16148357  0.04403113  0.08399038  1  0  0.098207  0  0.959908  0  0  0.110793  0  1.019905  0  0  0.112763  0  1.020666  0  0  0.105632  0.10897  0  1.020449  0
H  H9  1  0.09321520  0.90515540  0.80963083  1  0  0.112252  0  0.957228  0  0  0.120635  0  1.021268  0  0  0.123991  0  1.0192  0  0  0.105713  0.118522  0  1.022417  0
H  H10  1  0.90679140  0.09484262  0.19036639  1  0  0.112199  0  0.957315  0  0  0.120618  0  1.021301  0  0  0.123974  0  1.019233  0  0  0.10571  0.118503  0  1.022451  0
H  H11  1  0.30349738  0.96007392  0.63754071  1  0  0.114055  0  0.953118  0  0  0.123745  0  1.014466  0  0  0.127136  0  1.011531  0  0  0.109914  0.121302  0  1.016611  0
H  H12  1  0.69651119  0.03993104  0.36245510  1  0  0.114079  0  0.953081  0  0  0.123735  0  1.014471  0  0  0.127125  0  1.011536  0  0  0.10991  0.121291  0  1.016617  0
H  H13  1  0.42453826  0.12237740  0.44897010  1  0  0.113467  0  0.941682  0  0  0.124055  0  0.998765  0  0  0.127145  0  0.99838  0  0  0.110569  0.121746  0  0.999352  0
H  H14  1  0.57546404  0.87763115  0.55102781  1  0  0.113485  0  0.941689  0  0  0.124076  0  0.998768  0  0  0.127166  0  0.998384  0  0  0.110569  0.121769  0  0.999356  0
H  H15  1  0.30397283  0.33753218  0.39739887  1  0  0.080374  0  0.957867  0  0  0.08971  0  1.022435  0  0  0.09183  0  1.019896  0  0  0.11708  0.087958  0  1.024711  0
H  H16  1  0.69602912  0.66247528  0.60260202  1  0  0.080345  0  0.957935  0  0  0.089721  0  1.02247  0  0  0.091838  0  1.019939  0  0  0.117105  0.087976  0  1.024731  0
H  H17  1  0.92899137  0.53292138  0.11061064  1  0  0.102823  0  0.970901  0  0  0.111484  0  1.035626  0  0  0.114414  0  1.034523  0  0  0.101979  0.109293  0  1.036528  0
H  H18  1  0.07100444  0.46708156  0.88939375  1  0  0.102869  0  0.97084  0  0  0.111506  0  1.03558  0  0  0.11441  0  1.034516  0  0  0.102016  0.109315  0  1.036485  0
H  H19  1  0.91506092  0.70275533  0.92527193  1  0  0.098547  0  0.948634  0  0  0.110539  0  1.006513  0  0  0.113555  0  1.005395  0  0  0.102587  0.108515  0  1.007105  0
H  H20  1  0.08493368  0.29724764  0.07473344  1  0  0.09862  0  0.948549  0  0  0.11065  0  1.006377  0  0  0.113668  0  1.005257  0  0  0.102654  0.108624  0  1.006967  0
H  H21  1  0.64027861  0.72101265  0.82864221  1  0  0.096665  0  0.986557  0  0  0.104532  0  1.054182  0  0  0.108109  0  1.051594  0  0  0.102691  0.10201  0  1.056059  0
H  H22  1  0.35971931  0.27898903  0.17135908  1  0  0.096662  0  0.986575  0  0  0.104552  0  1.054176  0  0  0.108128  0  1.051589  0  0  0.10269  0.102029  0  1.05605  0
C  C23  1  0.67323420  0.34527485  0.67760148  1  0  0.148769  0  3.689849  0  0  0.114449  0  3.947366  0  0  0.123206  0  3.964673  0  0  0.05824  0.1088  0  3.93659  0
C  C24  1  0.32676264  0.65471866  0.32239806  1  0  0.148755  0  3.689777  0  0  0.114485  0  3.94727  0  0  0.123234  0  3.964591  0  0  0.058272  0.108835  0  3.936494  0
C  C25  1  0.59002128  0.25557718  0.77567220  1  0  -0.112148  0  3.741558  0  0  -0.124233  0  3.99459  0  0  -0.132239  0  4.018468  0  0  -0.082205  -0.118893  0  3.978682  0
C  C26  1  0.40997548  0.74441162  0.22432488  1  0  -0.111925  0  3.741372  0  0  -0.124048  0  3.994377  0  0  -0.132051  0  4.018265  0  0  -0.082145  -0.118709  0  3.978469  0
C  C27  1  0.66393108  0.15289428  0.83356049  1  0  -0.023922  0  3.643896  0  0  -0.050545  0  3.892295  0  0  -0.047184  0  3.908546  0  0  -0.055044  -0.052479  0  3.880968  0
C  C28  1  0.33606784  0.84709805  0.16643904  1  0  -0.024074  0  3.644063  0  0  -0.05071  0  3.892489  0  0  -0.047355  0  3.908748  0  0  -0.055092  -0.052646  0  3.88116  0
C  C29  1  0.81824879  0.13438326  0.78732264  1  0  0.023024  0  3.794679  0  0  0.03988  0  4.026586  0  0  0.037082  0  4.051599  0  0  -0.001834  0.041977  0  4.008772  0
C  C30  1  0.18175658  0.86561487  0.21267865  1  0  0.023178  0  3.794671  0  0  0.040022  0  4.026537  0  0  0.037222  0  4.051552  0  0  -0.001742  0.042121  0  4.008719  0
C  C31  1  0.89649625  0.02213087  0.83522082  1  0  -0.104982  0  3.751049  0  0  -0.126908  0  4.003666  0  0  -0.13119  0  4.028277  0  0  -0.083918  -0.124157  0  3.988201  0
C  C32  1  0.10351067  0.97786834  0.16477754  1  0  -0.105082  0  3.751136  0  0  -0.126989  0  4.003754  0  0  -0.131271  0  4.028364  0  0  -0.083925  -0.124238  0  3.988284  0
C  C33  1  0.03640912  0.99504322  0.77830512  1  0  -0.093148  0  3.723353  0  0  -0.116043  0  3.977111  0  0  -0.118543  0  3.999601  0  0  -0.081932  -0.114699  0  3.962682  0
C  C34  1  0.96359573  0.00495713  0.22169118  1  0  -0.093068  0  3.723311  0  0  -0.115942  0  3.977099  0  0  -0.118439  0  3.999592  0  0  -0.081941  -0.114596  0  3.962665  0
C  C35  1  0.11103651  0.08210967  0.67175600  1  0  0.025327  0  3.771609  0  0  0.04183  0  4.003952  0  0  0.038787  0  4.028565  0  0  -0.002522  0.04349  0  3.987435  0
C  C36  1  0.88896767  0.91788839  0.32824215  1  0  0.025368  0  3.771418  0  0  0.041729  0  4.003969  0  0  0.038676  0  4.0286  0  0  -0.002506  0.043391  0  3.987448  0
C  C37  1  0.25036368  0.05179924  0.60506952  1  0  -0.040374  0  3.665385  0  0  -0.065283  0  3.914037  0  0  -0.061896  0  3.930282  0  0  -0.059939  -0.067747  0  3.903805  0
C  C38  1  0.74964159  0.94820695  0.39492831  1  0  -0.040342  0  3.665376  0  0  -0.065179  0  3.914052  0  0  -0.061787  0  3.930299  0  0  -0.059891  -0.067641  0  3.903819  0
C  C39  1  0.31734582  0.14063383  0.50365157  1  0  -0.112671  0  3.721835  0  0  -0.126701  0  3.979204  0  0  -0.1338  0  3.999834  0  0  -0.080359  -0.122312  0  3.96632  0
C  C40  1  0.68265911  0.85937123  0.49634719  1  0  -0.112748  0  3.721995  0  0  -0.12677  0  3.97937  0  0  -0.133871  0  4.000003  0  0  -0.080406  -0.122386  0  3.966494  0
C  C41  1  0.24759907  0.26182703  0.47212441  1  0  0.16773  0  3.67568  0  0  0.132893  0  3.930823  0  0  0.142624  0  3.946714  0  0  0.062487  0.126362  0  3.920378  0
C  C42  1  0.75240102  0.73817814  0.52787725  1  0  0.167695  0  3.675807  0  0  0.132803  0  3.930997  0  0  0.142533  0  3.946886  0  0  0.062437  0.126272  0  3.920563  0
C  C43  1  0.04383194  0.20259299  0.62868306  1  0  0.12972  0  3.755061  0  0  0.121078  0  3.994441  0  0  0.125491  0  4.017733  0  0  0.116054  0.118703  0  3.97787  0
C  C44  1  0.95617048  0.79740742  0.37131521  1  0  0.129666  0  3.755052  0  0  0.121024  0  3.994481  0  0  0.125438  0  4.017779  0  0  0.116026  0.11865  0  3.977911  0
C  C45  1  0.89238658  0.22722959  0.68549794  1  0  0.121636  0  3.762484  0  0  0.114774  0  4.000985  0  0  0.11878  0  4.023808  0  0  0.113338  0.112295  0  3.985177  0
C  C46  1  0.10761580  0.77277097  0.31450653  1  0  0.121573  0  3.762622  0  0  0.114795  0  4.00102  0  0  0.118801  0  4.023844  0  0  0.113343  0.112314  0  3.985212  0
C  C47  1  0.66496443  0.44774105  0.10956427  1  0  -0.152853  0  3.690141  0  0  -0.128291  0  3.93223  0  0  -0.135386  0  3.953482  0  0  -0.017656  -0.123803  0  3.918477  0
C  C48  1  0.33503172  0.55226300  0.89043816  1  0  -0.152752  0  3.690033  0  0  -0.128263  0  3.93216  0  0  -0.135356  0  3.953403  0  0  -0.017625  -0.123763  0  3.918383  0
C  C49  1  0.80887190  0.53798956  0.06478831  1  0  -0.06975  0  3.767814  0  0  -0.100197  0  4.024838  0  0  -0.098946  0  4.044723  0  0  -0.092068  -0.100614  0  4.01116  0
C  C50  1  0.19112117  0.46201224  0.93521588  1  0  -0.069726  0  3.767681  0  0  -0.100127  0  4.024735  0  0  -0.098861  0  4.04464  0  0  -0.092075  -0.100549  0  4.011056  0
C  C51  1  0.79982122  0.63536034  0.96167034  1  0  -0.057926  0  3.757906  0  0  -0.071152  0  4.015632  0  0  -0.073265  0  4.035343  0  0  -0.090725  -0.06981  0  4.002062  0
C  C52  1  0.20017579  0.36464261  0.03833513  1  0  -0.058136  0  3.757923  0  0  -0.071409  0  4.015704  0  0  -0.073523  0  4.035409  0  0  -0.090839  -0.070063  0  4.002129  0
C  C53  1  0.64705952  0.64321112  0.90587653  1  0  -0.110532  0  3.732786  0  0  -0.13544  0  3.987953  0  0  -0.135962  0  4.005466  0  0  -0.089556  -0.135387  0  3.976505  0
C  C54  1  0.35293544  0.35679289  0.09412379  1  0  -0.11046  0  3.7327  0  0  -0.135362  0  3.987894  0  0  -0.135885  0  4.005407  0  0  -0.089532  -0.135306  0  3.976436  0
C  C55  1  0.50394783  0.44923566  0.05202047  1  0  0.046685  0  3.760301  0  0  0.0566  0  3.985922  0  0  0.057333  0  4.009255  0  0  -0.003045  0.056188  0  3.970714  0
C  C56  1  0.49604856  0.55076485  0.94797962  1  0  0.04667  0  3.760375  0  0  0.056694  0  3.985922  0  0  0.057424  0  4.009257  0  0  -0.003029  0.056281  0  3.970712  0
S  S57  1  0.68408778  0.33276202  0.24632397  1  0  1.284822  0  5.684878  0  0  1.190571  0  6.207396  0  0  1.239446  0  6.18226  0  0  0.494579  1.156667  0  6.222827  0
S  S58  1  0.31590619  0.66723853  0.75367706  1  0  1.284744  0  5.685121  0  0  1.190528  0  6.207623  0  0  1.239402  0  6.182494  0  0  0.494617  1.156619  0  6.223066  0
N  N59  1  0.82122642  0.33361213  0.63547301  1  0  -0.352555  0  3.232623  0  0  -0.281616  0  3.497492  0  0  -0.300834  0  3.515443  0  0  -0.324981  -0.268682  0  3.485274  0
N  N60  1  0.17876963  0.66638728  0.36453007  1  0  -0.352578  0  3.232604  0  0  -0.281686  0  3.497457  0  0  -0.300906  0  3.515412  0  0  -0.325028  -0.268752  0  3.485238  0
N  N61  1  0.11523798  0.29159938  0.53199571  1  0  -0.352863  0  3.259994  0  0  -0.27789  0  3.521182  0  0  -0.29813  0  3.540037  0  0  -0.325003  -0.264068  0  3.507613  0
N  N62  1  0.88476202  0.70840110  0.46800453  1  0  -0.352751  0  3.259867  0  0  -0.277752  0  3.521058  0  0  -0.29799  0  3.539912  0  0  -0.324953  -0.263932  0  3.507493  0
O  O63  1  0.59946371  0.39348012  0.36160544  1  0  -0.670147  0  1.94489  0  0  -0.625818  0  2.201754  0  0  -0.647583  0  2.190165  0  0  -0.345349  -0.609398  0  2.208968  0
O  O64  1  0.40052830  0.60651345  0.63839493  1  0  -0.670098  0  1.944913  0  0  -0.625789  0  2.201788  0  0  -0.647546  0  2.190204  0  0  -0.34533  -0.609359  0  2.208997  0
O  O65  1  0.60674369  0.17023906  0.19060097  1  0  -0.665158  0  1.912874  0  0  -0.62131  0  2.15827  0  0  -0.642301  0  2.144994  0  0  -0.349325  -0.605918  0  2.166666  0
O  O66  1  0.39325480  0.82976021  0.80939704  1  0  -0.665116  0  1.913004  0  0  -0.621268  0  2.158404  0  0  -0.64226  0  2.145127  0  0  -0.349301  -0.605875  0  2.166795  0
O  O67  1  0.86673901  0.36045120  0.27881226  1  0  -0.697417  0  1.999798  0  0  -0.638202  0  2.276151  0  0  -0.660519  0  2.259502  0  0  -0.35797  -0.622359  0  2.286271  0
O  O68  1  0.13325618  0.63954929  0.72118675  1  0  -0.697453  0  1.999825  0  0  -0.638268  0  2.276188  0  0  -0.66058  0  2.259535  0  0  -0.358054  -0.622425  0  2.286314  0
