# generated using pymatgen
data_CuH2(C3N4)2
_symmetry_space_group_name_H-M   'P 1'
_cell_length_a   18.46293086
_cell_length_b   18.46289384
_cell_length_c   18.46288207
_cell_angle_alpha   90.00004662
_cell_angle_beta   90.00000075
_cell_angle_gamma   90.00000155
_symmetry_Int_Tables_number   1
_chemical_formula_structural   CuH2(C3N4)2
_chemical_formula_sum   'Cu12 H24 C72 N96'
_cell_volume   6293.61122549
_cell_formula_units_Z   12
loop_
 _symmetry_equiv_pos_site_id
 _symmetry_equiv_pos_as_xyz
  1  'x, y, z'
loop_
 _atom_site_type_symbol
 _atom_site_label
 _atom_site_symmetry_multiplicity
 _atom_site_fract_x
 _atom_site_fract_y
 _atom_site_fract_z
 _atom_site_occupancy
 _atom_site_pbe_bader_charge
 _atom_site_pbe_bader_spin_density
 _atom_site_pbe_cm5_charge
 _atom_site_pbe_ddec_charge
 _atom_site_pbe_ddec_spin_density
 _atom_site_pbe_ddec_sum_bond_order
 _atom_site_pbe_magmom
Cu  Cu0  1  0.50000025  0.13353974  0.00000006  1  0.986706  0.533898  0.824973  0.542033  0.685855  2.367407  0.536
Cu  Cu1  1  0.50000027  0.86646047  0.99999970  1  0.986702  0.533899  0.824966  0.542016  0.685856  2.36743  0.536
Cu  Cu2  1  0.00000001  0.50000022  0.13353948  1  0.986619  0.533895  0.824962  0.542008  0.685857  2.367432  0.536
Cu  Cu3  1  0.00000001  0.49999998  0.86646027  1  0.986697  0.533899  0.824975  0.542043  0.685857  2.367422  0.536
Cu  Cu4  1  0.13353947  0.00000021  0.49999994  1  0.986693  0.533899  0.824972  0.542036  0.685858  2.367456  0.536
Cu  Cu5  1  0.86646049  0.00000022  0.49999995  1  0.986777  0.533901  0.824974  0.542041  0.685858  2.367447  0.536
Cu  Cu6  1  0.13353948  0.50000017  0.00000020  1  0.986699  0.533898  0.824984  0.542047  0.685857  2.367438  0.536
Cu  Cu7  1  0.86646049  0.50000018  0.00000021  1  0.986739  0.5339  0.825001  0.542072  0.685858  2.367435  0.536
Cu  Cu8  1  0.50000027  0.99999961  0.86646047  1  0.986702  0.533899  0.824963  0.542003  0.685856  2.36744  0.536
Cu  Cu9  1  0.50000025  0.00000006  0.13353928  1  0.986706  0.533898  0.824972  0.542028  0.685856  2.367416  0.536
Cu  Cu10  1  0.00000001  0.13353940  0.50000000  1  0.98662  0.533893  0.824965  0.542021  0.685856  2.367421  0.536
Cu  Cu11  1  0.00000002  0.86646026  0.49999975  1  0.986734  0.5339  0.824965  0.542026  0.685857  2.367452  0.536
H  H12  1  0.26475699  0.26475756  0.09945858  1  0.09299  0.00027  0.115265  0.125753  0.000222  1.001252  0.0
H  H13  1  0.73524243  0.73524286  0.09945823  1  0.093087  0.00027  0.115255  0.125738  0.000221  1.001246  0.0
H  H14  1  0.73524243  0.26475736  0.90054153  1  0.092989  0.00027  0.115244  0.125727  0.000221  1.001264  0.0
H  H15  1  0.26475755  0.73524264  0.90054172  1  0.092984  0.00027  0.115254  0.125729  0.000222  1.001247  0.0
H  H16  1  0.09945767  0.26475763  0.26475780  1  0.092974  0.00027  0.115251  0.125745  0.000222  1.001232  0.0
H  H17  1  0.09945822  0.73524257  0.73524250  1  0.093092  0.00027  0.115253  0.125737  0.000222  1.001259  0.0
H  H18  1  0.90054176  0.73524239  0.26475745  1  0.093107  0.000271  0.115245  0.125711  0.000222  1.001205  0.0
H  H19  1  0.90054175  0.26475729  0.73524285  1  0.093003  0.000271  0.115247  0.125713  0.000222  1.001219  0.0
H  H20  1  0.26475699  0.09945906  0.26475719  1  0.093099  0.00027  0.11526  0.125738  0.000221  1.001265  0.0
H  H21  1  0.73524243  0.09945872  0.73524279  1  0.093107  0.00027  0.115255  0.125731  0.000221  1.001271  0.0
H  H22  1  0.26475755  0.90054169  0.73524257  1  0.092981  0.00027  0.115248  0.125736  0.000222  1.001245  0.0
H  H23  1  0.73524244  0.90054150  0.26475752  1  0.093099  0.00027  0.115246  0.12573  0.000221  1.001251  0.0
H  H24  1  0.26475754  0.26475735  0.90054153  1  0.093104  0.00027  0.115246  0.125716  0.000221  1.001271  0.0
H  H25  1  0.73524244  0.73524265  0.90054172  1  0.092977  0.00027  0.115252  0.125726  0.000222  1.00126  0.0
H  H26  1  0.26475754  0.73524286  0.09945823  1  0.093097  0.00027  0.115253  0.125723  0.000221  1.001259  0.0
H  H27  1  0.73524297  0.26475703  0.09945858  1  0.093092  0.00027  0.115252  0.125729  0.000221  1.001275  0.0
H  H28  1  0.26475754  0.09945871  0.73524278  1  0.093107  0.00027  0.115255  0.125726  0.000221  1.001274  0.0
H  H29  1  0.73524242  0.09945798  0.26475719  1  0.092992  0.00027  0.115261  0.125761  0.000222  1.001219  0.0
H  H30  1  0.73524244  0.90054169  0.73524257  1  0.092984  0.00027  0.11524  0.125714  0.000221  1.001275  0.0
H  H31  1  0.26475755  0.90054150  0.26475752  1  0.092991  0.00027  0.115247  0.125721  0.000221  1.001273  0.0
H  H32  1  0.09945822  0.26475728  0.73524285  1  0.09311  0.000271  0.115243  0.125705  0.000222  1.001226  0.0
H  H33  1  0.09945822  0.73524238  0.26475745  1  0.093002  0.000271  0.115239  0.125717  0.000222  1.001215  0.0
H  H34  1  0.90054175  0.26475764  0.26475726  1  0.093093  0.00027  0.115257  0.125746  0.000222  1.001241  0.0
H  H35  1  0.90054176  0.73524258  0.73524250  1  0.092997  0.000271  0.115244  0.125708  0.000222  1.001216  0.0
C  C36  1  0.24071368  0.24071368  0.14769535  1  0.043924  -7e-05  -0.07007  -0.135657  -0.000256  3.885353  0.0
C  C37  1  0.75928520  0.75928624  0.14769502  1  0.043937  -7e-05  -0.070046  -0.13562  -0.000256  3.885224  0.0
C  C38  1  0.75928466  0.24071398  0.85230528  1  0.044254  -7e-05  -0.07007  -0.13566  -0.000256  3.885194  0.0
C  C39  1  0.24071369  0.75928652  0.85230495  1  0.04361  -7e-05  -0.070058  -0.13565  -0.000256  3.88528  0.0
C  C40  1  0.14769541  0.24071372  0.24071387  1  0.044248  -6.9e-05  -0.0701  -0.135707  -0.000256  3.885404  0.0
C  C41  1  0.14769542  0.75928594  0.75928588  1  0.044264  -7e-05  -0.070078  -0.135704  -0.000256  3.885294  0.0
C  C42  1  0.85230294  0.75928574  0.24071409  1  0.044217  -6.9e-05  -0.070116  -0.13564  -0.000256  3.885325  0.0
C  C43  1  0.85230293  0.24071394  0.75928622  1  0.043875  -6.9e-05  -0.070114  -0.135646  -0.000255  3.885331  0.0
C  C44  1  0.24071368  0.14769472  0.24071383  1  0.044274  -7e-05  -0.070058  -0.135619  -0.000256  3.885308  0.0
C  C45  1  0.75928466  0.14769493  0.75928618  1  0.044253  -7e-05  -0.070058  -0.135634  -0.000256  3.885226  0.0
C  C46  1  0.24071424  0.85230441  0.75928592  1  0.044247  -6.9e-05  -0.070113  -0.135764  -0.000256  3.885275  0.0
C  C47  1  0.75928466  0.85230528  0.24071412  1  0.044263  -7e-05  -0.070065  -0.135663  -0.000256  3.885185  0.0
C  C48  1  0.24071531  0.24071343  0.85230528  1  0.04426  -7e-05  -0.070088  -0.135654  -0.000256  3.885195  0.0
C  C49  1  0.75928521  0.75928653  0.85230495  1  0.043951  -7e-05  -0.070083  -0.135655  -0.000256  3.885214  0.0
C  C50  1  0.24071531  0.75928624  0.14769448  1  0.044257  -7e-05  -0.070023  -0.135557  -0.000256  3.885201  0.0
C  C51  1  0.75928574  0.24071423  0.14769481  1  0.043946  -7e-05  -0.070054  -0.135651  -0.000256  3.88524  0.0
C  C52  1  0.24071531  0.14769493  0.75928618  1  0.044258  -7e-05  -0.07005  -0.135624  -0.000256  3.8852  0.0
C  C53  1  0.75928628  0.14769635  0.24071384  1  0.044231  -6.9e-05  -0.070125  -0.135743  -0.000256  3.88539  0.0
C  C54  1  0.75928467  0.85230550  0.75928592  1  0.044264  -7e-05  -0.070043  -0.135626  -0.000256  3.885204  0.0
C  C55  1  0.24071532  0.85230528  0.24071358  1  0.044269  -7e-05  -0.070057  -0.135625  -0.000256  3.885184  0.0
C  C56  1  0.14769704  0.24071393  0.75928567  1  0.043874  -6.9e-05  -0.070115  -0.135635  -0.000256  3.885343  0.0
C  C57  1  0.14769758  0.75928573  0.24071408  1  0.04388  -6.9e-05  -0.070106  -0.135672  -0.000255  3.885372  0.0
C  C58  1  0.85230456  0.24071481  0.24071333  1  0.044256  -7e-05  -0.070104  -0.135713  -0.000256  3.885301  0.0
C  C59  1  0.85230294  0.75928595  0.75928589  1  0.044217  -6.9e-05  -0.070114  -0.135627  -0.000256  3.885329  0.0
C  C60  1  0.27164485  0.17881549  0.17881506  1  -0.035374  0.001944  -0.000887  0.037186  0.001236  4.038325  0.002
C  C61  1  0.33647583  0.14673058  0.14673067  1  0.975936  0.009164  0.223912  0.242858  0.007441  4.006148  0.011
C  C62  1  0.72835620  0.82118446  0.17881532  1  -0.035369  0.001943  -0.000876  0.037259  0.001236  4.038331  0.002
C  C63  1  0.66352414  0.85326934  0.14673042  1  0.975951  0.009164  0.223891  0.242694  0.007441  4.0063  0.011
C  C64  1  0.72835620  0.17881576  0.82118444  1  -0.035375  0.001943  -0.000843  0.037305  0.001236  4.038344  0.002
C  C65  1  0.66352413  0.14673033  0.85326934  1  0.975945  0.009164  0.223868  0.242585  0.007441  4.006437  0.011
C  C66  1  0.27164486  0.82118526  0.82118415  1  -0.035216  0.001943  -0.00084  0.037347  0.001236  4.038166  0.002
C  C67  1  0.33647639  0.85326908  0.85326908  1  0.975933  0.009164  0.223891  0.242743  0.007441  4.00624  0.011
C  C68  1  0.17881506  0.27164655  0.17881618  1  -0.035131  0.001944  -0.000847  0.037274  0.001236  4.03823  0.002
C  C69  1  0.14673077  0.33647603  0.14673075  1  0.975655  0.009166  0.223854  0.242704  0.007441  4.006175  0.011
C  C70  1  0.17881453  0.72835474  0.82118466  1  -0.034897  0.001943  -0.000884  0.037257  0.001236  4.038235  0.002
C  C71  1  0.14673078  0.66352418  0.85326900  1  0.975913  0.009164  0.223877  0.242719  0.007441  4.006267  0.011
C  C72  1  0.82118545  0.72835232  0.17881745  1  -0.035055  0.001944  -0.000852  0.037247  0.001236  4.038179  0.002
C  C73  1  0.85326865  0.66352390  0.14673143  1  0.97523  0.009168  0.223813  0.24258  0.007441  4.006177  0.011
C  C74  1  0.82118545  0.27164790  0.82118231  1  -0.035121  0.001944  -0.00083  0.037292  0.001236  4.038126  0.002
C  C75  1  0.85326866  0.33647578  0.85326888  1  0.975628  0.009166  0.223815  0.242589  0.007442  4.006255  0.011
C  C76  1  0.17881452  0.17881607  0.27164672  1  -0.035128  0.001943  -0.000844  0.037292  0.001236  4.038233  0.002
C  C77  1  0.14673077  0.14673066  0.33647624  1  0.975986  0.009164  0.22381  0.242592  0.007441  4.006197  0.011
C  C78  1  0.82118545  0.17881735  0.72835224  1  -0.035108  0.001944  -0.000831  0.037291  0.001236  4.038136  0.002
C  C79  1  0.85326865  0.14673080  0.66352377  1  0.975639  0.009166  0.223812  0.242587  0.007441  4.006184  0.011
C  C80  1  0.17881615  0.82118414  0.72835249  1  -0.035198  0.001944  -0.000811  0.037403  0.001236  4.03805  0.002
C  C81  1  0.14673132  0.85326900  0.66352352  1  0.975723  0.009166  0.223821  0.242571  0.007442  4.006167  0.011
C  C82  1  0.82118545  0.82118233  0.27164807  1  -0.035112  0.001944  -0.000818  0.037303  0.001236  4.038122  0.002
C  C83  1  0.85326866  0.85326888  0.33647599  1  0.975629  0.009166  0.223847  0.242628  0.007441  4.006313  0.011
C  C84  1  0.17881452  0.27164789  0.82118231  1  -0.035109  0.001944  -0.000814  0.037262  0.001236  4.038117  0.002
C  C85  1  0.14673186  0.33647577  0.85326887  1  0.975624  0.009166  0.223804  0.242667  0.007442  4.006122  0.011
C  C86  1  0.82118546  0.72835204  0.82118250  1  -0.035122  0.001944  -0.000827  0.037249  0.001236  4.038136  0.002
C  C87  1  0.85326866  0.66352419  0.85326901  1  0.975627  0.009166  0.22385  0.242682  0.007441  4.006262  0.011
C  C88  1  0.17881452  0.72835231  0.17881745  1  -0.035116  0.001944  -0.00084  0.037241  0.001236  4.038164  0.002
C  C89  1  0.14673186  0.66352389  0.14673088  1  0.975632  0.009166  0.223799  0.242659  0.007442  4.006056  0.011
C  C90  1  0.82118544  0.27164439  0.17881619  1  -0.03538  0.001943  -0.000859  0.03731  0.001236  4.038245  0.002
C  C91  1  0.85326919  0.33647603  0.14673076  1  0.975944  0.009164  0.223859  0.24268  0.007441  4.006168  0.011
C  C92  1  0.27164431  0.17881575  0.82118443  1  -0.035384  0.001943  -0.000832  0.037351  0.001236  4.038273  0.002
C  C93  1  0.33647584  0.14673033  0.85326934  1  0.975951  0.009164  0.223812  0.242475  0.007441  4.006375  0.011
C  C94  1  0.72835349  0.17881441  0.17881723  1  -0.035072  0.001944  -0.000828  0.037279  0.001236  4.038172  0.002
C  C95  1  0.66352413  0.14673167  0.14673122  1  0.975577  0.009166  0.22386  0.242771  0.007441  4.006129  0.011
C  C96  1  0.72835567  0.82118418  0.82118470  1  -0.035387  0.001944  -0.000867  0.037296  0.001236  4.038283  0.002
C  C97  1  0.66352414  0.85326963  0.85326908  1  0.975947  0.009164  0.223881  0.242663  0.007441  4.006288  0.011
C  C98  1  0.27164432  0.82118445  0.17881532  1  -0.03538  0.001943  -0.000914  0.037177  0.001236  4.038375  0.002
C  C99  1  0.33647584  0.85326934  0.14673042  1  0.975947  0.009164  0.223836  0.242621  0.007441  4.006232  0.011
C  C100  1  0.17881452  0.17881734  0.72835223  1  -0.03505  0.001944  -0.000843  0.037231  0.001236  4.038157  0.002
C  C101  1  0.14673186  0.14673133  0.66352377  1  0.975227  0.009168  0.223802  0.242673  0.007442  4.006044  0.011
C  C102  1  0.17881453  0.82118232  0.27164806  1  -0.035115  0.001944  -0.000818  0.037285  0.001236  4.038106  0.002
C  C103  1  0.14673186  0.85326887  0.33647598  1  0.975625  0.009166  0.223824  0.242697  0.007441  4.006139  0.011
C  C104  1  0.82118328  0.17881554  0.27164781  1  -0.035185  0.001944  -0.000822  0.03733  0.001236  4.038141  0.002
C  C105  1  0.85326919  0.14673121  0.33647624  1  0.97604  0.009164  0.223801  0.242567  0.007441  4.006207  0.011
C  C106  1  0.82118546  0.82118252  0.72835250  1  -0.035113  0.001943  -0.000834  0.037268  0.001236  4.038155  0.002
C  C107  1  0.85326866  0.85326901  0.66352406  1  0.975636  0.009166  0.223847  0.242647  0.007441  4.006242  0.011
N  N108  1  0.37024025  0.17286027  0.08708778  1  -0.568664  0.015543  -0.194341  -0.21038  0.008958  3.146741  0.012
N  N109  1  0.42531384  0.12872092  0.07724314  1  -0.277593  0.095633  -0.14602  -0.060217  0.065256  3.656334  0.087
N  N110  1  0.62975972  0.82714015  0.08708804  1  -0.568664  0.015544  -0.194326  -0.210298  0.008958  3.146773  0.012
N  N111  1  0.57468613  0.87127895  0.07724290  1  -0.255222  0.095593  -0.146021  -0.06023  0.065257  3.656321  0.087
N  N112  1  0.62975972  0.17286006  0.91291226  1  -0.57363  0.015538  -0.194338  -0.210291  0.008958  3.146799  0.012
N  N113  1  0.57468612  0.12872127  0.92275686  1  -0.277857  0.095628  -0.146017  -0.060226  0.065257  3.656322  0.087
N  N114  1  0.37024026  0.82713994  0.91291198  1  -0.568665  0.015543  -0.194339  -0.210358  0.008958  3.146773  0.012
N  N115  1  0.42531386  0.87127875  0.92275716  1  -0.151404  0.095027  -0.146022  -0.060216  0.065257  3.656324  0.087
N  N116  1  0.08708748  0.37024051  0.17286049  1  -0.573233  0.015535  -0.194311  -0.210315  0.008957  3.146686  0.012
N  N117  1  0.07724289  0.42531420  0.12872114  1  -0.277314  0.095642  -0.146017  -0.060213  0.065257  3.65633  0.087
N  N118  1  0.08708803  0.62975969  0.82713981  1  -0.568658  0.015543  -0.194333  -0.210336  0.008957  3.146768  0.012
N  N119  1  0.07724290  0.57468600  0.87127916  1  -0.277859  0.095628  -0.146022  -0.060235  0.065257  3.656346  0.087
N  N120  1  0.91291249  0.62975943  0.17286060  1  -0.56832  0.015541  -0.1943  -0.21025  0.008957  3.146641  0.012
N  N121  1  0.92275708  0.57468571  0.12872066  1  -0.27787  0.095627  -0.14603  -0.060246  0.065256  3.656352  0.087
N  N122  1  0.91291249  0.37024079  0.82713971  1  -0.568306  0.015541  -0.194288  -0.210249  0.008957  3.146688  0.012
N  N123  1  0.92275708  0.42531398  0.87127910  1  -0.277659  0.095631  -0.146029  -0.060258  0.065257  3.656367  0.087
N  N124  1  0.17285988  0.08708780  0.37024072  1  -0.568654  0.015544  -0.194293  -0.210263  0.008958  3.146707  0.012
N  N125  1  0.12872117  0.07724267  0.42531391  1  -0.151424  0.095026  -0.14604  -0.060263  0.065257  3.65638  0.087
N  N126  1  0.82714008  0.08708737  0.62975925  1  -0.573622  0.015538  -0.194295  -0.210239  0.008957  3.146673  0.012
N  N127  1  0.87127933  0.07724274  0.57468605  1  -0.15197  0.095013  -0.146043  -0.060278  0.065257  3.656383  0.087
N  N128  1  0.17285990  0.91291240  0.62975904  1  -0.568651  0.015544  -0.194291  -0.210268  0.008958  3.146703  0.012
N  N129  1  0.12872118  0.92275753  0.57468584  1  -0.151435  0.095028  -0.14606  -0.060256  0.065257  3.656404  0.087
N  N130  1  0.82714009  0.91291231  0.37024106  1  -0.5736  0.015538  -0.194284  -0.210234  0.008958  3.146714  0.012
N  N131  1  0.87127934  0.92275748  0.42531426  1  -0.151474  0.095026  -0.14605  -0.060289  0.065257  3.656394  0.087
N  N132  1  0.17285989  0.37024082  0.91291234  1  -0.573616  0.015538  -0.19429  -0.210278  0.008958  3.14672  0.012
N  N133  1  0.12872118  0.42531399  0.92275752  1  -0.151427  0.095026  -0.146053  -0.060259  0.065256  3.656404  0.087
N  N134  1  0.82714009  0.62975919  0.91291245  1  -0.568639  0.015543  -0.194295  -0.210273  0.008958  3.146719  0.012
N  N135  1  0.87127934  0.57468603  0.92275758  1  -0.277375  0.095641  -0.146054  -0.060276  0.065256  3.656414  0.087
N  N136  1  0.17285989  0.62975939  0.08708742  1  -0.573634  0.015538  -0.194294  -0.210266  0.008957  3.146686  0.012
N  N137  1  0.12872117  0.57468622  0.07724278  1  -0.151425  0.095027  -0.146042  -0.060283  0.065257  3.65641  0.087
N  N138  1  0.82714008  0.37024049  0.08708786  1  -0.568659  0.015544  -0.194334  -0.210318  0.008958  3.146769  0.012
N  N139  1  0.87127879  0.42531365  0.07724272  1  -0.151413  0.095028  -0.146031  -0.060247  0.065257  3.656349  0.087
N  N140  1  0.37024079  0.08708799  0.82714013  1  -0.573627  0.015538  -0.194288  -0.210216  0.008958  3.146735  0.012
N  N141  1  0.42531385  0.07724286  0.87127896  1  -0.151413  0.095027  -0.146027  -0.060228  0.065257  3.656322  0.087
N  N142  1  0.62975971  0.08708773  0.17286038  1  -0.573286  0.015535  -0.194332  -0.210357  0.008958  3.146729  0.012
N  N143  1  0.57468612  0.07724310  0.12872100  1  -0.151678  0.09502  -0.146029  -0.060234  0.065256  3.656362  0.087
N  N144  1  0.62975973  0.91291249  0.82713993  1  -0.573643  0.015537  -0.194343  -0.21032  0.008957  3.14678  0.012
N  N145  1  0.57468613  0.92275712  0.87127876  1  -0.277864  0.095628  -0.146026  -0.060227  0.065257  3.656333  0.087
N  N146  1  0.37024080  0.91291222  0.17286017  1  -0.57362  0.015538  -0.194293  -0.21027  0.008958  3.146702  0.012
N  N147  1  0.42531385  0.92275681  0.12872080  1  -0.277941  0.095624  -0.146022  -0.060219  0.065257  3.656346  0.087
N  N148  1  0.08708748  0.17286048  0.62975928  1  -0.57328  0.015536  -0.194303  -0.210306  0.008958  3.146671  0.012
N  N149  1  0.07724289  0.12872112  0.57468606  1  -0.151418  0.095027  -0.146031  -0.060241  0.065257  3.656384  0.087
N  N150  1  0.08708749  0.82713972  0.37024047  1  -0.573265  0.015535  -0.194298  -0.21029  0.008957  3.146684  0.012
N  N151  1  0.07724290  0.87127908  0.42531423  1  -0.277861  0.095628  -0.146028  -0.060243  0.065257  3.656374  0.087
N  N152  1  0.91291248  0.17285985  0.37024076  1  -0.56872  0.015543  -0.194296  -0.210261  0.008958  3.146705  0.012
N  N153  1  0.92275708  0.12872107  0.42531394  1  -0.151428  0.095026  -0.146041  -0.060254  0.065257  3.656384  0.087
N  N154  1  0.91291250  0.82713983  0.62975955  1  -0.573274  0.015535  -0.194319  -0.210286  0.008958  3.146736  0.012
N  N155  1  0.92275763  0.87127916  0.57468583  1  -0.151491  0.095024  -0.146053  -0.06027  0.065256  3.656392  0.087
N  N156  1  0.62975919  0.82713995  0.91291198  1  -0.573612  0.015538  -0.194297  -0.21028  0.008958  3.14674  0.012
N  N157  1  0.57468613  0.87127875  0.92275716  1  -0.151417  0.095026  -0.146005  -0.060193  0.065256  3.656331  0.087
N  N158  1  0.37024079  0.17286006  0.91291226  1  -0.573622  0.015538  -0.194311  -0.210253  0.008958  3.146777  0.012
N  N159  1  0.42531385  0.12872126  0.92275686  1  -0.277318  0.095643  -0.145997  -0.060184  0.065258  3.656312  0.087
N  N160  1  0.37024080  0.82714015  0.08708804  1  -0.573626  0.015539  -0.1943  -0.210261  0.008958  3.146745  0.012
N  N161  1  0.42531385  0.87127895  0.07724290  1  -0.15142  0.095027  -0.146009  -0.060207  0.065257  3.656331  0.087
N  N162  1  0.62975917  0.17286027  0.08708778  1  -0.568654  0.015544  -0.194294  -0.210303  0.008958  3.146707  0.012
N  N163  1  0.57468612  0.12872092  0.07724314  1  -0.277247  0.095645  -0.146009  -0.060212  0.065256  3.656359  0.087
N  N164  1  0.91291249  0.62975970  0.82713981  1  -0.573278  0.015535  -0.194327  -0.210314  0.008957  3.146735  0.012
N  N165  1  0.92275763  0.57468601  0.87127916  1  -0.151611  0.095025  -0.146023  -0.060215  0.065256  3.656367  0.087
N  N166  1  0.91291249  0.37024053  0.17285995  1  -0.568724  0.015544  -0.194303  -0.210317  0.008958  3.146712  0.012
N  N167  1  0.92275708  0.42531367  0.12872114  1  -0.277313  0.095644  -0.145995  -0.060164  0.065258  3.656319  0.087
N  N168  1  0.08708748  0.37024078  0.82713970  1  -0.573263  0.015535  -0.194288  -0.210276  0.008957  3.14666  0.012
N  N169  1  0.07724289  0.42531396  0.87127910  1  -0.277314  0.095642  -0.146003  -0.060218  0.065257  3.656356  0.087
N  N170  1  0.08708748  0.62975942  0.17286005  1  -0.573256  0.015535  -0.194275  -0.210259  0.008957  3.146632  0.012
N  N171  1  0.07724289  0.57468570  0.12872066  1  -0.27787  0.095627  -0.146005  -0.060203  0.065256  3.656352  0.087
N  N172  1  0.82714009  0.91291241  0.62975904  1  -0.568636  0.015543  -0.194277  -0.210253  0.008958  3.14667  0.012
N  N173  1  0.87127934  0.92275754  0.57468585  1  -0.277344  0.095644  -0.146031  -0.060225  0.065257  3.656381  0.087
N  N174  1  0.17285989  0.91291230  0.37024105  1  -0.573611  0.015538  -0.194285  -0.210265  0.008958  3.146721  0.012
N  N175  1  0.12872118  0.92275747  0.42531426  1  -0.151434  0.095026  -0.146028  -0.060255  0.065257  3.656394  0.087
N  N176  1  0.82714008  0.08708781  0.37024072  1  -0.568636  0.015543  -0.194277  -0.210233  0.008958  3.146676  0.012
N  N177  1  0.87127933  0.07724268  0.42531392  1  -0.277326  0.095642  -0.146013  -0.060219  0.065257  3.656355  0.087
N  N178  1  0.17285988  0.08708736  0.62975924  1  -0.573279  0.015535  -0.194275  -0.21024  0.008957  3.146647  0.012
N  N179  1  0.12872063  0.07724273  0.57468604  1  -0.277873  0.095629  -0.146011  -0.060231  0.065257  3.65636  0.087
N  N180  1  0.82714008  0.62975940  0.08708742  1  -0.573276  0.015536  -0.194286  -0.210227  0.008958  3.146657  0.012
N  N181  1  0.87127934  0.57468623  0.07724278  1  -0.151421  0.095027  -0.146009  -0.060233  0.065257  3.656367  0.087
N  N182  1  0.17285988  0.37024048  0.08708786  1  -0.568656  0.015544  -0.19433  -0.210325  0.008958  3.146752  0.012
N  N183  1  0.12872117  0.42531364  0.07724272  1  -0.151411  0.095028  -0.146003  -0.060198  0.065257  3.656324  0.087
N  N184  1  0.82714009  0.37024083  0.91291234  1  -0.573611  0.015538  -0.194298  -0.210269  0.008958  3.146722  0.012
N  N185  1  0.87127880  0.42531400  0.92275752  1  -0.151427  0.095027  -0.146022  -0.060203  0.065256  3.656356  0.087
N  N186  1  0.17285989  0.62975972  0.91291190  1  -0.568649  0.015544  -0.194319  -0.210313  0.008958  3.146742  0.012
N  N187  1  0.12872118  0.57468602  0.92275704  1  -0.151409  0.095027  -0.146002  -0.060194  0.065257  3.656321  0.087
N  N188  1  0.62975972  0.91291222  0.17286017  1  -0.568665  0.015544  -0.194342  -0.210337  0.008958  3.146778  0.012
N  N189  1  0.57468613  0.92275681  0.12872134  1  -0.173496  0.095076  -0.14599  -0.060171  0.065257  3.656306  0.087
N  N190  1  0.37024026  0.91291194  0.82713993  1  -0.568666  0.015544  -0.194338  -0.210362  0.008958  3.146773  0.012
N  N191  1  0.42531386  0.92275711  0.87127876  1  -0.277311  0.095642  -0.145995  -0.06017  0.065257  3.656302  0.087
N  N192  1  0.37024024  0.08708772  0.17286037  1  -0.56867  0.015543  -0.194346  -0.210392  0.008958  3.14674  0.012
N  N193  1  0.42531384  0.07724310  0.12872100  1  -0.151464  0.095023  -0.145996  -0.060175  0.065257  3.656315  0.087
N  N194  1  0.62975972  0.08708799  0.82713959  1  -0.568665  0.015543  -0.194341  -0.210294  0.008957  3.146791  0.012
N  N195  1  0.57468612  0.07724286  0.87127896  1  -0.151401  0.095027  -0.145988  -0.060165  0.065257  3.656274  0.087
N  N196  1  0.91291249  0.82713973  0.37024048  1  -0.568311  0.015541  -0.194323  -0.210284  0.008957  3.146734  0.012
N  N197  1  0.92275709  0.87127909  0.42531424  1  -0.277869  0.095628  -0.146007  -0.060207  0.065257  3.656342  0.087
N  N198  1  0.91291249  0.17286049  0.62975928  1  -0.568311  0.015541  -0.19429  -0.210262  0.008957  3.146665  0.012
N  N199  1  0.92275708  0.12872059  0.57468607  1  -0.277326  0.095642  -0.146003  -0.060191  0.065257  3.656343  0.087
N  N200  1  0.08708749  0.82713982  0.62975900  1  -0.568305  0.015541  -0.194287  -0.210232  0.008957  3.146669  0.012
N  N201  1  0.07724290  0.87127914  0.57468582  1  -0.277323  0.095643  -0.146009  -0.060226  0.065258  3.656343  0.087
N  N202  1  0.08708748  0.17286038  0.37024075  1  -0.573564  0.015537  -0.194308  -0.210279  0.008957  3.146686  0.012
N  N203  1  0.07724289  0.12872106  0.42531393  1  -0.277318  0.095643  -0.145995  -0.060175  0.065257  3.656315  0.087
