# generated using pymatgen
data_CuH12C18N(Cl2O3)2
_symmetry_space_group_name_H-M   'P 1'
_cell_length_a   9.86255357
_cell_length_b   10.86771860
_cell_length_c   10.95543629
_cell_angle_alpha   63.92077773
_cell_angle_beta   79.15531658
_cell_angle_gamma   72.22339827
_symmetry_Int_Tables_number   1
_chemical_formula_structural   CuH12C18N(Cl2O3)2
_chemical_formula_sum   'Cu2 H24 C36 N2 Cl8 O12'
_cell_volume   1002.33302633
_cell_formula_units_Z   2
loop_
 _symmetry_equiv_pos_site_id
 _symmetry_equiv_pos_as_xyz
  1  'x, y, z'
loop_
 _atom_site_type_symbol
 _atom_site_label
 _atom_site_symmetry_multiplicity
 _atom_site_fract_x
 _atom_site_fract_y
 _atom_site_fract_z
 _atom_site_occupancy
 _atom_site_hle17_bader_spin_density
 _atom_site_hle17_ddec_charge
 _atom_site_hle17_ddec_spin_density
 _atom_site_hle17_ddec_sum_bond_order
 _atom_site_hle17_magmom
 _atom_site_hse06_10hf_bader_spin_density
 _atom_site_hse06_10hf_ddec_charge
 _atom_site_hse06_10hf_ddec_spin_density
 _atom_site_hse06_10hf_ddec_sum_bond_order
 _atom_site_hse06_10hf_magmom
 _atom_site_hse06_bader_spin_density
 _atom_site_hse06_ddec_charge
 _atom_site_hse06_ddec_spin_density
 _atom_site_hse06_ddec_sum_bond_order
 _atom_site_hse06_magmom
 _atom_site_pbe_bader_spin_density
 _atom_site_pbe_cm5_charge
 _atom_site_pbe_ddec_charge
 _atom_site_pbe_ddec_spin_density
 _atom_site_pbe_ddec_sum_bond_order
 _atom_site_pbe_magmom
Cu  Cu0  1  0.36297379  0.51230040  0.48717775  1  0  0.812776  0  1.867643  0  0  0.760271  0  2.293595  0  0  0.802978  0  2.228364  0  0  0.658439  0.733088  0  2.33788  0
Cu  Cu1  1  0.63709339  0.48768508  0.51282947  1  0  0.812602  0  1.86743  0  0  0.759969  0  2.293549  0  0  0.802613  0  2.228362  0  0  0.658356  0.732744  0  2.337842  0
H  H2  1  0.04825100  0.77882224  0.72933824  1  0  0.120984  0  0.969285  0  0  0.124159  0  1.041517  0  0  0.128043  0  1.038356  0  0  0.096162  0.121185  0  1.044313  0
H  H3  1  0.95174707  0.22117532  0.27066003  1  0  0.120897  0  0.969306  0  0  0.124095  0  1.041523  0  0  0.127982  0  1.038361  0  0  0.096155  0.12112  0  1.04432  0
H  H4  1  0.67508306  0.75140916  0.59992485  1  0  0.132044  0  0.946582  0  0  0.137757  0  1.011685  0  0  0.142134  0  1.008073  0  0  0.105269  0.134442  0  1.014719  0
H  H5  1  0.32491243  0.24858632  0.40007752  1  0  0.132093  0  0.946597  0  0  0.137784  0  1.011708  0  0  0.142164  0  1.00809  0  0  0.105287  0.134462  0  1.014759  0
H  H6  1  0.58195405  0.65372123  0.83862289  1  0  0.095268  0  0.995688  0  0  0.100033  0  1.071097  0  0  0.10272  0  1.070084  0  0  0.093463  0.098057  0  1.072243  0
H  H7  1  0.41803990  0.34627638  0.16138154  1  0  0.095298  0  0.995666  0  0  0.100076  0  1.071055  0  0  0.102763  0  1.07004  0  0  0.093496  0.098077  0  1.072224  0
H  H8  1  0.56243740  0.50764432  0.07309728  1  0  0.078515  0  0.94039  0  0  0.087071  0  1.01053  0  0  0.088958  0  1.008446  0  0  0.104063  0.084966  0  1.013333  0
H  H9  1  0.43756534  0.49234687  0.92690390  1  0  0.078484  0  0.940449  0  0  0.087023  0  1.010583  0  0  0.088906  0  1.008508  0  0  0.104074  0.084923  0  1.013368  0
H  H10  1  0.49848374  0.69185765  0.03898828  1  0  0.090571  0  0.930364  0  0  0.102797  0  0.991906  0  0  0.103554  0  0.992838  0  0  0.108793  0.102366  0  0.990913  0
H  H11  1  0.50150737  0.30813469  0.96101621  1  0  0.090548  0  0.930378  0  0  0.102773  0  0.991907  0  0  0.10353  0  0.992842  0  0  0.108795  0.102325  0  0.990929  0
H  H12  1  0.16822468  0.80066239  0.97932979  1  0  0.108711  0  1.006038  0  0  0.112364  0  1.080753  0  0  0.116033  0  1.07785  0  0  0.088771  0.109652  0  1.083213  0
H  H13  1  0.83176089  0.19935210  0.02064674  1  0  0.108787  0  1.006021  0  0  0.112374  0  1.080813  0  0  0.116043  0  1.077914  0  0  0.088765  0.109654  0  1.083291  0
H  H14  1  0.31266990  0.11383860  0.02442117  1  0  0.10449  0  0.970534  0  0  0.110355  0  1.040145  0  0  0.113211  0  1.038782  0  0  0.097683  0.108317  0  1.041218  0
H  H15  1  0.68732377  0.88616004  0.97557555  1  0  0.104474  0  0.970542  0  0  0.110361  0  1.040129  0  0  0.113218  0  1.038763  0  0  0.097638  0.108311  0  1.041229  0
H  H16  1  0.45781850  0.15206924  0.80842093  1  0  0.116018  0  0.950297  0  0  0.130093  0  1.002509  0  0  0.132122  0  1.002472  0  0  0.10854  0.128837  0  1.002187  0
H  H17  1  0.54218941  0.84792616  0.19158299  1  0  0.115951  0  0.950454  0  0  0.130025  0  1.002657  0  0  0.132053  0  1.002627  0  0  0.108498  0.128772  0  1.002328  0
H  H18  1  0.65902600  0.04517154  0.53793681  1  0  0.105509  0  0.950384  0  0  0.107848  0  1.024702  0  0  0.110232  0  1.022954  0  0  0.10935  0.106013  0  1.026179  0
H  H19  1  0.34098243  0.95482600  0.46207155  1  0  0.105627  0  0.950253  0  0  0.107932  0  1.02463  0  0  0.110306  0  1.022898  0  0  0.109386  0.106103  0  1.026083  0
H  H20  1  0.65678932  0.02802163  0.70782616  1  0  0.09186  0  0.938818  0  0  0.097017  0  1.010519  0  0  0.098024  0  1.01086  0  0  0.106138  0.096206  0  1.010418  0
H  H21  1  0.34320952  0.97198122  0.29217239  1  0  0.091858  0  0.938819  0  0  0.097022  0  1.010513  0  0  0.098036  0  1.010851  0  0  0.106133  0.09621  0  1.010409  0
H  H22  1  0.12885241  0.60108904  0.28265612  1  0  0.088066  0  0.939222  0  0  0.096098  0  1.002784  0  0  0.099208  0  1.000677  0  0  0.114124  0.093533  0  1.005026  0
H  H23  1  0.87116145  0.39891162  0.71735084  1  0  0.088141  0  0.939236  0  0  0.096193  0  1.002767  0  0  0.099301  0  1.000663  0  0  0.11417  0.093625  0  1.005007  0
H  H24  1  0.87517945  0.58314765  0.29574264  1  0  0.098865  0  0.951868  0  0  0.102137  0  1.021521  0  0  0.105797  0  1.01878  0  0  0.115975  0.099438  0  1.023655  0
H  H25  1  0.12483285  0.41685937  0.70426180  1  0  0.098852  0  0.951756  0  0  0.102144  0  1.021403  0  0  0.105812  0  1.018653  0  0  0.115962  0.099411  0  1.02357  0
C  C26  1  0.76077902  0.66037822  0.92161842  1  0  0.18798  0  3.84639  0  0  0.169088  0  4.115299  0  0  0.178837  0  4.131843  0  0  0.067608  0.162405  0  4.103966  0
C  C27  1  0.23921568  0.33962468  0.07838355  1  0  0.187778  0  3.846562  0  0  0.168949  0  4.115458  0  0  0.178696  0  4.131998  0  0  0.067555  0.162268  0  4.104123  0
C  C28  1  0.89358464  0.69483721  0.88793503  1  0  0.039007  0  3.811974  0  0  0.043679  0  4.090759  0  0  0.043786  0  4.11065  0  0  -0.00142  0.043103  0  4.078095  0
C  C29  1  0.10641136  0.30516462  0.11206719  1  0  0.039013  0  3.812016  0  0  0.043619  0  4.090865  0  0  0.043722  0  4.11077  0  0  -0.001409  0.043045  0  4.078196  0
C  C30  1  0.94627056  0.75151376  0.75334522  1  0  -0.177291  0  3.76733  0  0  -0.210964  0  4.023398  0  0  -0.211573  0  4.041796  0  0  -0.105357  -0.2104  0  4.011602  0
C  C31  1  0.05372570  0.24848700  0.24665469  1  0  -0.177159  0  3.767199  0  0  -0.210831  0  4.023303  0  0  -0.21145  0  4.041707  0  0  -0.105333  -0.210269  0  4.011512  0
C  C32  1  0.86580678  0.77276284  0.65035649  1  0  0.127635  0  3.810743  0  0  0.138891  0  4.080498  0  0  0.139904  0  4.10307  0  0  0.002138  0.137798  0  4.065452  0
C  C33  1  0.13418897  0.22723581  0.34964444  1  0  0.127648  0  3.810622  0  0  0.138897  0  4.0804  0  0  0.139909  0  4.102972  0  0  0.002103  0.1378  0  4.065361  0
C  C34  1  0.73601351  0.73627249  0.68083242  1  0  -0.095505  0  3.727053  0  0  -0.126708  0  3.99077  0  0  -0.125834  0  4.008108  0  0  -0.099294  -0.126968  0  3.979335  0
C  C35  1  0.26398094  0.26372722  0.31916825  1  0  -0.095563  0  3.727098  0  0  -0.126766  0  3.990872  0  0  -0.125883  0  4.008195  0  0  -0.099294  -0.127019  0  3.979431  0
C  C36  1  0.68401772  0.68055093  0.81646610  1  0  -0.171401  0  3.765267  0  0  -0.192289  0  4.029458  0  0  -0.197347  0  4.049861  0  0  -0.112529  -0.188865  0  4.015699  0
C  C37  1  0.31597751  0.31944984  0.18353580  1  0  -0.171403  0  3.765324  0  0  -0.192296  0  4.029466  0  0  -0.197349  0  4.049859  0  0  -0.112548  -0.188852  0  4.01572  0
C  C38  1  0.57696628  0.59298516  0.09421579  1  0  -0.041199  0  3.612576  0  0  -0.095723  0  3.866713  0  0  -0.092722  0  3.868043  0  0  -0.058416  -0.097435  0  3.865262  0
C  C39  1  0.42302818  0.40701033  0.90578765  1  0  -0.041134  0  3.612527  0  0  -0.095559  0  3.866614  0  0  -0.092569  0  3.867951  0  0  -0.058379  -0.097246  0  3.865148  0
C  C40  1  0.54629728  0.55410526  0.24691478  1  0  0.650323  0  3.858404  0  0  0.606921  0  4.162247  0  0  0.641317  0  4.155086  0  0  0.209652  0.584013  0  4.16539  0
C  C41  1  0.45370548  0.44588595  0.75309186  1  0  0.650257  0  3.858336  0  0  0.606768  0  4.162232  0  0  0.64117  0  4.155071  0  0  0.209541  0.583858  0  4.165372  0
C  C42  1  0.39774355  0.99819156  0.76910642  1  0  0.210361  0  3.803467  0  0  0.189312  0  4.076174  0  0  0.199811  0  4.092497  0  0  0.077674  0.182438  0  4.064454  0
C  C43  1  0.60225839  0.00180703  0.23088982  1  0  0.210425  0  3.80332  0  0  0.189499  0  4.075858  0  0  0.200007  0  4.092173  0  0  0.07774  0.182624  0  4.064143  0
C  C44  1  0.31441997  0.89894471  0.82062678  1  0  0.035204  0  3.790415  0  0  0.039564  0  4.069302  0  0  0.039294  0  4.089296  0  0  -0.001253  0.039221  0  4.056101  0
C  C45  1  0.68557393  0.10106132  0.17936483  1  0  0.035211  0  3.790324  0  0  0.03954  0  4.069161  0  0  0.039269  0  4.089148  0  0  -0.00122  0.039199  0  4.055954  0
C  C46  1  0.23209050  0.87713680  0.94273550  1  0  -0.193736  0  3.812285  0  0  -0.227419  0  4.070423  0  0  -0.228724  0  4.089646  0  0  -0.112882  -0.226176  0  4.057833  0
C  C47  1  0.76789276  0.12287879  0.05724733  1  0  -0.193735  0  3.812466  0  0  -0.227413  0  4.070596  0  0  -0.228716  0  4.089815  0  0  -0.112891  -0.22617  0  4.057999  0
C  C48  1  0.23187577  0.95467594  0.01588440  1  0  0.128317  0  3.825896  0  0  0.136826  0  4.099924  0  0  0.138269  0  4.121364  0  0  -0.00091  0.13531  0  4.085042  0
C  C49  1  0.76811371  0.04533539  0.98410198  1  0  0.128224  0  3.826202  0  0  0.136841  0  4.100072  0  0  0.138283  0  4.121511  0  0  -0.000823  0.135325  0  4.085184  0
C  C50  1  0.31341626  0.05313244  0.96749901  1  0  -0.111233  0  3.777787  0  0  -0.140916  0  4.042231  0  0  -0.140578  0  4.061306  0  0  -0.103044  -0.141078  0  4.029475  0
C  C51  1  0.68657584  0.94687254  0.03249245  1  0  -0.111248  0  3.777847  0  0  -0.140984  0  4.042275  0  0  -0.140645  0  4.06135  0  0  -0.10307  -0.141146  0  4.029513  0
C  C52  1  0.39563314  0.07409189  0.84513770  1  0  -0.152104  0  3.73128  0  0  -0.17187  0  3.987475  0  0  -0.17648  0  4.007637  0  0  -0.102555  -0.168614  0  3.97344  0
C  C53  1  0.60436802  0.92590987  0.15485636  1  0  -0.152045  0  3.731372  0  0  -0.171846  0  3.987534  0  0  -0.176466  0  4.007707  0  0  -0.1025  -0.168588  0  3.973498  0
C  C54  1  0.59303726  0.07342808  0.61871327  1  0  -0.0589  0  3.611265  0  0  -0.110783  0  3.867493  0  0  -0.108595  0  3.870221  0  0  -0.061556  -0.112411  0  3.865678  0
C  C55  1  0.40696107  0.92656844  0.38128906  1  0  -0.059075  0  3.611233  0  0  -0.11102  0  3.867436  0  0  -0.108849  0  3.870214  0  0  -0.061569  -0.112635  0  3.865619  0
C  C56  1  0.55571271  0.23526743  0.56647316  1  0  0.635982  0  3.872747  0  0  0.589466  0  4.183738  0  0  0.623316  0  4.177207  0  0  0.202289  0.566461  0  4.188086  0
C  C57  1  0.44429313  0.76472798  0.43352928  1  0  0.635935  0  3.872775  0  0  0.589618  0  4.183492  0  0  0.623473  0  4.176963  0  0  0.202322  0.566606  0  4.18785  0
C  C58  1  0.07067277  0.55580752  0.37993568  1  0  0.072618  0  3.695254  0  0  0.047277  0  3.951029  0  0  0.048501  0  3.969649  0  0  0.051963  0.04599  0  3.940098  0
C  C59  1  0.92933617  0.44419635  0.62007071  1  0  0.072558  0  3.695613  0  0  0.047235  0  3.951346  0  0  0.048456  0  3.969978  0  0  0.05194  0.045951  0  3.940399  0
C  C60  1  0.93131881  0.54641294  0.38702393  1  0  0.079083  0  3.65988  0  0  0.056734  0  3.908291  0  0  0.058208  0  3.926055  0  0  0.053211  0.055541  0  3.897415  0
C  C61  1  0.06868676  0.45359201  0.61298075  1  0  0.079059  0  3.659953  0  0  0.056652  0  3.908416  0  0  0.058121  0  3.926173  0  0  0.053226  0.055493  0  3.897553  0
N  N62  1  0.13948323  0.50968146  0.49262286  1  0  -0.252974  0  3.214501  0  0  -0.203537  0  3.492567  0  0  -0.213479  0  3.503821  0  0  -0.312774  -0.197344  0  3.486076  0
N  N63  1  0.86052389  0.49032136  0.50738157  1  0  -0.252986  0  3.214911  0  0  -0.203567  0  3.493023  0  0  -0.213524  0  3.504273  0  0  -0.312841  -0.197396  0  3.486576  0
Cl  Cl64  1  0.92817762  0.84834848  0.48181068  1  0  -0.088089  0  1.340486  0  0  -0.074662  0  1.565679  0  0  -0.077958  0  1.562558  0  0  -0.007647  -0.072372  0  1.568627  0
Cl  Cl65  1  0.07181449  0.15165229  0.51818720  1  0  -0.088141  0  1.34051  0  0  -0.074708  0  1.565722  0  0  -0.078002  0  1.562602  0  0  -0.007679  -0.07242  0  1.568678  0
Cl  Cl66  1  0.99103653  0.66407558  0.01840914  1  0  -0.0457  0  1.458149  0  0  -0.028615  0  1.710408  0  0  -0.032339  0  1.705718  0  0  0.034593  -0.026308  0  1.71435  0
Cl  Cl67  1  0.00895738  0.33593473  0.98159244  1  0  -0.045673  0  1.45814  0  0  -0.028564  0  1.710441  0  0  -0.032286  0  1.705758  0  0  0.034636  -0.026253  0  1.714376  0
Cl  Cl68  1  0.31575465  0.79827855  0.73393518  1  0  -0.039076  0  1.424535  0  0  -0.017054  0  1.671238  0  0  -0.020275  0  1.665101  0  0  0.041532  -0.013842  0  1.676002  0
Cl  Cl69  1  0.68424907  0.20172952  0.26605293  1  0  -0.039058  0  1.424529  0  0  -0.017048  0  1.671239  0  0  -0.020273  0  1.66511  0  0  0.041537  -0.013836  0  1.676003  0
Cl  Cl70  1  0.13002615  0.92624896  0.16827105  1  0  -0.068093  0  1.364182  0  0  -0.052767  0  1.598807  0  0  -0.056384  0  1.595319  0  0  0.006964  -0.0488  0  1.601161  0
Cl  Cl71  1  0.86995738  0.07376134  0.83171316  1  0  -0.068044  0  1.364298  0  0  -0.052765  0  1.598936  0  0  -0.056393  0  1.595466  0  0  0.006918  -0.04879  0  1.601267  0
O  O72  1  0.42834715  0.30258225  0.53697298  1  0  -0.554058  0  2.119683  0  0  -0.513374  0  2.394135  0  0  -0.5398  0  2.382384  0  0  -0.30078  -0.496312  0  2.402491  0
O  O73  1  0.57165067  0.69741641  0.46303488  1  0  -0.553945  0  2.11982  0  0  -0.513391  0  2.394315  0  0  -0.53976  0  2.38244  0  0  -0.300754  -0.49634  0  2.402675  0
O  O74  1  0.66058190  0.28269153  0.56019553  1  0  -0.567275  0  2.106295  0  0  -0.533197  0  2.38655  0  0  -0.559504  0  2.373633  0  0  -0.312749  -0.515617  0  2.395307  0
O  O75  1  0.33942368  0.71729646  0.43980384  1  0  -0.567236  0  2.106012  0  0  -0.533275  0  2.386227  0  0  -0.55959  0  2.373313  0  0  -0.31278  -0.515684  0  2.394992  0
O  O76  1  0.41764603  0.55122007  0.28873614  1  0  -0.565802  0  2.051115  0  0  -0.52365  0  2.317158  0  0  -0.550691  0  2.305072  0  0  -0.310627  -0.505345  0  2.324946  0
O  O77  1  0.58235161  0.44876281  0.71129421  1  0  -0.565869  0  2.05138  0  0  -0.523658  0  2.317416  0  0  -0.550705  0  2.305346  0  0  -0.310624  -0.505367  0  2.325204  0
O  O78  1  0.64948831  0.53025138  0.31411897  1  0  -0.549606  0  2.119913  0  0  -0.509452  0  2.394085  0  0  -0.534917  0  2.379995  0  0  -0.299332  -0.492216  0  2.402671  0
O  O79  1  0.35051258  0.46974718  0.68587016  1  0  -0.549601  0  2.119555  0  0  -0.509413  0  2.393756  0  0  -0.534873  0  2.379647  0  0  -0.299253  -0.492162  0  2.402334  0
O  O80  1  0.47508811  0.01300339  0.64877337  1  0  -0.231733  0  2.380575  0  0  -0.171331  0  2.620189  0  0  -0.188875  0  2.624816  0  0  -0.172511  -0.158794  0  2.616444  0
O  O81  1  0.52492033  0.98698141  0.35122873  1  0  -0.231706  0  2.380437  0  0  -0.171329  0  2.620022  0  0  -0.188872  0  2.624644  0  0  -0.172591  -0.158798  0  2.616278  0
O  O82  1  0.71871249  0.60837660  0.05675770  1  0  -0.24634  0  2.417532  0  0  -0.181248  0  2.657264  0  0  -0.197951  0  2.660599  0  0  -0.17871  -0.169249  0  2.653966  0
O  O83  1  0.28127912  0.39162633  0.94324752  1  0  -0.24617  0  2.417501  0  0  -0.181154  0  2.65725  0  0  -0.197858  0  2.660583  0  0  -0.178722  -0.169166  0  2.653946  0
