# generated using pymatgen
data_Zn3Si2H30(C16O5)2
_symmetry_space_group_name_H-M   'P 1'
_cell_length_a   6.24271217
_cell_length_b   12.22923299
_cell_length_c   14.28829544
_cell_angle_alpha   112.80562030
_cell_angle_beta   97.17571295
_cell_angle_gamma   103.65673797
_symmetry_Int_Tables_number   1
_chemical_formula_structural   Zn3Si2H30(C16O5)2
_chemical_formula_sum   'Zn3 Si2 H30 C32 O10'
_cell_volume   948.16649880
_cell_formula_units_Z   1
loop_
 _symmetry_equiv_pos_site_id
 _symmetry_equiv_pos_as_xyz
  1  'x, y, z'
loop_
 _atom_site_type_symbol
 _atom_site_label
 _atom_site_symmetry_multiplicity
 _atom_site_fract_x
 _atom_site_fract_y
 _atom_site_fract_z
 _atom_site_occupancy
 _atom_site_hle17_bader_spin_density
 _atom_site_hle17_ddec_charge
 _atom_site_hle17_ddec_spin_density
 _atom_site_hle17_ddec_sum_bond_order
 _atom_site_hle17_magmom
 _atom_site_hse06_10hf_bader_spin_density
 _atom_site_hse06_10hf_ddec_charge
 _atom_site_hse06_10hf_ddec_spin_density
 _atom_site_hse06_10hf_ddec_sum_bond_order
 _atom_site_hse06_10hf_magmom
 _atom_site_hse06_bader_spin_density
 _atom_site_hse06_ddec_charge
 _atom_site_hse06_ddec_spin_density
 _atom_site_hse06_ddec_sum_bond_order
 _atom_site_hse06_magmom
 _atom_site_pbe_bader_spin_density
 _atom_site_pbe_cm5_charge
 _atom_site_pbe_ddec_charge
 _atom_site_pbe_ddec_spin_density
 _atom_site_pbe_ddec_sum_bond_order
 _atom_site_pbe_magmom
Zn  Zn0  1  0.50000755  0.50000386  0.00000059  1  0  1.221195  0  1.800294  0  0  1.079086  0  2.258108  0  0  1.123833  0  2.195683  0  0  0.668188  1.047568  0  2.301132  0
Zn  Zn1  1  0.94674016  0.44423296  0.88271717  1  0  1.192153  0  1.703268  0  0  1.023717  0  2.176067  0  0  1.074141  0  2.109397  0  0  0.678357  0.987846  0  2.222531  0
Zn  Zn2  1  0.05327238  0.55577257  0.11727331  1  0  1.192212  0  1.703132  0  0  1.023741  0  2.175994  0  0  1.074165  0  2.109327  0  0  0.678393  0.987873  0  2.222456  0
Si  Si3  1  0.26954026  0.76112548  0.51550695  1  0  0.992276  0  3.420227  0  0  0.872828  0  3.806724  0  0  0.893406  0  3.800847  0  0  0.12673  0.858487  0  3.810619  0
Si  Si4  1  0.73044690  0.23887949  0.48449993  1  0  0.9922  0  3.420156  0  0  0.872744  0  3.806697  0  0  0.893315  0  3.800849  0  0  0.12674  0.858407  0  3.810579  0
H  H5  1  0.72995922  0.34957404  0.99286181  1  0  0.427826  0  0.832534  0  0  0.411772  0  0.881527  0  0  0.420597  0  0.869784  0  0  0.31332  0.405328  0  0.888261  0
H  H6  1  0.27005327  0.65043421  0.00712395  1  0  0.427922  0  0.832564  0  0  0.41187  0  0.881528  0  0  0.420703  0  0.869674  0  0  0.313356  0.405428  0  0.888253  0
H  H7  1  0.15815905  0.73944563  0.70252488  1  0  0.080215  0  0.954884  0  0  0.093201  0  1.012807  0  0  0.095555  0  1.012806  0  0  0.100192  0.091507  0  1.012914  0
H  H8  1  0.84184914  0.26055527  0.29747432  1  0  0.08018  0  0.954785  0  0  0.093135  0  1.012744  0  0  0.095489  0  1.012746  0  0  0.100165  0.091447  0  1.012843  0
H  H9  1  0.29317663  0.64807623  0.81621436  1  0  0.094227  0  0.953756  0  0  0.103423  0  1.015967  0  0  0.107171  0  1.012905  0  0  0.100351  0.100664  0  1.018326  0
H  H10  1  0.70681697  0.35191411  0.18377631  1  0  0.094219  0  0.953664  0  0  0.103468  0  1.015835  0  0  0.107219  0  1.012768  0  0  0.100338  0.10071  0  1.0182  0
H  H11  1  0.80020606  0.56634832  0.64574270  1  0  0.093619  0  0.967522  0  0  0.104491  0  1.031499  0  0  0.107112  0  1.030499  0  0  0.103859  0.102589  0  1.032292  0
H  H12  1  0.19980186  0.43365161  0.35425197  1  0  0.093631  0  0.967711  0  0  0.104546  0  1.03163  0  0  0.107167  0  1.03063  0  0  0.103903  0.102645  0  1.032419  0
H  H13  1  0.65838252  0.65183642  0.52791783  1  0  0.072809  0  0.997591  0  0  0.08602  0  1.06045  0  0  0.087913  0  1.061015  0  0  0.096553  0.084645  0  1.06013  0
H  H14  1  0.34162454  0.34817177  0.47207946  1  0  0.072627  0  0.997696  0  0  0.085946  0  1.060443  0  0  0.08787  0  1.060981  0  0  0.096521  0.084573  0  1.060116  0
H  H15  1  0.89862882  0.88226893  0.52076223  1  0  0.071576  0  1.000042  0  0  0.083636  0  1.064271  0  0  0.085545  0  1.06479  0  0  0.096284  0.082272  0  1.063987  0
H  H16  1  0.10134794  0.11771930  0.47925399  1  0  0.071597  0  0.999948  0  0  0.083604  0  1.064221  0  0  0.085513  0  1.06474  0  0  0.096268  0.08224  0  1.063939  0
H  H17  1  0.85799369  0.08052211  0.64416551  1  0  0.093699  0  0.964137  0  0  0.104325  0  1.028441  0  0  0.107048  0  1.027282  0  0  0.103831  0.102353  0  1.029353  0
H  H18  1  0.14197036  0.91946399  0.35585691  1  0  0.09349  0  0.964424  0  0  0.104235  0  1.028604  0  0  0.106958  0  1.027444  0  0  0.103864  0.102267  0  1.029512  0
H  H19  1  0.51188201  0.16545815  0.83995308  1  0  0.087529  0  0.956498  0  0  0.097635  0  1.018111  0  0  0.101348  0  1.015101  0  0  0.098333  0.09493  0  1.020398  0
H  H20  1  0.48811103  0.83453697  0.16006570  1  0  0.087494  0  0.956538  0  0  0.097684  0  1.01807  0  0  0.101369  0  1.015089  0  0  0.098359  0.094977  0  1.020358  0
H  H21  1  0.55645057  0.96894246  0.71616757  1  0  0.081362  0  0.95223  0  0  0.093706  0  1.01029  0  0  0.096065  0  1.010342  0  0  0.100435  0.092009  0  1.010351  0
H  H22  1  0.44354702  0.03105998  0.28383216  1  0  0.081239  0  0.952262  0  0  0.093618  0  1.010304  0  0  0.095979  0  1.010358  0  0  0.100405  0.091912  0  1.010362  0
H  H23  1  0.54043670  0.72161657  0.40109970  1  0  0.150094  0  0.979639  0  0  0.168038  0  1.039438  0  0  0.169821  0  1.040041  0  0  0.091147  0.166775  0  1.038993  0
H  H24  1  0.45955510  0.27839029  0.59889759  1  0  0.150033  0  0.979628  0  0  0.168001  0  1.039412  0  0  0.169782  0  1.040017  0  0  0.091131  0.166741  0  1.038961  0
H  H25  1  0.58439745  0.88527511  0.46812025  1  0  0.152167  0  0.986318  0  0  0.171762  0  1.042752  0  0  0.173132  0  1.04458  0  0  0.090533  0.170755  0  1.041509  0
H  H26  1  0.41559770  0.11473553  0.53188057  1  0  0.152199  0  0.986393  0  0  0.171808  0  1.042791  0  0  0.173175  0  1.044622  0  0  0.090557  0.1708  0  1.041549  0
H  H27  1  0.34801899  0.78885841  0.36049599  1  0  0.15939  0  0.985245  0  0  0.176904  0  1.045719  0  0  0.179244  0  1.045732  0  0  0.093119  0.175189  0  1.045797  0
H  H28  1  0.65196754  0.21115107  0.63950321  1  0  0.159422  0  0.985256  0  0  0.176911  0  1.045731  0  0  0.179249  0  1.045745  0  0  0.093124  0.175195  0  1.045812  0
H  H29  1  0.02872288  0.57622215  0.35781902  1  0  0.159553  0  0.985031  0  0  0.176771  0  1.045844  0  0  0.179006  0  1.046053  0  0  0.09288  0.175145  0  1.045762  0
H  H30  1  0.97129331  0.42379083  0.64217270  1  0  0.159606  0  0.985011  0  0  0.176811  0  1.045816  0  0  0.179048  0  1.046022  0  0  0.092906  0.175185  0  1.045738  0
H  H31  1  0.88250092  0.68656669  0.39802091  1  0  0.150893  0  0.978237  0  0  0.168486  0  1.038875  0  0  0.170496  0  1.039204  0  0  0.090788  0.167069  0  1.038617  0
H  H32  1  0.11749432  0.31343381  0.60197384  1  0  0.150919  0  0.978163  0  0  0.168489  0  1.038814  0  0  0.170498  0  1.039143  0  0  0.090781  0.167072  0  1.038552  0
H  H33  1  0.90044876  0.58977193  0.46387567  1  0  0.151608  0  0.982594  0  0  0.171402  0  1.038475  0  0  0.172808  0  1.040225  0  0  0.090049  0.170357  0  1.037303  0
H  H34  1  0.09955007  0.41021850  0.53610835  1  0  0.151572  0  0.982635  0  0  0.17133  0  1.038555  0  0  0.172732  0  1.040315  0  0  0.089994  0.170293  0  1.03737  0
C  C35  1  0.39605790  0.70080101  0.60493479  1  0  -0.275462  0  3.73373  0  0  -0.230911  0  3.97916  0  0  -0.236364  0  4.002116  0  0  -0.055292  -0.226959  0  3.963361  0
C  C36  1  0.60392790  0.29920016  0.39506098  1  0  -0.275423  0  3.733495  0  0  -0.23087  0  3.978911  0  0  -0.236321  0  4.001875  0  0  -0.055284  -0.22691  0  3.963102  0
C  C37  1  0.29775245  0.70043195  0.68843339  1  0  -0.052888  0  3.785618  0  0  -0.070333  0  4.031022  0  0  -0.073115  0  4.053665  0  0  -0.081376  -0.068416  0  4.015453  0
C  C38  1  0.70224470  0.29956956  0.31156601  1  0  -0.052873  0  3.78562  0  0  -0.070289  0  4.031036  0  0  -0.073073  0  4.053682  0  0  -0.081353  -0.068372  0  4.01546  0
C  C39  1  0.37434786  0.65065587  0.75360501  1  0  -0.059675  0  3.728832  0  0  -0.082515  0  3.97561  0  0  -0.082436  0  3.99597  0  0  -0.0823  -0.082391  0  3.961738  0
C  C40  1  0.62564103  0.34933160  0.24638653  1  0  -0.059588  0  3.728732  0  0  -0.082477  0  3.975495  0  0  -0.082392  0  3.995857  0  0  -0.082248  -0.082353  0  3.961635  0
C  C41  1  0.55573824  0.60158609  0.73844256  1  0  -0.072676  0  3.761564  0  0  -0.048263  0  3.989399  0  0  -0.057233  0  4.013343  0  0  -0.019821  -0.042362  0  3.973156  0
C  C42  1  0.44426066  0.39841174  0.26154946  1  0  -0.072788  0  3.761677  0  0  -0.048352  0  3.989521  0  0  -0.057338  0  4.013479  0  0  -0.019865  -0.042452  0  3.973291  0
C  C43  1  0.65914012  0.60420333  0.65750065  1  0  -0.072685  0  3.727248  0  0  -0.096375  0  3.97429  0  0  -0.096036  0  3.994745  0  0  -0.085738  -0.096411  0  3.960379  0
C  C44  1  0.34084747  0.39579417  0.34248705  1  0  -0.072632  0  3.727435  0  0  -0.096383  0  3.974487  0  0  -0.096037  0  3.994946  0  0  -0.085716  -0.096419  0  3.960576  0
C  C45  1  0.57859131  0.65267600  0.59157341  1  0  -0.051392  0  3.799046  0  0  -0.069784  0  4.043191  0  0  -0.072718  0  4.066537  0  0  -0.085713  -0.06785  0  4.027375  0
C  C46  1  0.42139897  0.34733079  0.40842096  1  0  -0.051208  0  3.798757  0  0  -0.069674  0  4.042909  0  0  -0.072636  0  4.066237  0  0  -0.085702  -0.067741  0  4.027088  0
C  C47  1  0.63060710  0.54472877  0.80710705  1  0  0.681234  0  3.873238  0  0  0.63459  0  4.15531  0  0  0.670722  0  4.146499  0  0  0.224338  0.609968  0  4.160508  0
C  C48  1  0.36941496  0.45527338  0.19288644  1  0  0.681369  0  3.873374  0  0  0.634721  0  4.155446  0  0  0.670858  0  4.146627  0  0  0.224378  0.610096  0  4.160657  0
C  C49  1  0.23022488  0.91029829  0.60826982  1  0  -0.274758  0  3.727048  0  0  -0.230483  0  3.97228  0  0  -0.235875  0  3.995067  0  0  -0.054295  -0.226571  0  3.956625  0
C  C50  1  0.76977912  0.08969152  0.39173534  1  0  -0.274947  0  3.726827  0  0  -0.230695  0  3.972035  0  0  -0.236079  0  3.994806  0  0  -0.054429  -0.226788  0  3.956387  0
C  C51  1  0.03452674  0.94389202  0.59041098  1  0  -0.051304  0  3.797676  0  0  -0.067905  0  4.040588  0  0  -0.07087  0  4.063813  0  0  -0.083766  -0.066007  0  4.024881  0
C  C52  1  0.96546594  0.05609845  0.40960067  1  0  -0.051273  0  3.797587  0  0  -0.067796  0  4.04051  0  0  -0.070758  0  4.063736  0  0  -0.083795  -0.065903  0  4.024815  0
C  C53  1  0.01000033  0.05503962  0.65961353  1  0  -0.073408  0  3.728112  0  0  -0.097128  0  3.975287  0  0  -0.096741  0  3.995638  0  0  -0.085109  -0.097205  0  3.961493  0
C  C54  1  0.98996324  0.94494185  0.34040456  1  0  -0.072914  0  3.728095  0  0  -0.096749  0  3.975243  0  0  -0.09636  0  3.995594  0  0  -0.084911  -0.096828  0  3.961455  0
C  C55  1  0.18134183  0.13519112  0.75046500  1  0  -0.068979  0  3.758142  0  0  -0.043554  0  3.985634  0  0  -0.052589  0  4.009784  0  0  -0.020322  -0.03764  0  3.969284  0
C  C56  1  0.81863524  0.86480078  0.24954892  1  0  -0.069403  0  3.758471  0  0  -0.043995  0  3.986091  0  0  -0.053033  0  4.010235  0  0  -0.020559  -0.038083  0  3.96975  0
C  C57  1  0.37809425  0.10275624  0.76963121  1  0  -0.062535  0  3.732085  0  0  -0.0856  0  3.978009  0  0  -0.085725  0  3.998724  0  0  -0.083558  -0.085337  0  3.963914  0
C  C58  1  0.62189621  0.89722957  0.23037809  1  0  -0.062249  0  3.732272  0  0  -0.085404  0  3.978226  0  0  -0.085505  0  3.998947  0  0  -0.083523  -0.085152  0  3.964129  0
C  C59  1  0.40218284  0.99243132  0.69940523  1  0  -0.046393  0  3.783189  0  0  -0.063696  0  4.029159  0  0  -0.066381  0  4.051806  0  0  -0.078899  -0.061851  0  4.013598  0
C  C60  1  0.59780825  0.00755810  0.30059478  1  0  -0.046261  0  3.782859  0  0  -0.06357  0  4.028815  0  0  -0.066257  0  4.05146  0  0  -0.078791  -0.061705  0  4.013235  0
C  C61  1  0.15775038  0.25412693  0.82619366  1  0  0.675465  0  3.873326  0  0  0.625937  0  4.159724  0  0  0.662005  0  4.151252  0  0  0.219402  0.601318  0  4.164732  0
C  C62  1  0.84226271  0.74587880  0.17382142  1  0  0.675493  0  3.873867  0  0  0.625947  0  4.160263  0  0  0.662016  0  4.151792  0  0  0.219378  0.601332  0  4.165257  0
C  C63  1  0.45554353  0.79311390  0.42963877  1  0  -0.693018  0  3.601187  0  0  -0.731873  0  3.822104  0  0  -0.741802  0  3.82756  0  0  -0.297439  -0.724731  0  3.818236  0
C  C64  1  0.54444734  0.20689480  0.57036325  1  0  -0.693012  0  3.601328  0  0  -0.731859  0  3.822267  0  0  -0.741778  0  3.827732  0  0  -0.29743  -0.724721  0  3.818406  0
C  C65  1  0.99341935  0.64302527  0.42702174  1  0  -0.692818  0  3.600366  0  0  -0.731999  0  3.823575  0  0  -0.741993  0  3.828946  0  0  -0.2958  -0.724821  0  3.819753  0
C  C66  1  0.00658519  0.35698100  0.57297407  1  0  -0.692832  0  3.600242  0  0  -0.731947  0  3.823485  0  0  -0.74194  0  3.828863  0  0  -0.295747  -0.724778  0  3.819654  0
O  O67  1  0.78664401  0.43228805  0.99557024  1  0  -0.99335  0  1.948403  0  0  -0.897597  0  2.263808  0  0  -0.930033  0  2.220132  0  0  -0.556351  -0.87449  0  2.291899  0
O  O68  1  0.21337167  0.56772030  0.00441785  1  0  -0.993467  0  1.948347  0  0  -0.897737  0  2.263884  0  0  -0.930178  0  2.220057  0  0  -0.556385  -0.874636  0  2.29197  0
O  O69  1  0.49976419  0.51986770  0.86173059  1  0  -0.654334  0  2.100833  0  0  -0.592714  0  2.362212  0  0  -0.620634  0  2.348144  0  0  -0.314116  -0.573296  0  2.371321  0
O  O70  1  0.50028344  0.48013797  0.13827337  1  0  -0.654478  0  2.100867  0  0  -0.592868  0  2.362251  0  0  -0.620789  0  2.348179  0  0  -0.314211  -0.573447  0  2.371369  0
O  O71  1  0.82346717  0.52335549  0.80407096  1  0  -0.664051  0  2.046697  0  0  -0.587657  0  2.31911  0  0  -0.617552  0  2.300573  0  0  -0.322926  -0.566773  0  2.331285  0
O  O72  1  0.17654884  0.47663899  0.19590076  1  0  -0.664104  0  2.046826  0  0  -0.587728  0  2.31926  0  0  -0.617625  0  2.300726  0  0  -0.322946  -0.566839  0  2.331436  0
O  O73  1  0.99143984  0.28804490  0.79562411  1  0  -0.658008  0  2.052505  0  0  -0.580255  0  2.32625  0  0  -0.610454  0  2.30894  0  0  -0.317936  -0.559178  0  2.337627  0
O  O74  1  0.00856789  0.71195606  0.20438559  1  0  -0.657935  0  2.052657  0  0  -0.58014  0  2.326385  0  0  -0.610341  0  2.309076  0  0  -0.317855  -0.559067  0  2.337757  0
O  O75  1  0.29765312  0.31344154  0.91468926  1  0  -0.660536  0  2.065502  0  0  -0.599521  0  2.319691  0  0  -0.626486  0  2.304971  0  0  -0.323845  -0.580679  0  2.329258  0
O  O76  1  0.70240027  0.68656614  0.08531711  1  0  -0.660655  0  2.065871  0  0  -0.599642  0  2.320073  0  0  -0.626601  0  2.305341  0  0  -0.323897  -0.580802  0  2.32963  0
