# generated using pymatgen
data_Zn4H29C48Br5(NO4)4
_symmetry_space_group_name_H-M   'P 1'
_cell_length_a   9.63867025
_cell_length_b   11.04784739
_cell_length_c   21.98197424
_cell_angle_alpha   90.49241861
_cell_angle_beta   88.95041279
_cell_angle_gamma   90.24824694
_symmetry_Int_Tables_number   1
_chemical_formula_structural   Zn4H29C48Br5(NO4)4
_chemical_formula_sum   'Zn4 H29 C48 Br5 N4 O16'
_cell_volume   2340.28518873
_cell_formula_units_Z   1
loop_
 _symmetry_equiv_pos_site_id
 _symmetry_equiv_pos_as_xyz
  1  'x, y, z'
loop_
 _atom_site_type_symbol
 _atom_site_label
 _atom_site_symmetry_multiplicity
 _atom_site_fract_x
 _atom_site_fract_y
 _atom_site_fract_z
 _atom_site_occupancy
 _atom_site_pbe_bader_charge
 _atom_site_pbe_bader_spin_density
 _atom_site_pbe_cm5_charge
 _atom_site_pbe_ddec_charge
 _atom_site_pbe_ddec_spin_density
 _atom_site_pbe_ddec_sum_bond_order
 _atom_site_pbe_magmom
Zn  Zn0  1  0.64233426  0.49521412  0.49833609  1  1.284584  0  0.664275  0.824461  0  2.412823  0
Zn  Zn1  1  0.35944112  0.50139380  0.49814024  1  1.260846  0  0.66873  0.810017  0  2.446656  0
Zn  Zn2  1  0.35646452  0.49583863  0.00014014  1  1.287154  0  0.661002  0.819743  0  2.413624  0
Zn  Zn3  1  0.63973257  0.50588319  0.99507114  1  1.291587  0  0.67078  0.809639  0  2.460586  0
H  H4  1  0.12066679  0.64310818  0.56067444  1  0.15501  0  0.1421  0.123529  0  0.964564  0
H  H5  1  0.15011971  0.35263878  0.43982783  1  0.187772  0  0.131637  0.128309  0  0.992298  0
H  H6  1  0.85533347  0.62907850  0.55767709  1  0.170711  0  0.143364  0.128323  0  0.959288  0
H  H7  1  0.72575758  0.89780393  0.49792361  1  0.096629  0  0.105233  0.110164  0  0.996561  0
H  H8  1  0.28140833  0.87294119  0.50567347  1  0.141206  0  0.102789  0.11749  0  1.014325  0
H  H9  1  0.70727735  0.12412280  0.50134103  1  0.108716  0  0.093438  0.094538  0  1.049295  0
H  H10  1  0.66890777  0.33939381  0.86016945  1  0.08976  0  0.094224  0.111889  0  1.037982  0
H  H11  1  0.67128944  0.33411185  0.63438969  1  0.034827  0  0.094372  0.110771  0  1.038471  0
H  H12  1  0.28461097  0.48555728  0.19311409  1  0.109413  0  0.096935  0.099407  0  1.03254  0
H  H13  1  0.72695136  0.53375115  0.18784446  1  0.091208  0  0.104131  0.120667  0  1.004855  0
H  H14  1  0.28924168  0.48818502  0.30726322  1  0.126732  0  0.105677  0.112484  0  0.998071  0
H  H15  1  0.88416290  0.62762585  0.92515604  1  0.159711  0  0.145363  0.128963  0  0.949058  0
H  H16  1  0.84264943  0.38294578  0.06690291  1  0.185425  0  0.131852  0.126664  0  0.995662  0
H  H17  1  0.14885205  0.61321582  0.93157946  1  0.185116  0  0.140146  0.121387  0  0.985229  0
H  H18  1  0.27314515  0.89862919  0.98976478  1  0.09252  0  0.105505  0.110302  0  0.998337  0
H  H19  1  0.71567432  0.87514974  0.00350140  1  0.110823  0  0.103817  0.119916  0  1.013171  0
H  H20  1  0.29318768  0.12512617  0.98922909  1  0.10769  0  0.102964  0.108422  0  1.011401  0
H  H21  1  0.34432488  0.76939847  0.69902071  1  0.031249  0  0.091307  0.124085  0  1.001513  0
H  H22  1  0.34479241  0.67541729  0.63323990  1  0.064579  0  0.088256  0.130995  0  1.036639  0
H  H23  1  0.21389957  0.65837639  0.69042803  1  0.03907  0  0.089593  0.12107  0  0.994666  0
H  H24  1  0.21085764  0.66040016  0.80638717  1  0.01338  0  0.089779  0.120926  0  0.993679  0
H  H25  1  0.33942921  0.68040031  0.86266861  1  0.01886  0  0.088243  0.128382  0  1.035912  0
H  H26  1  0.34147603  0.77110666  0.79653231  1  0.063082  0  0.092289  0.125226  0  1.000704  0
H  H27  1  0.95721774  0.19117669  0.80326029  1  0.007365  0  0.090181  0.123298  0  0.992678  0
H  H28  1  0.83060393  0.18530528  0.86315516  1  0.007686  0  0.080736  0.117127  0  1.036952  0
H  H29  1  0.82580263  0.07967729  0.80173451  1  0.017176  0  0.089122  0.12096  0  0.997122  0
H  H30  1  0.82666538  0.07694288  0.69192348  1  0.045646  0  0.089625  0.120419  0  0.999908  0
H  H31  1  0.83202275  0.17987716  0.63012177  1  0.045328  0  0.087659  0.124416  0  1.004928  0
H  H32  1  0.95831251  0.18825585  0.68814952  1  0.049003  0  0.090399  0.122346  0  0.998579  0
C  C33  1  0.50922168  0.73578824  0.50044166  1  1.53365  0  0.216719  0.593828  0  4.156965  0
C  C34  1  0.50071310  0.50291039  0.61588692  1  1.572708  0  0.219748  0.619422  0  4.143008  0
C  C35  1  0.48865700  0.26307003  0.50083593  1  1.564167  0  0.214355  0.604904  0  4.151133  0
C  C36  1  0.49970867  0.50656077  0.38028883  1  1.613114  0  0.21508  0.60637  0  4.152404  0
C  C37  1  0.48794558  0.73752597  0.99868685  1  1.568661  0  0.216484  0.594745  0  4.155866  0
C  C38  1  0.49431199  0.50819711  0.87956049  1  1.512357  0  0.220458  0.618568  0  4.14685  0
C  C39  1  0.51241994  0.26466563  0.99403897  1  1.520894  0  0.21496  0.604031  0  4.158755  0
C  C40  1  0.50572979  0.50167489  0.11565002  1  1.560656  0  0.218049  0.600424  0  4.15031  0
C  C41  1  0.93877258  0.40722697  0.46445160  1  0.484264  0  0.133335  0.199803  0  3.952303  0
C  C42  1  0.06660984  0.57617851  0.53308980  1  0.513808  0  0.074452  0.049728  0  3.861061  0
C  C43  1  0.08387060  0.41498122  0.46554412  1  0.604807  0  0.068837  0.01618  0  3.868102  0
C  C44  1  0.92292641  0.56855693  0.53141984  1  0.454492  0  0.08007  0.080729  0  3.842485  0
C  C45  1  0.48562569  0.12708739  0.50286365  1  0.090391  0  -0.014554  -0.067688  0  3.903161  0
C  C46  1  0.50407896  0.87160957  0.50148538  1  -0.026899  0  -0.010359  -0.002951  0  3.951175  0
C  C47  1  0.36540327  0.05428311  0.50452275  1  -0.147792  0  -0.005904  0.109155  0  3.907328  0
C  C48  1  0.62501558  0.94212606  0.50011138  1  -0.001517  0  -0.084519  -0.097543  0  3.975572  0
C  C49  1  0.37479082  0.92853363  0.50417011  1  0.078517  0  -0.091158  -0.150763  0  3.965613  0
C  C50  1  0.61457675  0.06740185  0.50156247  1  -0.114147  0  -0.08409  -0.08003  0  3.972386  0
C  C51  1  0.49469123  0.50742424  0.81140373  1  0.044434  0  -0.017767  -0.134661  0  3.927033  0
C  C52  1  0.58372103  0.42357060  0.78010435  1  0.029959  0  -0.010411  0.056332  0  4.021092  0
C  C53  1  0.41152174  0.58786469  0.78041050  1  0.023484  0  -0.010466  0.087455  0  3.931291  0
C  C54  1  0.66956021  0.34006780  0.81056777  1  -0.027986  0  -0.104271  -0.205704  0  3.957771  0
C  C55  1  0.75527332  0.25975485  0.77948812  1  -0.113867  0  -0.01559  0.111251  0  3.966242  0
C  C56  1  0.49821652  0.50503939  0.68407120  1  -0.063871  0  -0.016981  -0.13398  0  3.925026  0
C  C57  1  0.41328530  0.58673727  0.71533411  1  -0.01817  0  -0.009261  0.090994  0  3.928263  0
C  C58  1  0.58509114  0.42230145  0.71508030  1  -0.061427  0  -0.009905  0.058365  0  4.020493  0
C  C59  1  0.67142736  0.33721316  0.68398615  1  0.050279  0  -0.103706  -0.203767  0  3.959124  0
C  C60  1  0.75601216  0.25819884  0.71439788  1  0.028985  0  -0.016058  0.10965  0  3.9699  0
C  C61  1  0.50904226  0.51198991  0.31209084  1  0.004301  0  -0.014373  -0.068047  0  3.910265  0
C  C62  1  0.50611042  0.50650958  0.18374247  1  -0.049995  0  -0.010498  -0.001124  0  3.955856  0
C  C63  1  0.63235442  0.52741554  0.27752909  1  -0.054212  0  -0.005887  0.1089  0  3.90735  0
C  C64  1  0.38174700  0.49576221  0.21720533  1  -0.034758  0  -0.087289  -0.099805  0  3.984964  0
C  C65  1  0.63099469  0.52295222  0.21413341  1  0.023982  0  -0.090978  -0.154073  0  3.964052  0
C  C66  1  0.38452435  0.49766054  0.28028618  1  -0.066998  0  -0.080304  -0.078589  0  3.969145  0
C  C67  1  0.05627284  0.42545081  0.03949812  1  0.543492  0  0.134827  0.200231  0  3.947583  0
C  C68  1  0.93549506  0.57061514  0.95801740  1  0.525914  0  0.076116  0.049503  0  3.861041  0
C  C69  1  0.91159485  0.43380660  0.03668858  1  0.554778  0  0.07011  0.017694  0  3.869542  0
C  C70  1  0.07882251  0.56243726  0.96139813  1  0.408262  0  0.079789  0.081408  0  3.845552  0
C  C71  1  0.51440555  0.12855869  0.99420750  1  0.135429  0  -0.015031  -0.070895  0  3.909511  0
C  C72  1  0.49385662  0.87324454  0.99642835  1  -0.007128  0  -0.009821  -0.001575  0  3.950341  0
C  C73  1  0.63375464  0.05614701  0.99784537  1  -0.153461  0  -0.004924  0.109032  0  3.905955  0
C  C74  1  0.37392340  0.94331502  0.99200676  1  0.009155  0  -0.08532  -0.101778  0  3.984538  0
C  C75  1  0.62327339  0.93046534  0.99942675  1  0.005555  0  -0.091522  -0.152819  0  3.966085  0
C  C76  1  0.38524038  0.06859742  0.99149047  1  -0.068645  0  -0.080308  -0.076832  0  3.967676  0
C  C77  1  0.32522766  0.67672467  0.68244012  1  -0.084568  0  -0.241578  -0.401068  0  3.981014  0
C  C78  1  0.32177273  0.67926359  0.81361924  1  -0.041219  0  -0.241011  -0.39859  0  3.980846  0
C  C79  1  0.84652250  0.17492324  0.81383027  1  -0.001725  0  -0.2398  -0.39756  0  3.988033  0
C  C80  1  0.84770846  0.17156105  0.67924300  1  -0.102772  0  -0.237589  -0.39832  0  3.996378  0
Br  Br81  1  0.86044205  0.28402325  0.41680586  1  0.072939  0  0.12428  0.036472  0  1.512792  0
Br  Br82  1  0.18012418  0.11560144  0.51015348  1  -0.072629  0  0.005807  -0.094544  0  1.444125  0
Br  Br83  1  0.80894094  0.56302926  0.31177346  1  -0.065786  0  -0.002615  -0.088858  0  1.419236  0
Br  Br84  1  0.13014193  0.31977584  0.09685252  1  0.065037  0  0.124442  0.036791  0  1.450092  0
Br  Br85  1  0.81912573  0.11783073  0.00366774  1  -0.069776  0  0.012124  -0.091569  0  1.462013  0
N  N86  1  0.85941548  0.48428538  0.49669294  1  -1.20866  0  -0.29186  -0.19141  0  3.463017  0
N  N87  1  0.14517409  0.49934024  0.49962889  1  -1.191697  0  -0.289585  -0.119511  0  3.500255  0
N  N88  1  0.13878760  0.48975214  0.00233026  1  -1.196697  0  -0.290652  -0.187419  0  3.456181  0
N  N89  1  0.85387837  0.50618357  0.99610570  1  -1.220893  0  -0.290313  -0.119716  0  3.498001  0
O  O90  1  0.62516877  0.68522240  0.48910602  1  -1.159988  0  -0.315678  -0.545131  0  2.278398  0
O  O91  1  0.39406431  0.68158905  0.51121814  1  -1.171125  0  -0.319249  -0.554357  0  2.353523  0
O  O92  1  0.38846731  0.47488979  0.58939220  1  -1.156695  0  -0.317267  -0.544912  0  2.294873  0
O  O93  1  0.61560680  0.52892393  0.58914983  1  -1.161576  0  -0.31875  -0.553326  0  2.320746  0
O  O94  1  0.38152775  0.31801958  0.48271976  1  -1.165673  0  -0.317802  -0.546404  0  2.376719  0
O  O95  1  0.60179547  0.31398818  0.51616804  1  -1.169039  0  -0.317345  -0.55701  0  2.360121  0
O  O96  1  0.60888390  0.47748567  0.40829630  1  -1.158167  0  -0.321304  -0.559715  0  2.455985  0
O  O97  1  0.38194681  0.52798435  0.40512657  1  -1.164887  0  -0.317585  -0.537836  0  2.286202  0
O  O98  1  0.37212889  0.68530622  0.98909129  1  -1.167204  0  -0.316594  -0.554481  0  2.290978  0
O  O99  1  0.60170387  0.68483996  0.01027417  1  -1.167651  0  -0.319976  -0.544381  0  2.336094  0
O  O100  1  0.60853496  0.53444800  0.90501721  1  -1.161191  0  -0.317993  -0.550236  0  2.319647  0
O  O101  1  0.38095592  0.48176966  0.90739039  1  -1.155885  0  -0.318133  -0.548357  0  2.299364  0
O  O102  1  0.62419520  0.32145590  0.98149451  1  -1.159669  0  -0.315828  -0.545613  0  2.38779  0
O  O103  1  0.39585986  0.31353346  0.00659125  1  -1.163925  0  -0.319842  -0.557925  0  2.384331  0
O  O104  1  0.38991647  0.52077848  0.09047096  1  -1.159825  0  -0.318945  -0.5511  0  2.359922  0
O  O105  1  0.62006080  0.47874839  0.08800025  1  -1.168534  0  -0.317018  -0.546326  0  2.316552  0
