# generated using pymatgen
data_ZnP2H10C4(N3O4)2
_symmetry_space_group_name_H-M   'P 1'
_cell_length_a   8.43927168
_cell_length_b   9.52087375
_cell_length_c   15.58162246
_cell_angle_alpha   90.00005106
_cell_angle_beta   89.99998448
_cell_angle_gamma   89.99983828
_symmetry_Int_Tables_number   1
_chemical_formula_structural   ZnP2H10C4(N3O4)2
_chemical_formula_sum   'Zn4 P8 H40 C16 N24 O32'
_cell_volume   1251.97152541
_cell_formula_units_Z   4
loop_
 _symmetry_equiv_pos_site_id
 _symmetry_equiv_pos_as_xyz
  1  'x, y, z'
loop_
 _atom_site_type_symbol
 _atom_site_label
 _atom_site_symmetry_multiplicity
 _atom_site_fract_x
 _atom_site_fract_y
 _atom_site_fract_z
 _atom_site_occupancy
 _atom_site_pbe_bader_spin_density
 _atom_site_pbe_cm5_charge
 _atom_site_pbe_ddec_charge
 _atom_site_pbe_ddec_spin_density
 _atom_site_pbe_ddec_sum_bond_order
 _atom_site_pbe_magmom
Zn  Zn0  1  0.50000009  0.21319533  0.24999902  1  0  0.717252  0.803009  0  2.454289  0
Zn  Zn1  1  0.99999915  0.28680281  0.75000021  1  0  0.717267  0.803012  0  2.454225  0
Zn  Zn2  1  0.49999905  0.78680586  0.74999974  1  0  0.717257  0.803014  0  2.454309  0
Zn  Zn3  1  0.99999979  0.71319713  0.25000040  1  0  0.717268  0.803006  0  2.454288  0
P  P4  1  0.70807143  0.20385544  0.05365937  1  0  0.434139  1.539173  0  5.386054  0
P  P5  1  0.79193029  0.29614450  0.55365931  1  0  0.434137  1.539158  0  5.386113  0
P  P6  1  0.29192997  0.20385730  0.44633930  1  0  0.43414  1.539268  0  5.385999  0
P  P7  1  0.20807056  0.29614237  0.94634054  1  0  0.4341  1.53916  0  5.386127  0
P  P8  1  0.29192890  0.79614259  0.94634003  1  0  0.434084  1.539117  0  5.386166  0
P  P9  1  0.20807122  0.70385563  0.44634073  1  0  0.434132  1.539132  0  5.3861  0
P  P10  1  0.70806799  0.79614284  0.55366009  1  0  0.434091  1.539127  0  5.386171  0
P  P11  1  0.79192976  0.70385777  0.05366014  1  0  0.434115  1.539185  0  5.386129  0
H  H12  1  0.02535016  0.95991719  0.10294910  1  0  0.145941  0.126594  0  1.01548  0
H  H13  1  0.47464895  0.54008683  0.60294823  1  0  0.14596  0.12662  0  1.015455  0
H  H14  1  0.97465238  0.95991517  0.39705063  1  0  0.14592  0.12656  0  1.015465  0
H  H15  1  0.52534757  0.54008488  0.89704982  1  0  0.145905  0.126514  0  1.015444  0
H  H16  1  0.97465135  0.04008189  0.89705030  1  0  0.145907  0.126506  0  1.01544  0
H  H17  1  0.52534782  0.45991436  0.39704924  1  0  0.145915  0.126539  0  1.015404  0
H  H18  1  0.02535150  0.04008602  0.60294877  1  0  0.145945  0.126599  0  1.015486  0
H  H19  1  0.47465394  0.45991736  0.10294893  1  0  0.145916  0.126558  0  1.01546  0
H  H20  1  0.34729625  0.88909676  0.30511478  1  0  0.139324  0.110088  0  1.016531  0
H  H21  1  0.15270276  0.61090546  0.80511464  1  0  0.139344  0.110129  0  1.016558  0
H  H22  1  0.65270059  0.88909630  0.19488683  1  0  0.139323  0.110086  0  1.016577  0
H  H23  1  0.84729827  0.61090451  0.69488666  1  0  0.139351  0.110128  0  1.016568  0
H  H24  1  0.65269934  0.11090338  0.69488526  1  0  0.139352  0.110107  0  1.016569  0
H  H25  1  0.84729875  0.38909573  0.19488540  1  0  0.139344  0.110118  0  1.016534  0
H  H26  1  0.34729736  0.11090384  0.80511578  1  0  0.139329  0.110089  0  1.016544  0
H  H27  1  0.15270205  0.38909352  0.30511402  1  0  0.139336  0.110104  0  1.01655  0
H  H28  1  0.22126762  0.16350686  0.11144734  1  0  0.332187  0.28849  0  0.971223  0
H  H29  1  0.27873308  0.33649443  0.61144731  1  0  0.332188  0.288511  0  0.97124  0
H  H30  1  0.77873272  0.16350741  0.38855323  1  0  0.332185  0.288484  0  0.971254  0
H  H31  1  0.72126764  0.33649197  0.88855321  1  0  0.332154  0.288468  0  0.971233  0
H  H32  1  0.77873152  0.83649118  0.88855334  1  0  0.332165  0.288492  0  0.971195  0
H  H33  1  0.72126843  0.66350676  0.38855273  1  0  0.332178  0.288505  0  0.971165  0
H  H34  1  0.22126879  0.83649483  0.61144681  1  0  0.332191  0.28851  0  0.971213  0
H  H35  1  0.27873268  0.66350921  0.11144812  1  0  0.332164  0.28847  0  0.971261  0
H  H36  1  0.73944258  0.96996156  0.05598604  1  0  0.30605  0.392953  0  0.950713  0
H  H37  1  0.76055517  0.53003904  0.55598584  1  0  0.306055  0.392974  0  0.950691  0
H  H38  1  0.26055756  0.96996245  0.44401306  1  0  0.306066  0.393008  0  0.950646  0
H  H39  1  0.23944257  0.53003893  0.94401350  1  0  0.306043  0.392959  0  0.95071  0
H  H40  1  0.26055774  0.03003962  0.94401336  1  0  0.306022  0.392951  0  0.950725  0
H  H41  1  0.23944279  0.46996109  0.44401356  1  0  0.306061  0.392986  0  0.95067  0
H  H42  1  0.73944277  0.03003874  0.55598634  1  0  0.306067  0.392992  0  0.950663  0
H  H43  1  0.76055657  0.46996121  0.05598654  1  0  0.306048  0.392992  0  0.950668  0
H  H44  1  0.50855162  0.20008149  0.95684004  1  0  0.305011  0.411104  0  0.92396  0
H  H45  1  0.99144871  0.29991905  0.45684011  1  0  0.305003  0.411059  0  0.924032  0
H  H46  1  0.49144835  0.20008226  0.54315912  1  0  0.305022  0.411144  0  0.923907  0
H  H47  1  0.00855238  0.29991682  0.04315990  1  0  0.305021  0.411121  0  0.923932  0
H  H48  1  0.49144752  0.79991655  0.04316064  1  0  0.30502  0.411127  0  0.923925  0
H  H49  1  0.00855162  0.70008214  0.54315929  1  0  0.305025  0.411114  0  0.923942  0
H  H50  1  0.50855197  0.79991788  0.45683900  1  0  0.305005  0.411082  0  0.923995  0
H  H51  1  0.99144794  0.70008122  0.95684014  1  0  0.305001  0.411087  0  0.923981  0
C  C52  1  0.12270688  0.96777773  0.14790655  1  0  0.175367  0.179865  0  3.864839  0
C  C53  1  0.37729340  0.53222531  0.64790633  1  0  0.175358  0.179858  0  3.86479  0
C  C54  1  0.87729208  0.96777588  0.35209383  1  0  0.175421  0.179936  0  3.864871  0
C  C55  1  0.62270789  0.53222306  0.85209237  1  0  0.175384  0.179936  0  3.864765  0
C  C56  1  0.87729108  0.03222241  0.85209157  1  0  0.175451  0.180029  0  3.864808  0
C  C57  1  0.62270811  0.46777798  0.35209114  1  0  0.175398  0.179939  0  3.864738  0
C  C58  1  0.12270587  0.03222530  0.64790750  1  0  0.175382  0.179869  0  3.864813  0
C  C59  1  0.37729244  0.46777708  0.14790639  1  0  0.175427  0.179939  0  3.86484  0
C  C60  1  0.28845106  0.93416829  0.24955512  1  0  0.156689  0.153684  0  3.922096  0
C  C61  1  0.21154679  0.56583281  0.74955559  1  0  0.156635  0.153582  0  3.922139  0
C  C62  1  0.71154563  0.93416776  0.25044588  1  0  0.156662  0.15361  0  3.9221  0
C  C63  1  0.78845320  0.56583103  0.75044441  1  0  0.156625  0.153564  0  3.92209  0
C  C64  1  0.71154452  0.06583185  0.75044428  1  0  0.156632  0.153628  0  3.922119  0
C  C65  1  0.78845472  0.43416733  0.25044445  1  0  0.156665  0.153628  0  3.922016  0
C  C66  1  0.28845232  0.06583133  0.74955737  1  0  0.15663  0.153626  0  3.922049  0
C  C67  1  0.21154712  0.43416910  0.24955499  1  0  0.156656  0.153639  0  3.922101  0
N  N68  1  0.15992823  0.87662118  0.21034418  1  0  -0.339014  -0.324476  0  3.479759  0
N  N69  1  0.34006964  0.62338196  0.71034466  1  0  -0.339023  -0.324481  0  3.479714  0
N  N70  1  0.84006984  0.87661934  0.28965679  1  0  -0.339016  -0.32446  0  3.479795  0
N  N71  1  0.65992898  0.62337951  0.78965537  1  0  -0.338983  -0.324442  0  3.479674  0
N  N72  1  0.84006973  0.12337686  0.78965522  1  0  -0.339028  -0.32453  0  3.479813  0
N  N73  1  0.65992950  0.37662133  0.28965410  1  0  -0.339039  -0.324534  0  3.479756  0
N  N74  1  0.15992693  0.12337870  0.71034710  1  0  -0.339037  -0.324473  0  3.479771  0
N  N75  1  0.34007372  0.37662273  0.21034467  1  0  -0.339061  -0.324504  0  3.479769  0
N  N76  1  0.33077248  0.05555347  0.21419720  1  0  -0.226398  -0.182208  0  3.391572  0
N  N77  1  0.16922817  0.44444481  0.71419659  1  0  -0.226396  -0.182168  0  3.391566  0
N  N78  1  0.66922465  0.05555415  0.28580396  1  0  -0.226391  -0.182156  0  3.391493  0
N  N79  1  0.83077458  0.44444404  0.78580334  1  0  -0.226381  -0.182144  0  3.391401  0
N  N80  1  0.66922429  0.94444562  0.78580284  1  0  -0.226416  -0.18221  0  3.391476  0
N  N81  1  0.83077689  0.55555322  0.28580409  1  0  -0.226423  -0.182193  0  3.391372  0
N  N82  1  0.33077330  0.94444494  0.71419672  1  0  -0.226379  -0.182179  0  3.391499  0
N  N83  1  0.16922693  0.55555505  0.21419606  1  0  -0.226352  -0.182132  0  3.391552  0
N  N84  1  0.22420521  0.07487846  0.15014547  1  0  -0.256829  -0.084518  0  3.642048  0
N  N85  1  0.27579429  0.42512288  0.65014548  1  0  -0.256815  -0.084547  0  3.642135  0
N  N86  1  0.77579423  0.07487792  0.34985570  1  0  -0.256829  -0.084541  0  3.642134  0
N  N87  1  0.72420378  0.42512456  0.84985315  1  0  -0.256791  -0.084504  0  3.642058  0
N  N88  1  0.77579393  0.92512273  0.84985329  1  0  -0.256784  -0.084513  0  3.64203  0
N  N89  1  0.72420485  0.57487411  0.34985391  1  0  -0.256776  -0.084484  0  3.641986  0
N  N90  1  0.22420847  0.92512432  0.65014498  1  0  -0.256801  -0.084517  0  3.642099  0
N  N91  1  0.27579417  0.57487662  0.15014560  1  0  -0.256827  -0.084561  0  3.642163  0
O  O92  1  0.57924867  0.21240109  0.12029365  1  0  -0.38341  -0.809306  0  2.305192  0
O  O93  1  0.92075538  0.28760211  0.62029292  1  0  -0.383407  -0.809276  0  2.305166  0
O  O94  1  0.42075625  0.21240043  0.37970567  1  0  -0.383403  -0.809276  0  2.305112  0
O  O95  1  0.07924313  0.28760125  0.87970756  1  0  -0.383401  -0.809281  0  2.30516  0
O  O96  1  0.42075758  0.78760010  0.87970639  1  0  -0.383392  -0.809265  0  2.305145  0
O  O97  1  0.07924613  0.71240013  0.37970647  1  0  -0.383406  -0.809278  0  2.305191  0
O  O98  1  0.57924170  0.78760076  0.62029309  1  0  -0.383394  -0.809269  0  2.305244  0
O  O99  1  0.92075483  0.71239994  0.12029440  1  0  -0.383411  -0.80929  0  2.305174  0
O  O100  1  0.80432759  0.06122976  0.05663976  1  0  -0.392693  -0.717612  0  2.267098  0
O  O101  1  0.69567175  0.43876914  0.55664043  1  0  -0.392691  -0.717638  0  2.267087  0
O  O102  1  0.19567426  0.06123080  0.44335884  1  0  -0.392691  -0.717657  0  2.267043  0
O  O103  1  0.30432627  0.43876886  0.94336014  1  0  -0.392665  -0.717596  0  2.267097  0
O  O104  1  0.19567392  0.93876933  0.94335964  1  0  -0.392655  -0.717581  0  2.267082  0
O  O105  1  0.30432739  0.56122890  0.44335897  1  0  -0.392703  -0.717641  0  2.267099  0
O  O106  1  0.80432370  0.93877038  0.55664120  1  0  -0.392713  -0.717632  0  2.267024  0
O  O107  1  0.69567405  0.56123023  0.05664054  1  0  -0.392688  -0.717642  0  2.267057  0
O  O108  1  0.83447907  0.32011773  0.05735349  1  0  -0.365392  -0.7706  0  2.187311  0
O  O109  1  0.66552264  0.17988223  0.55735403  1  0  -0.365384  -0.7706  0  2.187363  0
O  O110  1  0.16552314  0.32011674  0.44264525  1  0  -0.365377  -0.770613  0  2.187438  0
O  O111  1  0.33447858  0.17988082  0.94264576  1  0  -0.365373  -0.770583  0  2.187385  0
O  O112  1  0.16552363  0.67988136  0.94264463  1  0  -0.365384  -0.770602  0  2.187443  0
O  O113  1  0.33447887  0.82011791  0.44264537  1  0  -0.365403  -0.770592  0  2.187378  0
O  O114  1  0.83447481  0.67988129  0.55735543  1  0  -0.365368  -0.77059  0  2.187412  0
O  O115  1  0.66552293  0.82011827  0.05735428  1  0  -0.365387  -0.770614  0  2.187411  0
O  O116  1  0.63058227  0.21297827  0.96014072  1  0  -0.389594  -0.714745  0  2.245339  0
O  O117  1  0.86941805  0.28702438  0.46013952  1  0  -0.389614  -0.714721  0  2.245395  0
O  O118  1  0.36941884  0.21297723  0.53985845  1  0  -0.389636  -0.714864  0  2.245299  0
O  O119  1  0.13058426  0.28702079  0.03985985  1  0  -0.389597  -0.714764  0  2.24532  0
O  O120  1  0.36941805  0.78701872  0.03985868  1  0  -0.389591  -0.714747  0  2.245327  0
O  O121  1  0.13058227  0.71297786  0.53985988  1  0  -0.389605  -0.714757  0  2.245363  0
O  O122  1  0.63058148  0.78702290  0.46014095  1  0  -0.389605  -0.714761  0  2.245414  0
O  O123  1  0.86941843  0.71297830  0.96014148  1  0  -0.389584  -0.714748  0  2.245393  0
