# generated using pymatgen
data_PrH14C7N10ClO6
_symmetry_space_group_name_H-M   'P 1'
_cell_length_a   8.88014456
_cell_length_b   10.14957842
_cell_length_c   10.09439346
_cell_angle_alpha   65.49280481
_cell_angle_beta   70.68073788
_cell_angle_gamma   85.04130975
_symmetry_Int_Tables_number   1
_chemical_formula_structural   PrH14C7N10ClO6
_chemical_formula_sum   'Pr2 H28 C14 N20 Cl2 O12'
_cell_volume   779.85595785
_cell_formula_units_Z   2
loop_
 _symmetry_equiv_pos_site_id
 _symmetry_equiv_pos_as_xyz
  1  'x, y, z'
loop_
 _atom_site_type_symbol
 _atom_site_label
 _atom_site_symmetry_multiplicity
 _atom_site_fract_x
 _atom_site_fract_y
 _atom_site_fract_z
 _atom_site_occupancy
 _atom_site_hle17_bader_spin_density
 _atom_site_hle17_ddec_charge
 _atom_site_hle17_ddec_spin_density
 _atom_site_hle17_ddec_sum_bond_order
 _atom_site_hle17_magmom
 _atom_site_hse06_10hf_bader_spin_density
 _atom_site_hse06_10hf_ddec_charge
 _atom_site_hse06_10hf_ddec_spin_density
 _atom_site_hse06_10hf_ddec_sum_bond_order
 _atom_site_hse06_10hf_magmom
 _atom_site_hse06_bader_spin_density
 _atom_site_hse06_ddec_charge
 _atom_site_hse06_ddec_spin_density
 _atom_site_hse06_ddec_sum_bond_order
 _atom_site_hse06_magmom
 _atom_site_pbe_bader_spin_density
 _atom_site_pbe_cm5_charge
 _atom_site_pbe_ddec_charge
 _atom_site_pbe_ddec_spin_density
 _atom_site_pbe_ddec_sum_bond_order
 _atom_site_pbe_magmom
Pr  Pr0  1  0.39020848  0.44099973  0.82307265  1  0  2.270376  0  1.657578  0  0  2.100491  0  2.132506  0  0  2.186833  0  1.997921  0  0  1.408011  2.067692  0  2.169912  0
Pr  Pr1  1  0.60979041  0.55900042  0.17692711  1  0  2.270375  0  1.657582  0  0  2.10049  0  2.132511  0  0  2.186832  0  1.997924  0  0  1.408022  2.067692  0  2.169918  0
H  H2  1  0.12853550  0.43158438  0.11099901  1  0  0.410821  0  0.896097  0  0  0.384582  0  0.955531  0  0  0.394092  0  0.941996  0  0  0.271912  0.377814  0  0.965283  0
H  H3  1  0.87146459  0.56841578  0.88900238  1  0  0.410826  0  0.896094  0  0  0.384584  0  0.955528  0  0  0.394096  0  0.941992  0  0  0.271915  0.377815  0  0.965281  0
H  H4  1  0.27862903  0.39389837  0.16467289  1  0  0.426595  0  0.868815  0  0  0.395819  0  0.936902  0  0  0.406896  0  0.920923  0  0  0.303547  0.388214  0  0.94802  0
H  H5  1  0.72137219  0.60610070  0.83532763  1  0  0.426595  0  0.868832  0  0  0.395817  0  0.936898  0  0  0.406898  0  0.920918  0  0  0.303551  0.388214  0  0.948014  0
H  H6  1  0.65981910  0.68278866  0.63078177  1  0  0.344581  0  0.949048  0  0  0.308078  0  1.039787  0  0  0.318265  0  1.030095  0  0  0.303914  0.300389  0  1.047444  0
H  H7  1  0.34018092  0.31721041  0.36921811  1  0  0.344563  0  0.949121  0  0  0.308126  0  1.039753  0  0  0.318312  0  1.030062  0  0  0.303926  0.300438  0  1.047411  0
H  H8  1  0.00713343  0.75444014  0.18547988  1  0  0.32896  0  0.924734  0  0  0.309957  0  0.994044  0  0  0.316824  0  0.988785  0  0  0.282771  0.305187  0  0.997407  0
H  H9  1  0.99286666  0.24556001  0.81451953  1  0  0.328963  0  0.924737  0  0  0.309963  0  0.99404  0  0  0.316831  0  0.988782  0  0  0.282771  0.305193  0  0.997404  0
H  H10  1  0.94761982  0.86579985  0.28737982  1  0  0.324264  0  0.948835  0  0  0.295702  0  1.03266  0  0  0.304747  0  1.024542  0  0  0.291573  0.289339  0  1.038282  0
H  H11  1  0.05237914  0.13420139  0.71262046  1  0  0.324253  0  0.948852  0  0  0.295702  0  1.032658  0  0  0.304746  0  1.024541  0  0  0.291569  0.289339  0  1.038282  0
H  H12  1  0.08097633  0.72451494  0.67825458  1  0  0.330526  0  0.905787  0  0  0.311431  0  0.975738  0  0  0.318558  0  0.969688  0  0  0.295862  0.306435  0  0.979802  0
H  H13  1  0.91902257  0.27548521  0.32174617  1  0  0.330525  0  0.905798  0  0  0.311429  0  0.975746  0  0  0.318556  0  0.969696  0  0  0.295865  0.306434  0  0.979811  0
H  H14  1  0.97016291  0.84274172  0.75340463  1  0  0.335872  0  0.918987  0  0  0.308159  0  1.003303  0  0  0.316965  0  0.994872  0  0  0.295852  0.302026  0  1.00899  0
H  H15  1  0.02983718  0.15725843  0.24659479  1  0  0.335849  0  0.918993  0  0  0.308127  0  1.003321  0  0  0.316933  0  0.994891  0  0  0.29584  0.301995  0  1.009007  0
H  H16  1  0.31184412  0.89099118  0.77298366  1  0  0.12694  0  0.942744  0  0  0.129365  0  1.018539  0  0  0.13219  0  1.016414  0  0  0.129214  0.12733  0  1.020079  0
H  H17  1  0.68815590  0.10900789  0.22701623  1  0  0.12694  0  0.942735  0  0  0.129381  0  1.018532  0  0  0.132204  0  1.016409  0  0  0.129218  0.127338  0  1.020067  0
H  H18  1  0.14578624  0.78221593  0.92855458  1  0  0.119365  0  0.932857  0  0  0.126871  0  1.002031  0  0  0.129678  0  1.00023  0  0  0.120439  0.124841  0  1.00336  0
H  H19  1  0.85421378  0.21778314  0.07144630  1  0  0.119353  0  0.932849  0  0  0.126877  0  1.002027  0  0  0.129683  0  1.000225  0  0  0.120437  0.124838  0  1.003353  0
H  H20  1  0.39692312  0.89064121  0.25096059  1  0  0.130921  0  0.934304  0  0  0.133065  0  1.008763  0  0  0.1366  0  1.005417  0  0  0.131582  0.130536  0  1.011254  0
H  H21  1  0.60307823  0.10936004  0.74903898  1  0  0.130894  0  0.934264  0  0  0.133052  0  1.00872  0  0  0.136587  0  1.005372  0  0  0.131574  0.13053  0  1.011213  0
H  H22  1  0.21000390  0.79298835  0.37264208  1  0  0.115414  0  0.928265  0  0  0.127455  0  0.992417  0  0  0.13014  0  0.990663  0  0  0.122024  0.125287  0  0.994247  0
H  H23  1  0.78999731  0.20701073  0.62735745  1  0  0.115398  0  0.928249  0  0  0.127427  0  0.992423  0  0  0.130113  0  0.990667  0  0  0.122015  0.125266  0  0.994256  0
H  H24  1  0.91025982  0.60675112  0.55552587  1  0  0.075156  0  0.937723  0  0  0.094332  0  1.001623  0  0  0.094972  0  1.001427  0  0  0.091713  0.09396  0  1.001469  0
H  H25  1  0.08974027  0.39324903  0.44447354  1  0  0.075146  0  0.937721  0  0  0.094322  0  1.001624  0  0  0.094962  0  1.001428  0  0  0.091715  0.09395  0  1.00147  0
H  H26  1  0.78295115  0.54031096  0.48775619  1  0  0.079162  0  0.957694  0  0  0.092491  0  1.028713  0  0  0.093593  0  1.028617  0  0  0.0965  0.091598  0  1.029009  0
H  H27  1  0.21704894  0.45968919  0.51224322  1  0  0.079143  0  0.957682  0  0  0.092468  0  1.028707  0  0  0.09357  0  1.028614  0  0  0.096505  0.091575  0  1.029005  0
H  H28  1  0.83095137  0.42334082  0.65760021  1  0  0.081718  0  0.957466  0  0  0.097602  0  1.02809  0  0  0.097984  0  1.028776  0  0  0.096871  0.0968  0  1.028493  0
H  H29  1  0.16904991  0.57665934  0.34239885  1  0  0.081693  0  0.957458  0  0  0.097575  0  1.028094  0  0  0.097957  0  1.028779  0  0  0.096861  0.096773  0  1.028496  0
C  C30  1  0.37536890  0.72453776  0.95697256  1  0  0.753445  0  3.839862  0  0  0.705481  0  4.142768  0  0  0.739653  0  4.134721  0  0  0.236741  0.682159  0  4.149533  0
C  C31  1  0.62463119  0.27546239  0.04302784  1  0  0.753419  0  3.839884  0  0  0.705467  0  4.142804  0  0  0.739637  0  4.134758  0  0  0.23672  0.68213  0  4.149575  0
C  C32  1  0.26111707  0.83774014  0.89849794  1  0  -0.175987  0  3.625834  0  0  -0.233089  0  3.865795  0  0  -0.233447  0  3.869876  0  0  -0.046036  -0.232716  0  3.862782  0
C  C33  1  0.73888415  0.16225894  0.10150159  1  0  -0.175963  0  3.62581  0  0  -0.23315  0  3.865884  0  0  -0.233504  0  3.869966  0  0  -0.046046  -0.232724  0  3.862812  0
C  C34  1  0.13288212  0.95063771  0.08956060  1  0  0.514094  0  3.820648  0  0  0.457502  0  4.112352  0  0  0.479946  0  4.121404  0  0  0.342625  0.442801  0  4.105037  0
C  C35  1  0.86711677  0.04936244  0.91044015  1  0  0.514152  0  3.820603  0  0  0.457524  0  4.112354  0  0  0.479968  0  4.121405  0  0  0.342627  0.442823  0  4.105042  0
C  C36  1  0.40745319  0.70420326  0.45420124  1  0  0.759782  0  3.82224  0  0  0.714344  0  4.121563  0  0  0.748567  0  4.112943  0  0  0.242546  0.69114  0  4.12825  0
C  C37  1  0.59254809  0.29579691  0.54579881  1  0  0.759737  0  3.82231  0  0  0.714316  0  4.121613  0  0  0.748522  0  4.113018  0  0  0.242532  0.691119  0  4.1283  0
C  C38  1  0.32200240  0.83380234  0.37087243  1  0  -0.172126  0  3.612005  0  0  -0.233082  0  3.855384  0  0  -0.233545  0  3.859701  0  0  -0.044512  -0.232788  0  3.852646  0
C  C39  1  0.67799895  0.16619891  0.62912714  1  0  -0.172051  0  3.611906  0  0  -0.233022  0  3.855292  0  0  -0.233477  0  3.859609  0  0  -0.044512  -0.232759  0  3.852591  0
C  C40  1  0.16609871  0.93541655  0.56632813  1  0  0.519436  0  3.821004  0  0  0.462888  0  4.109336  0  0  0.485633  0  4.118305  0  0  0.346813  0.447687  0  4.102888  0
C  C41  1  0.83390145  0.06458469  0.43367279  1  0  0.519432  0  3.820996  0  0  0.462869  0  4.109358  0  0  0.485667  0  4.118254  0  0  0.346829  0.447664  0  4.102914  0
C  C42  1  0.80606789  0.53426042  0.59044644  1  0  -0.015105  0  3.61909  0  0  -0.107505  0  3.8819  0  0  -0.101923  0  3.888121  0  0  -0.150117  -0.111068  0  3.878335  0
C  C43  1  0.19393220  0.46573973  0.40955297  1  0  -0.015026  0  3.619033  0  0  -0.107423  0  3.881865  0  0  -0.101842  0  3.888086  0  0  -0.150104  -0.110986  0  3.8783  0
N  N44  1  0.15173853  0.08211912  0.08697167  1  0  -0.360702  0  2.905764  0  0  -0.330962  0  3.194135  0  0  -0.345343  0  3.205713  0  0  -0.221353  -0.321378  0  3.187365  0
N  N45  1  0.84826156  0.91788104  0.91302774  1  0  -0.360734  0  2.90572  0  0  -0.330986  0  3.194104  0  0  -0.345368  0  3.205683  0  0  -0.221371  -0.321401  0  3.187333  0
N  N46  1  0.26614593  0.15683502  0.95031081  1  0  -0.153085  0  3.192363  0  0  -0.134094  0  3.515741  0  0  -0.136587  0  3.526244  0  0  -0.124501  -0.135398  0  3.50991  0
N  N47  1  0.73385536  0.84316514  0.04968924  1  0  -0.153039  0  3.192443  0  0  -0.134047  0  3.515817  0  0  -0.136539  0  3.526318  0  0  -0.124469  -0.135351  0  3.509982  0
N  N48  1  0.31744242  0.08069430  0.87015015  1  0  -0.077475  0  2.916855  0  0  -0.087152  0  3.212759  0  0  -0.084336  0  3.224624  0  0  -0.067718  -0.08948  0  3.207238  0
N  N49  1  0.68255766  0.91930585  0.12984926  1  0  -0.0775  0  2.916974  0  0  -0.087173  0  3.212872  0  0  -0.084358  0  3.224737  0  0  -0.067728  -0.089502  0  3.207355  0
N  N50  1  0.23482377  0.94981769  0.95535817  1  0  -0.047744  0  3.500506  0  0  0.037254  0  3.729069  0  0  0.02301  0  3.750764  0  0  -0.132143  0.046986  0  3.71382  0
N  N51  1  0.76517631  0.05018247  0.04464124  1  0  -0.04776  0  3.500618  0  0  0.037271  0  3.729202  0  0  0.023025  0  3.750899  0  0  -0.132133  0.046988  0  3.713946  0
N  N52  1  0.03447625  0.83922281  0.20537082  1  0  -0.689327  0  3.107728  0  0  -0.654351  0  3.359047  0  0  -0.674851  0  3.353729  0  0  -0.577753  -0.639803  0  3.362147  0
N  N53  1  0.96552384  0.16077735  0.79462959  1  0  -0.689384  0  3.107741  0  0  -0.654398  0  3.35906  0  0  -0.674898  0  3.353743  0  0  -0.577763  -0.639852  0  3.362158  0
N  N54  1  0.28472832  0.93838297  0.43825140  1  0  -0.046006  0  3.490186  0  0  0.039151  0  3.720198  0  0  0.024597  0  3.74253  0  0  -0.126588  0.0487  0  3.705129  0
N  N55  1  0.71527057  0.06161718  0.56174935  1  0  -0.046038  0  3.490176  0  0  0.039112  0  3.720222  0  0  0.024542  0  3.742537  0  0  -0.126623  0.048673  0  3.70516  0
N  N56  1  0.37292483  0.06625529  0.36956522  1  0  -0.081188  0  2.842834  0  0  -0.092141  0  3.127299  0  0  -0.089594  0  3.136903  0  0  -0.068096  -0.093815  0  3.120817  0
N  N57  1  0.62707400  0.93374378  0.63043601  1  0  -0.081186  0  2.84286  0  0  -0.092129  0  3.127305  0  0  -0.089585  0  3.136913  0  0  -0.068068  -0.093803  0  3.120819  0
N  N58  1  0.30771812  0.13747258  0.45258374  1  0  -0.035611  0  3.114507  0  0  -0.012966  0  3.413311  0  0  -0.010265  0  3.42074  0  0  -0.065786  -0.014116  0  3.40776  0
N  N59  1  0.69228197  0.86252758  0.54741567  1  0  -0.035624  0  3.114571  0  0  -0.01295  0  3.413373  0  0  -0.01025  0  3.420805  0  0  -0.065797  -0.0141  0  3.40782  0
N  N60  1  0.18042035  0.06227729  0.57522064  1  0  -0.378814  0  2.93682  0  0  -0.346958  0  3.219356  0  0  -0.362161  0  3.228386  0  0  -0.22393  -0.33685  0  3.212973  0
N  N61  1  0.81957855  0.93772286  0.42477912  1  0  -0.378815  0  2.936841  0  0  -0.346956  0  3.219382  0  0  -0.362177  0  3.228398  0  0  -0.223917  -0.336846  0  3.212999  0
N  N62  1  0.05197619  0.82858755  0.66084169  1  0  -0.679705  0  3.099818  0  0  -0.648861  0  3.351246  0  0  -0.668574  0  3.34533  0  0  -0.577333  -0.634713  0  3.354537  0
N  N63  1  0.94802270  0.17141260  0.33915807  1  0  -0.67966  0  3.099837  0  0  -0.648796  0  3.351272  0  0  -0.668526  0  3.345335  0  0  -0.577311  -0.634646  0  3.354564  0
Cl  Cl64  1  0.06788778  0.45086848  0.82196327  1  0  -0.699114  0  0.811669  0  0  -0.646519  0  1.047107  0  0  -0.665999  0  1.020833  0  0  -0.300793  -0.636985  0  1.0604  0
Cl  Cl65  1  0.93211098  0.54912950  0.17803843  1  0  -0.699121  0  0.811664  0  0  -0.646528  0  1.047112  0  0  -0.666008  0  1.02084  0  0  -0.300796  -0.636993  0  1.060405  0
O  O66  1  0.42475496  0.72554211  0.06053674  1  0  -0.705439  0  1.986319  0  0  -0.657573  0  2.239242  0  0  -0.686912  0  2.227673  0  0  -0.386873  -0.640383  0  2.245874  0
O  O67  1  0.57524632  0.27445806  0.93946331  1  0  -0.705439  0  1.986334  0  0  -0.657571  0  2.239255  0  0  -0.686907  0  2.227684  0  0  -0.386859  -0.640384  0  2.245902  0
O  O68  1  0.41154192  0.63531054  0.89496507  1  0  -0.754508  0  2.076027  0  0  -0.699895  0  2.344834  0  0  -0.73112  0  2.331169  0  0  -0.407993  -0.682271  0  2.354163  0
O  O69  1  0.58845936  0.36468962  0.10503399  1  0  -0.7545  0  2.076053  0  0  -0.699868  0  2.344834  0  0  -0.731095  0  2.33117  0  0  -0.407988  -0.682244  0  2.354173  0
O  O70  1  0.37546605  0.66440502  0.59730974  1  0  -0.7319  0  2.039446  0  0  -0.684956  0  2.299113  0  0  -0.713955  0  2.286194  0  0  -0.385838  -0.668209  0  2.306301  0
O  O71  1  0.62453537  0.33559732  0.40268936  1  0  -0.731889  0  2.039399  0  0  -0.684952  0  2.299061  0  0  -0.713945  0  2.28615  0  0  -0.385842  -0.668214  0  2.306272  0
O  O72  1  0.49969669  0.64429213  0.37269357  1  0  -0.744653  0  2.059315  0  0  -0.692921  0  2.329318  0  0  -0.724463  0  2.314917  0  0  -0.415075  -0.675306  0  2.338071  0
O  O73  1  0.50030453  0.35570694  0.62730597  1  0  -0.744646  0  2.0594  0  0  -0.692918  0  2.329401  0  0  -0.724454  0  2.31501  0  0  -0.415062  -0.675301  0  2.338151  0
O  O74  1  0.22582951  0.37584885  0.10063996  1  0  -0.888179  0  1.910395  0  0  -0.838614  0  2.1007  0  0  -0.862306  0  2.068336  0  0  -0.639795  -0.825393  0  2.12098  0
O  O75  1  0.77416939  0.62415130  0.89936080  1  0  -0.888178  0  1.910409  0  0  -0.838609  0  2.100733  0  0  -0.862306  0  2.068338  0  0  -0.639801  -0.825389  0  2.121013  0
O  O76  1  0.66894041  0.57457611  0.68823801  1  0  -0.610717  0  2.269971  0  0  -0.53037  0  2.513222  0  0  -0.554348  0  2.504306  0  0  -0.448284  -0.51624  0  2.518965  0
O  O77  1  0.33105962  0.42542296  0.31176287  1  0  -0.610742  0  2.270011  0  0  -0.530434  0  2.513226  0  0  -0.554412  0  2.504305  0  0  -0.448295  -0.516303  0  2.518971  0
