# generated using pymatgen
data_NaBH16C8S2(N2O)2
_symmetry_space_group_name_H-M   'P 1'
_cell_length_a   6.23328746
_cell_length_b   10.10665224
_cell_length_c   22.89890000
_cell_angle_alpha   90.00000000
_cell_angle_beta   90.00000000
_cell_angle_gamma   93.26127352
_symmetry_Int_Tables_number   1
_chemical_formula_structural   NaBH16C8S2(N2O)2
_chemical_formula_sum   'Na4 B4 H64 C32 S8 N16 O8'
_cell_volume   1440.24105655
_cell_formula_units_Z   4
loop_
 _symmetry_equiv_pos_site_id
 _symmetry_equiv_pos_as_xyz
  1  'x, y, z'
loop_
 _atom_site_type_symbol
 _atom_site_label
 _atom_site_symmetry_multiplicity
 _atom_site_fract_x
 _atom_site_fract_y
 _atom_site_fract_z
 _atom_site_occupancy
 _atom_site_hle17_bader_spin_density
 _atom_site_hle17_ddec_charge
 _atom_site_hle17_ddec_spin_density
 _atom_site_hle17_ddec_sum_bond_order
 _atom_site_hle17_magmom
 _atom_site_hse06_10hf_bader_spin_density
 _atom_site_hse06_10hf_ddec_charge
 _atom_site_hse06_10hf_ddec_spin_density
 _atom_site_hse06_10hf_ddec_sum_bond_order
 _atom_site_hse06_10hf_magmom
 _atom_site_hse06_bader_spin_density
 _atom_site_hse06_ddec_charge
 _atom_site_hse06_ddec_spin_density
 _atom_site_hse06_ddec_sum_bond_order
 _atom_site_hse06_magmom
 _atom_site_pbe_bader_charge
 _atom_site_pbe_bader_spin_density
 _atom_site_pbe_cm5_charge
 _atom_site_pbe_ddec_charge
 _atom_site_pbe_ddec_spin_density
 _atom_site_pbe_ddec_sum_bond_order
 _atom_site_pbe_magmom
Na  Na0  1  0.82517781  0.27328962  0.21102367  1  0  0.894665  0  0.358176  0  0  0.844962  0  0.513129  0  0  0.85491  0  0.493136  0  0.879139  0  0.580098  0.837478  0  0.527837  0
Na  Na1  1  0.67482172  0.72670796  0.71102542  1  0  0.894674  0  0.358159  0  0  0.844992  0  0.513084  0  0  0.854934  0  0.493082  0  0.879145  0  0.58012  0.837509  0  0.527792  0
Na  Na2  1  0.17482562  0.72670895  0.78897589  1  0  0.894676  0  0.358139  0  0  0.844987  0  0.513073  0  0  0.854928  0  0.493072  0  0.879157  0  0.580126  0.837504  0  0.52778  0
Na  Na3  1  0.32517690  0.27329061  0.28897589  1  0  0.894668  0  0.35817  0  0  0.844962  0  0.513134  0  0  0.854903  0  0.493131  0  0.879136  0  0.580094  0.837477  0  0.527842  0
B  B4  1  0.50807181  0.37313517  0.11584487  1  0  0.376871  0  3.322543  0  0  0.195179  0  3.632438  0  0  0.212403  0  3.634316  0  1.941279  0  -0.248725  0.183566  0  3.630943  0
B  B5  1  0.99190915  0.62685249  0.61584705  1  0  0.376903  0  3.322658  0  0  0.1952  0  3.632614  0  0  0.212422  0  3.634498  0  1.940765  0  -0.248689  0.183583  0  3.631128  0
B  B6  1  0.49194385  0.62687430  0.88415251  1  0  0.37701  0  3.322422  0  0  0.195348  0  3.632322  0  0  0.212573  0  3.634192  0  1.941156  0  -0.248666  0.183732  0  3.630836  0
B  B7  1  0.00807250  0.37313616  0.38415557  1  0  0.376964  0  3.322564  0  0  0.195276  0  3.632466  0  0  0.212499  0  3.634343  0  1.941334  0  -0.24869  0.183661  0  3.630976  0
H  H8  1  0.66222220  0.00758551  0.93019927  1  0  0.101105  0  0.941453  0  0  0.12077  0  1.006809  0  0  0.121949  0  1.006021  0  0.076737  0  0.10202  0.119732  0  1.00755  0
H  H9  1  0.83778677  0.99241008  0.43020320  1  0  0.101172  0  0.941449  0  0  0.120848  0  1.00679  0  0  0.122019  0  1.006009  0  0.076805  0  0.102055  0.119811  0  1.00753  0
H  H10  1  0.33778223  0.99242395  0.06979680  1  0  0.101149  0  0.941512  0  0  0.120816  0  1.006841  0  0  0.121998  0  1.00605  0  0.076769  0  0.10205  0.119779  0  1.00758  0
H  H11  1  0.16221387  0.00757560  0.56979811  1  0  0.101114  0  0.941505  0  0  0.120788  0  1.006828  0  0  0.121971  0  1.006036  0  0.076706  0  0.102048  0.119751  0  1.007568  0
H  H12  1  0.77405024  0.96315917  0.99891305  1  0  0.102844  0  0.967797  0  0  0.118248  0  1.039461  0  0  0.119392  0  1.039553  0  0.084075  0  0.099533  0.117247  0  1.039643  0
H  H13  1  0.72595364  0.03683345  0.49891567  1  0  0.102948  0  0.967731  0  0  0.118334  0  1.039407  0  0  0.119478  0  1.039497  0  0.084022  0  0.09957  0.117332  0  1.039591  0
H  H14  1  0.22595383  0.03684633  0.00108346  1  0  0.102949  0  0.967756  0  0  0.118299  0  1.039489  0  0  0.119443  0  1.039583  0  0.084095  0  0.09954  0.117298  0  1.039673  0
H  H15  1  0.27404388  0.96315322  0.50108346  1  0  0.102986  0  0.967729  0  0  0.118322  0  1.039469  0  0  0.119466  0  1.039563  0  0.084055  0  0.099544  0.117322  0  1.039651  0
H  H16  1  0.91919356  0.07794924  0.95275581  1  0  0.094245  0  0.961279  0  0  0.114875  0  1.026407  0  0  0.11549  0  1.026545  0  0.060121  0  0.094063  0.114288  0  1.026488  0
H  H17  1  0.58081390  0.92204734  0.45275756  1  0  0.094237  0  0.961402  0  0  0.114884  0  1.026508  0  0  0.115498  0  1.026645  0  0.060143  0  0.094086  0.114297  0  1.026589  0
H  H18  1  0.08081693  0.92205626  0.04724070  1  0  0.094281  0  0.961402  0  0  0.114891  0  1.026542  0  0  0.115508  0  1.026683  0  0.060011  0  0.094097  0.114306  0  1.026621  0
H  H19  1  0.41918389  0.07794230  0.54724201  1  0  0.094254  0  0.961391  0  0  0.11486  0  1.026527  0  0  0.115477  0  1.026671  0  0.060008  0  0.094081  0.114274  0  1.026608  0
H  H20  1  0.48445297  0.22318895  0.91978654  1  0  0.112237  0  0.986587  0  0  0.116146  0  1.061045  0  0  0.11944  0  1.058989  0  0.156444  0  0.111991  0.11391  0  1.062298  0
H  H21  1  0.01556398  0.77681061  0.41979047  1  0  0.112266  0  0.986543  0  0  0.116176  0  1.060977  0  0  0.119467  0  1.058926  0  0.156516  0  0.112032  0.113933  0  1.062255  0
H  H22  1  0.51556287  0.77682250  0.08021128  1  0  0.112221  0  0.986627  0  0  0.116149  0  1.061024  0  0  0.119439  0  1.058976  0  0.156455  0  0.112015  0.113901  0  1.062315  0
H  H23  1  0.98442818  0.22317012  0.58021128  1  0  0.112168  0  0.986724  0  0  0.116145  0  1.061066  0  0  0.119438  0  1.059011  0  0.156394  0  0.112001  0.113897  0  1.062357  0
H  H24  1  0.33804814  0.39971717  0.00208176  1  0  0.110044  0  0.962069  0  0  0.119529  0  1.025747  0  0  0.121714  0  1.025524  0  0.115128  0  0.120538  0.117915  0  1.02615  0
H  H25  1  0.16194411  0.60027544  0.50208700  1  0  0.110077  0  0.962263  0  0  0.119561  0  1.025921  0  0  0.121771  0  1.025621  0  0.115123  0  0.120567  0.117955  0  1.026306  0
H  H26  1  0.66196459  0.60029527  0.99791562  1  0  0.1101  0  0.962117  0  0  0.119596  0  1.025768  0  0  0.121793  0  1.025509  0  0.1151  0  0.120557  0.117983  0  1.026169  0
H  H27  1  0.83803728  0.39971024  0.49791911  1  0  0.110051  0  0.962076  0  0  0.119549  0  1.025736  0  0  0.121736  0  1.025506  0  0.115205  0  0.120547  0.117936  0  1.026137  0
H  H28  1  0.16952344  0.62616272  0.08311971  1  0  0.110497  0  0.9868  0  0  0.116197  0  1.05722  0  0  0.118587  0  1.056721  0  0.154431  0  0.114173  0.114468  0  1.057661  0
H  H29  1  0.33046194  0.37382494  0.58311884  1  0  0.110601  0  0.986839  0  0  0.116263  0  1.05731  0  0  0.118655  0  1.056806  0  0.154563  0  0.114212  0.11451  0  1.057774  0
H  H30  1  0.83048494  0.37385467  0.91688378  1  0  0.1104  0  0.986782  0  0  0.116117  0  1.057201  0  0  0.118505  0  1.056706  0  0.154482  0  0.114194  0.114388  0  1.057639  0
H  H31  1  0.66952765  0.62616272  0.41688072  1  0  0.110453  0  0.98677  0  0  0.116156  0  1.0572  0  0  0.118545  0  1.056705  0  0.154415  0  0.114166  0.114422  0  1.057648  0
H  H32  1  0.85355661  0.86817176  0.14948098  1  0  0.09556  0  0.987326  0  0  0.111531  0  1.061251  0  0  0.112958  0  1.060278  0  0.068766  0  0.085119  0.110027  0  1.062459  0
H  H33  1  0.64642944  0.13181888  0.64948098  1  0  0.095649  0  0.987211  0  0  0.111604  0  1.061145  0  0  0.113032  0  1.06017  0  0.068683  0  0.085153  0.110097  0  1.062358  0
H  H34  1  0.14643856  0.13184167  0.85052644  1  0  0.095556  0  0.987257  0  0  0.111565  0  1.061119  0  0  0.112982  0  1.060165  0  0.068973  0  0.085129  0.110053  0  1.062342  0
H  H35  1  0.35355873  0.86817077  0.35052033  1  0  0.095583  0  0.98731  0  0  0.111552  0  1.061233  0  0  0.112979  0  1.06026  0  0.068777  0  0.085125  0.110048  0  1.062441  0
H  H36  1  0.12528223  0.81737933  0.14534104  1  0  0.097868  0  0.950941  0  0  0.119237  0  1.014517  0  0  0.120216  0  1.014295  0  0.066366  0  0.100323  0.118438  0  1.01468  0
H  H37  1  0.37470369  0.18261428  0.64534192  1  0  0.097821  0  0.950939  0  0  0.11917  0  1.014541  0  0  0.120145  0  1.014326  0  0.066084  0  0.100317  0.118374  0  1.014705  0
H  H38  1  0.87471776  0.18263410  0.85466376  1  0  0.0979  0  0.950973  0  0  0.119234  0  1.014599  0  0  0.120214  0  1.014375  0  0.066328  0  0.100351  0.118434  0  1.014761  0
H  H39  1  0.62528475  0.81737834  0.35465852  1  0  0.097933  0  0.950855  0  0  0.11925  0  1.014488  0  0  0.120229  0  1.014268  0  0.066354  0  0.100334  0.118452  0  1.014651  0
H  H40  1  0.96946025  0.78018415  0.20921485  1  0  0.093448  0  0.986173  0  0  0.109556  0  1.060264  0  0  0.111346  0  1.058711  0  0.084644  0  0.085747  0.108408  0  1.06134  0
H  H41  1  0.53052759  0.21980847  0.70921529  1  0  0.093422  0  0.986214  0  0  0.109536  0  1.060293  0  0  0.111327  0  1.05874  0  0.08459  0  0.085749  0.108387  0  1.061369  0
H  H42  1  0.03054185  0.21981739  0.79078995  1  0  0.093415  0  0.986179  0  0  0.109587  0  1.060221  0  0  0.111363  0  1.05868  0  0.084731  0  0.085739  0.108435  0  1.061298  0
H  H43  1  0.46945603  0.78018415  0.29078558  1  0  0.093454  0  0.98619  0  0  0.109567  0  1.060269  0  0  0.111358  0  1.058716  0  0.084649  0  0.085737  0.108419  0  1.061346  0
H  H44  1  0.92785412  0.39397799  0.05943386  1  0  0.109586  0  0.965415  0  0  0.118103  0  1.029425  0  0  0.120678  0  1.028322  0  0.121924  0  0.120295  0.116147  0  1.03057  0
H  H45  1  0.57213781  0.60600670  0.55943124  1  0  0.109708  0  0.965364  0  0  0.11817  0  1.029422  0  0  0.120745  0  1.02832  0  0.121905  0  0.120346  0.11622  0  1.030561  0
H  H46  1  0.07215737  0.60603841  0.94056221  1  0  0.109701  0  0.965478  0  0  0.118147  0  1.029569  0  0  0.120769  0  1.028411  0  0.121457  0  0.120292  0.116191  0  1.030713  0
H  H47  1  0.42785784  0.39397700  0.44056570  1  0  0.109618  0  0.965364  0  0  0.118093  0  1.02942  0  0  0.120688  0  1.028295  0  0.121897  0  0.120286  0.116137  0  1.030566  0
H  H48  1  0.50977507  0.30256828  0.15918494  1  0  -0.252323  0  0.999639  0  0  -0.205949  0  1.098843  0  0  -0.210171  0  1.097543  0  -0.614139  0  0.03249  -0.203069  0  1.099769  0
H  H49  1  0.99020590  0.69741939  0.65918843  1  0  -0.252379  0  0.999718  0  0  -0.205995  0  1.098897  0  0  -0.210213  0  1.097588  0  -0.613974  0  0.032482  -0.203114  0  1.099823  0
H  H50  1  0.49024559  0.69744317  0.84081288  1  0  -0.252439  0  0.999672  0  0  -0.206064  0  1.098875  0  0  -0.210281  0  1.097566  0  -0.614198  0  0.032459  -0.203184  0  1.099803  0
H  H51  1  0.00977558  0.30256729  0.34081593  1  0  -0.252365  0  0.999632  0  0  -0.205992  0  1.098844  0  0  -0.210211  0  1.097538  0  -0.614123  0  0.03247  -0.203112  0  1.09977  0
H  H52  1  0.34071648  0.42749736  0.11291721  1  0  -0.205787  0  0.995421  0  0  -0.156863  0  1.08719  0  0  -0.1619  0  1.08838  0  -0.584246  0  0.044064  -0.153318  0  1.086265  0
H  H53  1  0.15926899  0.57249129  0.61291983  1  0  -0.205801  0  0.995418  0  0  -0.156948  0  1.087284  0  0  -0.161986  0  1.088477  0  -0.584055  0  0.044016  -0.153401  0  1.086357  0
H  H54  1  0.65928911  0.57250715  0.88708104  1  0  -0.20575  0  0.995405  0  0  -0.156873  0  1.087222  0  0  -0.161907  0  1.088409  0  -0.584134  0  0.044058  -0.153328  0  1.086299  0
H  H55  1  0.84071927  0.42749934  0.38708279  1  0  -0.205798  0  0.995421  0  0  -0.156904  0  1.087231  0  0  -0.16194  0  1.088421  0  -0.584295  0  0.044054  -0.153358  0  1.086306  0
H  H56  1  0.08003584  0.49606332  0.24982903  1  0  0.378294  0  0.946924  0  0  0.346516  0  1.01663  0  0  0.35618  0  1.002788  0  0.5984  0  0.255837  0.339636  0  1.026451  0
H  H57  1  0.41995838  0.50393326  0.74982772  1  0  0.378296  0  0.946928  0  0  0.346518  0  1.016629  0  0  0.356181  0  1.002789  0  0.598207  0  0.255836  0.339638  0  1.02645  0
H  H58  1  0.91995948  0.50393426  0.75017053  1  0  0.378289  0  0.947001  0  0  0.346508  0  1.016654  0  0  0.356172  0  1.002811  0  0.598576  0  0.255848  0.339628  0  1.026476  0
H  H59  1  0.58003845  0.49606332  0.25017184  1  0  0.378315  0  0.946875  0  0  0.34654  0  1.016589  0  0  0.356202  0  1.002749  0  0.598202  0  0.255856  0.339661  0  1.026409  0
H  H60  1  0.22646984  0.46109602  0.19761211  1  0  0.407726  0  0.887112  0  0  0.378034  0  0.961283  0  0  0.386875  0  0.948554  0  0.603528  0  0.282151  0.371674  0  0.970435  0
H  H61  1  0.27352965  0.53890552  0.69761080  1  0  0.407725  0  0.88706  0  0  0.378043  0  0.961259  0  0  0.386881  0  0.948532  0  0.603539  0  0.28218  0.371682  0  0.970412  0
H  H62  1  0.77353386  0.53890552  0.80238789  1  0  0.407662  0  0.887196  0  0  0.377974  0  0.961336  0  0  0.386818  0  0.948616  0  0.603545  0  0.282145  0.371614  0  0.970488  0
H  H63  1  0.72647066  0.46109404  0.30238832  1  0  0.407732  0  0.887085  0  0  0.378046  0  0.961258  0  0  0.386885  0  0.948532  0  0.603522  0  0.282167  0.371686  0  0.970411  0
H  H64  1  0.66811075  0.11701058  0.32096913  1  0  0.43926  0  0.816039  0  0  0.418507  0  0.873833  0  0  0.426731  0  0.861788  0  0.610832  0  0.321797  0.412605  0  0.882487  0
H  H65  1  0.83189442  0.88299592  0.82096564  1  0  0.439069  0  0.81636  0  0  0.418337  0  0.874073  0  0  0.426561  0  0.86203  0  0.610952  0  0.321751  0.412438  0  0.882722  0
H  H66  1  0.33191088  0.88299394  0.67903393  1  0  0.439074  0  0.816387  0  0  0.418321  0  0.874118  0  0  0.426547  0  0.862071  0  0.611009  0  0.321711  0.412419  0  0.882772  0
H  H67  1  0.16811286  0.11700959  0.17903000  1  0  0.439272  0  0.815966  0  0  0.418524  0  0.873788  0  0  0.426747  0  0.861744  0  0.611053  0  0.321807  0.412623  0  0.882441  0
H  H68  1  0.59472020  0.02704879  0.26868889  1  0  0.434059  0  0.822146  0  0  0.418729  0  0.869497  0  0  0.426035  0  0.858783  0  0.609581  0  0.328697  0.413157  0  0.87776  0
H  H69  1  0.90528621  0.97295374  0.76868540  1  0  0.434152  0  0.822005  0  0  0.418827  0  0.869361  0  0  0.426135  0  0.858642  0  0.609503  0  0.328756  0.413255  0  0.877624  0
H  H70  1  0.40528653  0.97295076  0.73131635  1  0  0.434161  0  0.821992  0  0  0.418842  0  0.869342  0  0  0.426149  0  0.858625  0  0.609533  0  0.328761  0.413271  0  0.877603  0
H  H71  1  0.09472080  0.02704879  0.23131067  1  0  0.434064  0  0.822139  0  0  0.418732  0  0.869496  0  0  0.42604  0  0.858779  0  0.609586  0  0.328691  0.41316  0  0.877759  0
C  C72  1  0.69974285  0.59755203  0.14745861  1  0  0.302135  0  3.748523  0  0  0.261098  0  4.027792  0  0  0.281078  0  4.03962  0  0.769933  0  0.216259  0.247955  0  4.019021  0
C  C73  1  0.80024472  0.40243761  0.64745817  1  0  0.301871  0  3.748809  0  0  0.260812  0  4.028108  0  0  0.280792  0  4.039939  0  0.769706  0  0.216156  0.247672  0  4.019331  0
C  C74  1  0.30026177  0.40245942  0.85254052  1  0  0.302151  0  3.748824  0  0  0.261051  0  4.02814  0  0  0.281028  0  4.039967  0  0.769989  0  0.216117  0.247909  0  4.019369  0
C  C75  1  0.19974015  0.59755104  0.35254183  1  0  0.302123  0  3.748632  0  0  0.2611  0  4.027873  0  0  0.281079  0  4.039703  0  0.769899  0  0.216266  0.247957  0  4.019101  0
C  C76  1  0.65991788  0.18383525  0.05353270  1  0  0.321801  0  3.750527  0  0  0.282745  0  4.031912  0  0  0.303604  0  4.042404  0  0.764328  0  0.2163  0.269022  0  4.023774  0
C  C77  1  0.84007853  0.81616331  0.55353489  1  0  0.321636  0  3.750586  0  0  0.282631  0  4.031903  0  0  0.303491  0  4.042393  0  0.764495  0  0.2163  0.268909  0  4.023763  0
C  C78  1  0.34009439  0.81617223  0.94646424  1  0  0.321791  0  3.750276  0  0  0.282679  0  4.03175  0  0  0.303538  0  4.042237  0  0.764617  0  0.216345  0.268953  0  4.023619  0
C  C79  1  0.15991678  0.18383426  0.44646686  1  0  0.321889  0  3.750339  0  0  0.282795  0  4.031792  0  0  0.303657  0  4.042276  0  0.764592  0  0.216361  0.269072  0  4.023653  0
C  C80  1  0.75814283  0.04393731  0.96764997  1  0  -0.160381  0  3.647499  0  0  -0.26493  0  3.894666  0  0  -0.26149  0  3.903267  0  0.281936  0  -0.138013  -0.266959  0  3.888703  0
C  C81  1  0.74186000  0.95606125  0.46765216  1  0  -0.160583  0  3.647637  0  0  -0.265157  0  3.894823  0  0  -0.261707  0  3.903421  0  0.282013  0  -0.138109  -0.267187  0  3.88886  0
C  C82  1  0.24186321  0.95607215  0.03234697  1  0  -0.160615  0  3.647768  0  0  -0.265149  0  3.894913  0  0  -0.261702  0  3.903488  0  0.282034  0  -0.138099  -0.267182  0  3.888956  0
C  C83  1  0.25813449  0.04392740  0.53234828  1  0  -0.160572  0  3.647757  0  0  -0.26509  0  3.89488  0  0  -0.261645  0  3.903458  0  0.2821  0  -0.138091  -0.267121  0  3.888918  0
C  C84  1  0.51505985  0.23317479  0.96625209  1  0  -0.077391  0  3.721668  0  0  -0.118219  0  3.989367  0  0  -0.116149  0  4.006414  0  0.258311  0  -0.008807  -0.119832  0  3.978179  0
C  C85  1  0.98493799  0.76682179  0.46625515  1  0  -0.077494  0  3.721576  0  0  -0.118317  0  3.989296  0  0  -0.116245  0  4.006347  0  0.258473  0  -0.008942  -0.119938  0  3.978109  0
C  C86  1  0.48494619  0.76683467  0.03374442  1  0  -0.077423  0  3.721583  0  0  -0.118232  0  3.989284  0  0  -0.116162  0  4.006331  0  0.209947  0  -0.008908  -0.119851  0  3.978088  0
C  C87  1  0.01505179  0.23316786  0.53374922  1  0  -0.077413  0  3.721499  0  0  -0.118253  0  3.989158  0  0  -0.116184  0  4.006204  0  0.257754  0  -0.008854  -0.11987  0  3.97796  0
C  C88  1  0.44422612  0.31925562  0.00682609  1  0  -0.010028  0  3.710206  0  0  -0.053236  0  3.973379  0  0  -0.049703  0  3.990987  0  0.386351  0  0.007796  -0.055724  0  3.96193  0
C  C89  1  0.05577397  0.68073502  0.50683002  1  0  -0.010105  0  3.710151  0  0  -0.053303  0  3.973312  0  0  -0.049761  0  3.990931  0  0.386295  0  0.00781  -0.055788  0  3.961864  0
C  C90  1  0.55578936  0.68075187  0.99317216  1  0  -0.010229  0  3.710123  0  0  -0.053454  0  3.973325  0  0  -0.049918  0  3.990934  0  0.434435  0  0.007782  -0.055938  0  3.96187  0
C  C91  1  0.94421998  0.31924769  0.49317303  1  0  -0.010053  0  3.710224  0  0  -0.053266  0  3.973399  0  0  -0.049733  0  3.991012  0  0.386562  0  0.007792  -0.055753  0  3.961947  0
C  C92  1  0.00968644  0.59261263  0.09710030  1  0  -0.063443  0  3.718167  0  0  -0.104773  0  3.982625  0  0  -0.101724  0  3.999302  0  0.336866  0  -0.005246  -0.106961  0  3.971727  0
C  C93  1  0.49030054  0.40737504  0.59710030  1  0  -0.063569  0  3.718144  0  0  -0.104886  0  3.982589  0  0  -0.101837  0  3.999268  0  0.336344  0  -0.005376  -0.107053  0  3.971707  0
C  C94  1  0.99031836  0.40740080  0.90290014  1  0  -0.063144  0  3.717702  0  0  -0.104512  0  3.982202  0  0  -0.101462  0  3.998885  0  0.337344  0  -0.005229  -0.106702  0  3.971307  0
C  C95  1  0.50968593  0.59261362  0.40289927  1  0  -0.063418  0  3.718124  0  0  -0.104742  0  3.982557  0  0  -0.101696  0  3.999242  0  0.336921  0  -0.005246  -0.106928  0  3.971663  0
C  C96  1  0.96298711  0.79110852  0.16145710  1  0  -0.177544  0  3.67189  0  0  -0.28052  0  3.915412  0  0  -0.277377  0  3.923233  0  0.252409  0  -0.143831  -0.282073  0  3.910138  0
C  C97  1  0.53700037  0.20888014  0.66145797  1  0  -0.177568  0  3.671735  0  0  -0.280538  0  3.915312  0  0  -0.277393  0  3.923128  0  0.252943  0  -0.143913  -0.282095  0  3.910045  0
C  C98  1  0.03701260  0.20890194  0.83854770  1  0  -0.177539  0  3.671911  0  0  -0.280598  0  3.915489  0  0  -0.277433  0  3.9233  0  0.252419  0  -0.143888  -0.282145  0  3.910216  0
C  C99  1  0.46298771  0.79110852  0.33854290  1  0  -0.177674  0  3.671772  0  0  -0.280619  0  3.915331  0  0  -0.277475  0  3.923147  0  0.252402  0  -0.14386  -0.282172  0  3.910059  0
C  C100  1  0.88971591  0.47832051  0.08584954  1  0  -0.034954  0  3.74243  0  0  -0.080091  0  4.012012  0  0  -0.076907  0  4.028711  0  0.325149  0  0.001161  -0.082632  0  4.001869  0
C  C101  1  0.61027185  0.52167112  0.58584736  1  0  -0.035012  0  3.74216  0  0  -0.080094  0  4.011721  0  0  -0.076911  0  4.028424  0  0.325498  0  0.001213  -0.082639  0  4.001571  0
C  C102  1  0.11028972  0.52170184  0.91414915  1  0  -0.03514  0  3.742449  0  0  -0.080223  0  4.012071  0  0  -0.077082  0  4.028741  0  0.325412  0  0.001109  -0.082763  0  4.00193  0
C  C103  1  0.38971944  0.47831754  0.41415046  1  0  -0.034926  0  3.74229  0  0  -0.080031  0  4.011864  0  0  -0.076867  0  4.028557  0  0.325123  0  0.001182  -0.082572  0  4.001722  0
S  S104  1  0.80079020  0.10648659  0.10563390  1  0  -0.625639  0  1.862713  0  0  -0.61088  0  2.172411  0  0  -0.624941  0  2.163178  0  -0.341358  0  -0.275165  -0.600187  0  2.178588  0
S  S105  1  0.69919934  0.89350702  0.60563521  1  0  -0.625645  0  1.862807  0  0  -0.610875  0  2.172434  0  0  -0.624945  0  2.163196  0  -0.341304  0  -0.275187  -0.600183  0  2.178611  0
S  S106  1  0.19921859  0.89351792  0.89436174  1  0  -0.625625  0  1.862646  0  0  -0.610843  0  2.172327  0  0  -0.624905  0  2.163097  0  -0.341324  0  -0.275165  -0.600151  0  2.178506  0
S  S107  1  0.30080088  0.10649155  0.39436610  1  0  -0.625699  0  1.862691  0  0  -0.610904  0  2.172381  0  0  -0.62497  0  2.163142  0  -0.341371  0  -0.275203  -0.600212  0  2.178558  0
S  S108  1  0.50244429  0.65286266  0.19097468  1  0  -0.524798  0  1.950594  0  0  -0.498602  0  2.264493  0  0  -0.513958  0  2.256788  0  -0.293085  0  -0.209006  -0.487381  0  2.269262  0
S  S109  1  0.99754016  0.34712797  0.69097468  1  0  -0.524735  0  1.950575  0  0  -0.498565  0  2.264556  0  0  -0.513924  0  2.256844  0  -0.292988  0  -0.209052  -0.487344  0  2.269323  0
S  S110  1  0.49755318  0.34714086  0.80902576  1  0  -0.524807  0  1.950696  0  0  -0.498576  0  2.264574  0  0  -0.513926  0  2.256876  0  -0.293153  0  -0.209002  -0.48736  0  2.269343  0
S  S111  1  0.00244810  0.65286266  0.30902576  1  0  -0.524796  0  1.950701  0  0  -0.498596  0  2.264577  0  0  -0.513953  0  2.256873  0  -0.293074  0  -0.209022  -0.487377  0  2.269347  0
N  N112  1  0.64794104  0.14977179  0.99539323  1  0  -0.075226  0  3.542716  0  0  0.026871  0  3.75642  0  0  0.011014  0  3.781646  0  -1.23469  0  -0.251829  0.037707  0  3.738921  0
N  N113  1  0.85206001  0.85022479  0.49539410  1  0  -0.075137  0  3.54272  0  0  0.026958  0  3.756413  0  0  0.0111  0  3.781638  0  -1.23489  0  -0.251802  0.037795  0  3.738909  0
N  N114  1  0.35206821  0.85023767  0.00460415  1  0  -0.075123  0  3.542543  0  0  0.026966  0  3.756285  0  0  0.011111  0  3.781512  0  -1.234527  0  -0.25178  0.037803  0  3.738784  0
N  N115  1  0.14793458  0.14976486  0.50460459  1  0  -0.07512  0  3.54254  0  0  0.026958  0  3.756279  0  0  0.011101  0  3.781507  0  -1.234561  0  -0.251779  0.037795  0  3.738778  0
N  N116  1  0.89180733  0.66545795  0.13537550  1  0  -0.062285  0  3.546946  0  0  0.040378  0  3.761141  0  0  0.024713  0  3.786565  0  -1.215579  0  -0.248807  0.05089  0  3.743697  0
N  N117  1  0.60817890  0.33453467  0.63537550  1  0  -0.062241  0  3.546999  0  0  0.040442  0  3.761184  0  0  0.024775  0  3.786609  0  -1.215644  0  -0.248664  0.050955  0  3.743734  0
N  N118  1  0.10819577  0.33455449  0.86462494  1  0  -0.06249  0  3.546974  0  0  0.040239  0  3.761188  0  0  0.024576  0  3.786605  0  -1.215793  0  -0.248706  0.050751  0  3.743743  0
N  N119  1  0.39180784  0.66545696  0.36462494  1  0  -0.062201  0  3.546848  0  0  0.040452  0  3.761027  0  0  0.024788  0  3.786449  0  -1.21557  0  -0.248782  0.050963  0  3.743584  0
N  N120  1  0.53284775  0.28899978  0.06036403  1  0  -0.2638  0  3.478996  0  0  -0.154367  0  3.70169  0  0  -0.172858  0  3.722509  0  -1.396335  0  -0.231739  -0.141702  0  3.687201  0
N  N121  1  0.96714046  0.71099680  0.56036753  1  0  -0.263572  0  3.478789  0  0  -0.154156  0  3.701456  0  0  -0.172649  0  3.722276  0  -1.396517  0  -0.231669  -0.141494  0  3.686969  0
N  N122  1  0.46716800  0.71101068  0.93963334  1  0  -0.26365  0  3.478913  0  0  -0.154181  0  3.701581  0  0  -0.172679  0  3.722419  0  -1.396557  0  -0.231735  -0.141517  0  3.687089  0
N  N123  1  0.03284684  0.28900077  0.43963640  1  0  -0.263803  0  3.479024  0  0  -0.15436  0  3.701728  0  0  -0.172853  0  3.72255  0  -1.396372  0  -0.231753  -0.141695  0  3.68724  0
N  N124  1  0.69870171  0.48135313  0.11694885  1  0  -0.28121  0  3.482604  0  0  -0.170633  0  3.705919  0  0  -0.189077  0  3.727856  0  -1.422705  0  -0.239318  -0.158264  0  3.691578  0
N  N125  1  0.80128434  0.51863751  0.61694798  1  0  -0.281062  0  3.482616  0  0  -0.170417  0  3.705766  0  0  -0.188867  0  3.727726  0  -1.422468  0  -0.239294  -0.15805  0  3.691426  0
N  N126  1  0.30130469  0.51866030  0.88304766  1  0  -0.281256  0  3.482651  0  0  -0.170652  0  3.705949  0  0  -0.189096  0  3.727897  0  -1.422962  0  -0.239255  -0.158281  0  3.6916  0
N  N127  1  0.19870222  0.48135214  0.38305071  1  0  -0.281329  0  3.482702  0  0  -0.17073  0  3.705977  0  0  -0.18918  0  3.727932  0  -1.422711  0  -0.239324  -0.158361  0  3.691635  0
O  O128  1  0.64511870  0.11705220  0.27874570  1  0  -0.866  0  1.766683  0  0  -0.827146  0  1.927538  0  0  -0.841286  0  1.899389  0  -1.223524  0  -0.626362  -0.817149  0  1.948075  0
O  O129  1  0.85488816  0.88295528  0.77874090  1  0  -0.865911  0  1.766813  0  0  -0.82708  0  1.927629  0  0  -0.841221  0  1.89948  0  -1.223572  0  -0.626393  -0.817084  0  1.948164  0
O  O130  1  0.35488707  0.88295429  0.72125997  1  0  -0.865922  0  1.766795  0  0  -0.827083  0  1.927585  0  0  -0.841225  0  1.899431  0  -1.223654  0  -0.626363  -0.817086  0  1.94812  0
O  O131  1  0.14512251  0.11705220  0.22125342  1  0  -0.866015  0  1.7666  0  0  -0.827164  0  1.927488  0  0  -0.841306  0  1.899337  0  -1.223747  0  -0.626364  -0.817166  0  1.948023  0
O  O132  1  0.12591551  0.41934695  0.22626327  1  0  -0.901421  0  1.850069  0  0  -0.850978  0  2.033501  0  0  -0.867752  0  2.004008  0  -1.281051  0  -0.693609  -0.838979  0  2.05455  0
O  O133  1  0.37408210  0.58065162  0.72626283  1  0  -0.901428  0  1.850013  0  0  -0.850997  0  2.033457  0  0  -0.867763  0  2.003968  0  -1.280865  0  -0.693641  -0.839  0  2.054509  0
O  O134  1  0.87408631  0.58065162  0.77373629  1  0  -0.901351  0  1.850249  0  0  -0.850893  0  2.033689  0  0  -0.867684  0  2.004152  0  -1.281258  0  -0.69361  -0.838894  0  2.05474  0
O  O135  1  0.62591652  0.41934695  0.27373673  1  0  -0.90144  0  1.850032  0  0  -0.851  0  2.033487  0  0  -0.867773  0  2.003995  0  -1.280846  0  -0.693635  -0.839002  0  2.054537  0
