# generated using pymatgen
data_AgH5C6SN2
_symmetry_space_group_name_H-M   'P 1'
_cell_length_a   3.89516878
_cell_length_b   10.95083008
_cell_length_c   17.56415188
_cell_angle_alpha   90.00004964
_cell_angle_beta   90.00057996
_cell_angle_gamma   89.99971514
_symmetry_Int_Tables_number   1
_chemical_formula_structural   AgH5C6SN2
_chemical_formula_sum   'Ag4 H20 C24 S4 N8'
_cell_volume   749.20472024
_cell_formula_units_Z   4
loop_
 _symmetry_equiv_pos_site_id
 _symmetry_equiv_pos_as_xyz
  1  'x, y, z'
loop_
 _atom_site_type_symbol
 _atom_site_label
 _atom_site_symmetry_multiplicity
 _atom_site_fract_x
 _atom_site_fract_y
 _atom_site_fract_z
 _atom_site_occupancy
 _atom_site_pbe_bader_spin_density
 _atom_site_pbe_cm5_charge
 _atom_site_pbe_ddec_charge
 _atom_site_pbe_ddec_spin_density
 _atom_site_pbe_ddec_sum_bond_order
 _atom_site_pbe_magmom
Ag  Ag0  1  0.71630223  0.79009855  0.22827223  1  0  0.411835  0.300666  0  2.377409  0
Ag  Ag1  1  0.78369860  0.20990537  0.72827465  1  0  0.411782  0.300605  0  2.37731  0
Ag  Ag2  1  0.21630082  0.70990999  0.77172686  1  0  0.411759  0.300549  0  2.377363  0
Ag  Ag3  1  0.28370423  0.29009850  0.27172659  1  0  0.411827  0.300564  0  2.377462  0
H  H4  1  0.51812988  0.06565588  0.17231635  1  0  0.106236  0.078552  0  1.03141  0
H  H5  1  0.98187611  0.93434248  0.67231678  1  0  0.106243  0.078584  0  1.031342  0
H  H6  1  0.01811496  0.43434570  0.82768315  1  0  0.106267  0.07862  0  1.031299  0
H  H7  1  0.48188235  0.56565464  0.32768234  1  0  0.106259  0.078566  0  1.031354  0
H  H8  1  0.50804458  0.18949756  0.05300290  1  0  0.099794  0.107583  0  1.021199  0
H  H9  1  0.99195345  0.81049972  0.55300271  1  0  0.099778  0.107577  0  1.021181  0
H  H10  1  0.00805736  0.31050312  0.94699544  1  0  0.099817  0.107612  0  1.02117  0
H  H11  1  0.49195818  0.68949738  0.44699700  1  0  0.099784  0.107552  0  1.021219  0
H  H12  1  0.73632225  0.09624749  0.93193712  1  0  0.091428  0.090155  0  1.058159  0
H  H13  1  0.76367752  0.90375304  0.43193657  1  0  0.091415  0.090116  0  1.058199  0
H  H14  1  0.23633757  0.40374823  0.06806401  1  0  0.091409  0.090091  0  1.058093  0
H  H15  1  0.26367880  0.59624263  0.56806091  1  0  0.091467  0.090174  0  1.058126  0
H  H16  1  0.97153117  0.88367984  0.93674740  1  0  0.103498  0.11096  0  1.03146  0
H  H17  1  0.52846625  0.11631979  0.43674759  1  0  0.103489  0.110934  0  1.031466  0
H  H18  1  0.47153499  0.61631913  0.06324999  1  0  0.1035  0.11096  0  1.031547  0
H  H19  1  0.02846576  0.38367721  0.56325193  1  0  0.103462  0.110881  0  1.031444  0
H  H20  1  0.96275004  0.77160282  0.06152093  1  0  0.108243  0.073543  0  1.028422  0
H  H21  1  0.53723811  0.22839356  0.56152166  1  0  0.108246  0.073583  0  1.028437  0
H  H22  1  0.46275078  0.72839525  0.93847815  1  0  0.108243  0.073514  0  1.028454  0
H  H23  1  0.03725155  0.27160159  0.43847788  1  0  0.108237  0.07361  0  1.028392  0
C  C24  1  0.77235754  0.49227630  0.18966175  1  0  0.148043  0.264687  0  4.228735  0
C  C25  1  0.72760816  0.50772573  0.68966364  1  0  0.148071  0.264723  0  4.229009  0
C  C26  1  0.27236848  0.00772028  0.81034288  1  0  0.148102  0.264914  0  4.228894  0
C  C27  1  0.22763318  0.99227548  0.31033775  1  0  0.147997  0.264612  0  4.228912  0
C  C28  1  0.61682300  0.02864213  0.11895436  1  0  0.039897  0.091067  0  3.93217  0
C  C29  1  0.88317545  0.97135616  0.61895686  1  0  0.039998  0.091123  0  3.932079  0
C  C30  1  0.11679968  0.47136111  0.88104309  1  0  0.039933  0.091005  0  3.93186  0
C  C31  1  0.38319234  0.52863839  0.38104488  1  0  0.039959  0.09111  0  3.932191  0
C  C32  1  0.61138606  0.09711635  0.05205333  1  0  -0.08843  -0.125735  0  3.970258  0
C  C33  1  0.88860937  0.90288459  0.55205353  1  0  -0.088485  -0.125817  0  3.97036  0
C  C34  1  0.11139756  0.40288416  0.94794923  1  0  -0.088518  -0.125803  0  3.970234  0
C  C35  1  0.38862316  0.59711543  0.44794538  1  0  -0.088473  -0.125768  0  3.970199  0
C  C36  1  0.73871139  0.04542216  0.98527416  1  0  -0.070595  -0.025497  0  3.957126  0
C  C37  1  0.76129079  0.95457662  0.48527306  1  0  -0.070583  -0.025475  0  3.957127  0
C  C38  1  0.23872358  0.45457630  0.01472129  1  0  -0.070546  -0.025371  0  3.957404  0
C  C39  1  0.26128525  0.54542179  0.51472499  1  0  -0.070637  -0.025543  0  3.957022  0
C  C40  1  0.86790878  0.92667122  0.98775118  1  0  -0.087759  -0.127624  0  3.967542  0
C  C41  1  0.63208838  0.07332756  0.48775216  1  0  -0.087722  -0.127478  0  3.967536  0
C  C42  1  0.36791861  0.57332244  0.01225053  1  0  -0.087771  -0.127705  0  3.96749  0
C  C43  1  0.13209523  0.42667017  0.51224646  1  0  -0.087724  -0.127443  0  3.967488  0
C  C44  1  0.86398590  0.86453467  0.05685281  1  0  0.036354  0.07702  0  3.960017  0
C  C45  1  0.63600204  0.13546353  0.55685315  1  0  0.03621  0.076731  0  3.960193  0
C  C46  1  0.36400615  0.63545991  0.94314377  1  0  0.036354  0.077054  0  3.960103  0
C  C47  1  0.13600666  0.36453602  0.44314548  1  0  0.03614  0.076527  0  3.960152  0
S  S48  1  0.77206063  0.34268398  0.18165847  1  0  -0.159496  -0.276701  0  3.035564  0
S  S49  1  0.72791499  0.65732169  0.68165931  1  0  -0.159515  -0.276752  0  3.035519  0
S  S50  1  0.27208005  0.15732081  0.81834559  1  0  -0.159539  -0.276883  0  3.035296  0
S  S51  1  0.22793481  0.84268408  0.31834037  1  0  -0.159482  -0.276709  0  3.035579  0
N  N52  1  0.77322202  0.59997225  0.19308011  1  0  -0.400865  -0.420013  0  3.2721  0
N  N53  1  0.72675154  0.40003892  0.69308251  1  0  -0.400846  -0.419986  0  3.272424  0
N  N54  1  0.27324772  0.90004076  0.80692765  1  0  -0.400798  -0.420007  0  3.272535  0
N  N55  1  0.22676662  0.09997143  0.30691974  1  0  -0.400834  -0.419953  0  3.272195  0
N  N56  1  0.73969201  0.91376488  0.12154638  1  0  -0.338177  -0.218613  0  3.557871  0
N  N57  1  0.76030399  0.08623432  0.62154698  1  0  -0.338098  -0.218462  0  3.557713  0
N  N58  1  0.23968950  0.58623631  0.87845674  1  0  -0.338195  -0.21856  0  3.558223  0
N  N59  1  0.26031268  0.41376775  0.37845136  1  0  -0.33799  -0.218225  0  3.557706  0
