# generated using pymatgen
data_H12PbC20(NO2)2
_symmetry_space_group_name_H-M   'P 1'
_cell_length_a   7.49101578
_cell_length_b   9.84536771
_cell_length_c   13.12714837
_cell_angle_alpha   69.49631610
_cell_angle_beta   80.89911965
_cell_angle_gamma   72.01328982
_symmetry_Int_Tables_number   1
_chemical_formula_structural   H12PbC20(NO2)2
_chemical_formula_sum   'H24 Pb2 C40 N4 O8'
_cell_volume   861.14019327
_cell_formula_units_Z   2
loop_
 _symmetry_equiv_pos_site_id
 _symmetry_equiv_pos_as_xyz
  1  'x, y, z'
loop_
 _atom_site_type_symbol
 _atom_site_label
 _atom_site_symmetry_multiplicity
 _atom_site_fract_x
 _atom_site_fract_y
 _atom_site_fract_z
 _atom_site_occupancy
 _atom_site_pbe_bader_spin_density
 _atom_site_pbe_cm5_charge
 _atom_site_pbe_ddec_charge
 _atom_site_pbe_ddec_spin_density
 _atom_site_pbe_ddec_sum_bond_order
 _atom_site_pbe_magmom
H  H0  1  0.88287852  0.13141600  0.82575377  1  0  0.106879  0.1128  0  1.006656  0
H  H1  1  0.11710281  0.86861436  0.17427771  1  0  0.106911  0.112865  0  1.00676  0
H  H2  1  0.01909569  0.43349356  0.95170529  1  0  0.09643  0.077393  0  1.078541  0
H  H3  1  0.98083482  0.56660572  0.04827273  1  0  0.09615  0.07717  0  1.078612  0
H  H4  1  0.34847025  0.26179025  0.98174094  1  0  0.104696  0.109002  0  1.028446  0
H  H5  1  0.65149202  0.73834893  0.01821906  1  0  0.104614  0.108891  0  1.028516  0
H  H6  1  0.43403175  0.02311622  0.93594786  1  0  0.10509  0.104425  0  1.034019  0
H  H7  1  0.56597236  0.97701638  0.06402660  1  0  0.105132  0.104492  0  1.034177  0
H  H8  1  0.68376526  0.77369960  0.82368372  1  0  0.122331  0.09736  0  1.009076  0
H  H9  1  0.31629346  0.22637613  0.17626374  1  0  0.122364  0.09749  0  1.009123  0
H  H10  1  0.91169788  0.90096280  0.69601096  1  0  0.109884  0.134736  0  1.029572  0
H  H11  1  0.08833511  0.09909509  0.30389182  1  0  0.109938  0.134853  0  1.029865  0
H  H12  1  0.90969797  0.93939966  0.49426584  1  0  0.109283  0.109517  0  0.997983  0
H  H13  1  0.09038295  0.06048354  0.50565653  1  0  0.109279  0.109441  0  0.997991  0
H  H14  1  0.55858821  0.80791135  0.28749977  1  0  0.108025  0.117679  0  1.005881  0
H  H15  1  0.44137548  0.19194413  0.71251727  1  0  0.108021  0.117486  0  1.006155  0
H  H16  1  0.30277459  0.67982890  0.33342979  1  0  0.111123  0.130479  0  1.03373  0
H  H17  1  0.69717145  0.32007468  0.66661679  1  0  0.111064  0.130418  0  1.033866  0
H  H18  1  0.08433060  0.56024118  0.47531240  1  0  0.10304  0.105012  0  1.029032  0
H  H19  1  0.91563510  0.43967012  0.52477142  1  0  0.102942  0.104684  0  1.029302  0
H  H20  1  0.10467481  0.53342599  0.67127665  1  0  0.115392  0.080334  0  0.988176  0
H  H21  1  0.89528609  0.46657913  0.32878394  1  0  0.115218  0.080115  0  0.988334  0
H  H22  1  0.78021349  0.90511425  0.34709766  1  0  0.10427  0.114764  0  1.036478  0
H  H23  1  0.21985657  0.09469053  0.65287819  1  0  0.104192  0.11443  0  1.036793  0
Pb  Pb24  1  0.35394146  0.60573688  0.84803186  1  0  0.591417  0.926695  0  1.988488  0
Pb  Pb25  1  0.64604710  0.39433424  0.15198982  1  0  0.59144  0.926552  0  1.988658  0
C  C26  1  0.98427708  0.16082588  0.85930820  1  0  -0.073774  -0.099422  0  3.914514  0
C  C27  1  0.01570679  0.83922723  0.14070492  1  0  -0.073947  -0.099679  0  3.915169  0
C  C28  1  0.93204008  0.29379150  0.88644457  1  0  -0.022166  -0.039219  0  3.985394  0
C  C29  1  0.06791792  0.70626937  0.11356140  1  0  -0.022145  -0.039035  0  3.985521  0
C  C30  1  0.06293053  0.32942320  0.93117416  1  0  -0.085798  -0.114875  0  4.011177  0
C  C31  1  0.93702584  0.67066832  0.06881026  1  0  -0.08539  -0.114657  0  4.011273  0
C  C32  1  0.24495141  0.23420871  0.94816445  1  0  -0.090744  -0.093418  0  4.010541  0
C  C33  1  0.75501000  0.76590317  0.05181875  1  0  -0.090693  -0.093186  0  4.010623  0
C  C34  1  0.29414516  0.10070749  0.92284443  1  0  -0.077944  -0.079906  0  3.943864  0
C  C35  1  0.70585076  0.89940242  0.07713673  1  0  -0.078161  -0.080195  0  3.94418  0
C  C36  1  0.16424061  0.06263509  0.87945000  1  0  -0.0181  -0.032864  0  3.980577  0
C  C37  1  0.83575926  0.93743744  0.12055043  1  0  -0.017862  -0.032623  0  3.980312  0
C  C38  1  0.22025252  0.91479749  0.85786340  1  0  0.202009  0.554384  0  4.225734  0
C  C39  1  0.77976846  0.08527292  0.14214012  1  0  0.201662  0.554019  0  4.225255  0
C  C40  1  0.73636703  0.39578039  0.86985572  1  0  0.205766  0.563147  0  4.210414  0
C  C41  1  0.26358414  0.60426222  0.13016785  1  0  0.205984  0.563251  0  4.210368  0
C  C42  1  0.68789475  0.79240290  0.73663318  1  0  0.063436  0.112825  0  3.913176  0
C  C43  1  0.31216249  0.20762314  0.26331899  1  0  0.063506  0.112671  0  3.912636  0
C  C44  1  0.81470099  0.86495107  0.66392086  1  0  -0.084169  -0.135864  0  3.965456  0
C  C45  1  0.18534064  0.13506037  0.33600995  1  0  -0.084252  -0.136017  0  3.964571  0
C  C46  1  0.81353884  0.88518180  0.55439550  1  0  -0.065268  -0.078007  0  3.948519  0
C  C47  1  0.18652632  0.11474738  0.44554458  1  0  -0.065406  -0.078043  0  3.948087  0
C  C48  1  0.68733731  0.83348366  0.51799250  1  0  -0.002274  0.041349  0  4.016768  0
C  C49  1  0.31271885  0.16641126  0.48198481  1  0  -0.002227  0.041332  0  4.016846  0
C  C50  1  0.56344495  0.76206222  0.59745843  1  0  0.122238  0.118778  0  3.958981  0
C  C51  1  0.43659470  0.23788091  0.40253837  1  0  0.122059  0.118525  0  3.95887  0
C  C52  1  0.43235982  0.70816092  0.56253402  1  0  0.119899  0.121897  0  3.978192  0
C  C53  1  0.56764915  0.29178967  0.43748359  1  0  0.119993  0.121775  0  3.978174  0
C  C54  1  0.43241506  0.72638849  0.45001898  1  0  -0.002621  0.040656  0  4.011123  0
C  C55  1  0.56756741  0.27353365  0.55000403  1  0  -0.002759  0.040622  0  4.010984  0
C  C56  1  0.56086526  0.79716079  0.37289190  1  0  -0.083345  -0.11918  0  3.982267  0
C  C57  1  0.43912506  0.20271868  0.62711481  1  0  -0.08338  -0.118919  0  3.982114  0
C  C58  1  0.30371886  0.67137378  0.41873346  1  0  -0.063417  -0.069833  0  3.883275  0
C  C59  1  0.69624290  0.32854685  0.58131326  1  0  -0.063417  -0.069962  0  3.882934  0
C  C60  1  0.18491278  0.60299106  0.49756689  1  0  -0.087211  -0.13279  0  4.004568  0
C  C61  1  0.81505433  0.39693847  0.50249833  1  0  -0.086947  -0.132141  0  4.00414  0
C  C62  1  0.19553043  0.58864454  0.60698111  1  0  0.055355  0.097015  0  3.997499  0
C  C63  1  0.80444308  0.41132802  0.39307228  1  0  0.055622  0.097112  0  3.997517  0
C  C64  1  0.68346094  0.84940795  0.40563285  1  0  -0.088646  -0.126626  0  3.977291  0
C  C65  1  0.31657872  0.15044952  0.59435505  1  0  -0.088404  -0.126078  0  3.977054  0
N  N66  1  0.31474061  0.64002427  0.63840931  1  0  -0.294189  -0.277061  0  3.444795  0
N  N67  1  0.68525585  0.35995885  0.36162008  1  0  -0.294239  -0.276872  0  3.444703  0
N  N68  1  0.56658151  0.74285677  0.70474565  1  0  -0.28551  -0.240023  0  3.442512  0
N  N69  1  0.43346725  0.25713728  0.29524234  1  0  -0.285567  -0.239764  0  3.442162  0
O  O70  1  0.12720959  0.89404106  0.79433192  1  0  -0.322701  -0.578219  0  2.160617  0
O  O71  1  0.87281909  0.10600788  0.20568178  1  0  -0.322466  -0.577929  0  2.159884  0
O  O72  1  0.36360305  0.81471195  0.90605019  1  0  -0.300212  -0.538066  0  2.213487  0
O  O73  1  0.63643427  0.18537332  0.09394636  1  0  -0.300053  -0.53803  0  2.214093  0
O  O74  1  0.63406151  0.38207087  0.80794459  1  0  -0.306988  -0.54855  0  2.179024  0
O  O75  1  0.36586614  0.61792839  0.19211158  1  0  -0.307011  -0.548436  0  2.179112  0
O  O76  1  0.67988246  0.49572798  0.91908085  1  0  -0.301514  -0.566287  0  2.23725  0
O  O77  1  0.32010090  0.50433764  0.08092144  1  0  -0.301738  -0.566663  0  2.23769  0
