# generated using pymatgen
data_CdH4C6N2O5
_symmetry_space_group_name_H-M   'P 1'
_cell_length_a   6.79720238
_cell_length_b   7.64099590
_cell_length_c   8.09603651
_cell_angle_alpha   84.54935682
_cell_angle_beta   77.45911346
_cell_angle_gamma   86.91429466
_symmetry_Int_Tables_number   1
_chemical_formula_structural   CdH4C6N2O5
_chemical_formula_sum   'Cd2 H8 C12 N4 O10'
_cell_volume   408.36025079
_cell_formula_units_Z   2
loop_
 _symmetry_equiv_pos_site_id
 _symmetry_equiv_pos_as_xyz
  1  'x, y, z'
loop_
 _atom_site_type_symbol
 _atom_site_label
 _atom_site_symmetry_multiplicity
 _atom_site_fract_x
 _atom_site_fract_y
 _atom_site_fract_z
 _atom_site_occupancy
 _atom_site_hle17_bader_spin_density
 _atom_site_hle17_ddec_charge
 _atom_site_hle17_ddec_spin_density
 _atom_site_hle17_ddec_sum_bond_order
 _atom_site_hle17_magmom
 _atom_site_hse06_10hf_bader_spin_density
 _atom_site_hse06_10hf_ddec_charge
 _atom_site_hse06_10hf_ddec_spin_density
 _atom_site_hse06_10hf_ddec_sum_bond_order
 _atom_site_hse06_10hf_magmom
 _atom_site_hse06_bader_spin_density
 _atom_site_hse06_ddec_charge
 _atom_site_hse06_ddec_spin_density
 _atom_site_hse06_ddec_sum_bond_order
 _atom_site_hse06_magmom
 _atom_site_pbe_bader_spin_density
 _atom_site_pbe_cm5_charge
 _atom_site_pbe_ddec_charge
 _atom_site_pbe_ddec_spin_density
 _atom_site_pbe_ddec_sum_bond_order
 _atom_site_pbe_magmom
Cd  Cd0  1  0.28292807  0.35166300  0.58770313  1  0  1.233251  0  1.603217  0  0  1.051883  0  2.051631  0  0  1.109563  0  1.994798  0  0  0.794063  1.010612  0  2.090421  0
Cd  Cd1  1  0.71706040  0.64833969  0.41229469  1  0  1.233141  0  1.603213  0  0  1.051768  0  2.051629  0  0  1.109435  0  1.994834  0  0  0.794009  1.010495  0  2.090415  0
H  H2  1  0.32185886  0.36278322  0.16348338  1  0  0.099575  0  0.921958  0  0  0.108045  0  0.981666  0  0  0.111388  0  0.978728  0  0  0.124943  0.105558  0  0.983937  0
H  H3  1  0.67814814  0.63720200  0.83651164  1  0  0.099593  0  0.921924  0  0  0.108041  0  0.981627  0  0  0.111392  0  0.978682  0  0  0.124922  0.105542  0  0.983912  0
H  H4  1  0.29125238  0.13834470  0.95743357  1  0  0.101538  0  0.958478  0  0  0.107821  0  1.020846  0  0  0.111173  0  1.018529  0  0  0.119319  0.105341  0  1.022735  0
H  H5  1  0.70876027  0.86165341  0.04255666  1  0  0.10162  0  0.958477  0  0  0.107877  0  1.020831  0  0  0.111234  0  1.01851  0  0  0.119312  0.105395  0  1.022722  0
H  H6  1  0.18898539  0.62287092  0.79552400  1  0  0.439977  0  0.856631  0  0  0.406796  0  0.923251  0  0  0.41898  0  0.905555  0  0  0.291587  0.398167  0  0.935733  0
H  H7  1  0.81101989  0.37712534  0.20447424  1  0  0.439891  0  0.856717  0  0  0.406664  0  0.923393  0  0  0.418848  0  0.905701  0  0  0.291544  0.398035  0  0.935877  0
H  H8  1  0.04438626  0.46657609  0.86055086  1  0  0.422548  0  0.838451  0  0  0.399364  0  0.903856  0  0  0.40819  0  0.894391  0  0  0.308248  0.39308  0  0.910572  0
H  H9  1  0.95562066  0.53342746  0.13946431  1  0  0.422555  0  0.838375  0  0  0.399371  0  0.903788  0  0  0.408197  0  0.894322  0  0  0.30826  0.393082  0  0.910511  0
C  C10  1  0.23428356  0.68573344  0.35588115  1  0  0.693302  0  3.869795  0  0  0.631675  0  4.172482  0  0  0.66992  0  4.159159  0  0  0.227495  0.605374  0  4.181048  0
C  C11  1  0.76570826  0.31426537  0.64412917  1  0  0.693502  0  3.869627  0  0  0.631924  0  4.172201  0  0  0.670167  0  4.158881  0  0  0.227641  0.605618  0  4.180774  0
C  C12  1  0.29976436  0.22397280  0.20465130  1  0  0.118128  0  3.632127  0  0  0.082514  0  3.893316  0  0  0.088324  0  3.906505  0  0  0.066704  0.078325  0  3.884658  0
C  C13  1  0.70024250  0.77602399  0.79535150  1  0  0.118048  0  3.632226  0  0  0.082532  0  3.893303  0  0  0.088337  0  3.906496  0  0  0.066708  0.078355  0  3.884641  0
C  C14  1  0.28533613  0.10047474  0.09152868  1  0  0.110216  0  3.634863  0  0  0.08329  0  3.902314  0  0  0.086864  0  3.913951  0  0  0.068405  0.080714  0  3.894784  0
C  C15  1  0.71467952  0.89952478  0.90846195  1  0  0.110101  0  3.635249  0  0  0.083247  0  3.90254  0  0  0.08682  0  3.914182  0  0  0.068464  0.080673  0  3.895004  0
C  C16  1  0.25358318  0.88081362  0.30721978  1  0  0.057748  0  3.703627  0  0  0.062349  0  3.952637  0  0  0.061214  0  3.968066  0  0  0.12849  0.062743  0  3.942797  0
C  C17  1  0.74640691  0.11918671  0.69278065  1  0  0.057816  0  3.703971  0  0  0.062388  0  3.952991  0  0  0.061248  0  3.968425  0  0  0.128549  0.062785  0  3.943153  0
C  C18  1  0.25857682  0.00391508  0.42453072  1  0  0.029411  0  3.723494  0  0  0.023991  0  3.9691  0  0  0.022477  0  3.989804  0  0  0.110943  0.024505  0  3.955612  0
C  C19  1  0.74141181  0.99608713  0.57547461  1  0  0.029629  0  3.723516  0  0  0.024217  0  3.969209  0  0  0.022728  0  3.989875  0  0  0.111042  0.02473  0  3.955716  0
C  C20  1  0.23393737  0.95304183  0.61399895  1  0  0.626761  0  3.950498  0  0  0.570338  0  4.261455  0  0  0.603752  0  4.256477  0  0  0.201177  0.54771  0  4.263979  0
C  C21  1  0.76606630  0.04695678  0.38599667  1  0  0.62665  0  3.950432  0  0  0.57019  0  4.261452  0  0  0.603602  0  4.25647  0  0  0.201132  0.547565  0  4.263974  0
N  N22  1  0.28485637  0.17408437  0.36930241  1  0  -0.306681  0  3.293721  0  0  -0.241174  0  3.562281  0  0  -0.256696  0  3.580089  0  0  -0.310077  -0.23031  0  3.550011  0
N  N23  1  0.71514250  0.82592806  0.63069775  1  0  -0.306659  0  3.293721  0  0  -0.24129  0  3.562388  0  0  -0.256819  0  3.580193  0  0  -0.310121  -0.230425  0  3.550111  0
N  N24  1  0.26422466  0.92953853  0.14193645  1  0  -0.238249  0  2.991687  0  0  -0.219783  0  3.257051  0  0  -0.223999  0  3.267452  0  0  -0.288242  -0.216768  0  3.250173  0
N  N25  1  0.73578788  0.07046033  0.85804869  1  0  -0.238308  0  2.992089  0  0  -0.219848  0  3.257418  0  0  -0.224067  0  3.267829  0  0  -0.28833  -0.216834  0  3.250537  0
O  O26  1  0.07649150  0.61441640  0.34435825  1  0  -0.64487  0  2.052387  0  0  -0.586542  0  2.317309  0  0  -0.615314  0  2.302988  0  0  -0.312343  -0.566121  0  2.32634  0
O  O27  1  0.92350933  0.38557729  0.65564134  1  0  -0.644964  0  2.05239  0  0  -0.58667  0  2.317322  0  0  -0.615446  0  2.303  0  0  -0.312414  -0.566246  0  2.326355  0
O  O28  1  0.38618287  0.59710495  0.39574394  1  0  -0.68289  0  2.098051  0  0  -0.599371  0  2.370454  0  0  -0.633887  0  2.355335  0  0  -0.326943  -0.574876  0  2.379786  0
O  O29  1  0.61380285  0.40289336  0.60426270  1  0  -0.683056  0  2.097962  0  0  -0.599509  0  2.370304  0  0  -0.634027  0  2.355182  0  0  -0.327003  -0.57502  0  2.379657  0
O  O30  1  0.17783026  0.79908861  0.66322100  1  0  -0.613262  0  2.014096  0  0  -0.560053  0  2.24522  0  0  -0.586984  0  2.238847  0  0  -0.306209  -0.541003  0  2.248855  0
O  O31  1  0.82216745  0.20091220  0.33678282  1  0  -0.613195  0  2.01416  0  0  -0.559978  0  2.245328  0  0  -0.586901  0  2.238944  0  0  -0.30618  -0.540927  0  2.248962  0
O  O32  1  0.27081892  0.06777768  0.70636704  1  0  -0.629313  0  2.023094  0  0  -0.568287  0  2.278852  0  0  -0.598099  0  2.269631  0  0  -0.321924  -0.547249  0  2.284244  0
O  O33  1  0.72918603  0.93222401  0.29362030  1  0  -0.629342  0  2.023086  0  0  -0.568288  0  2.278855  0  0  -0.598109  0  2.269648  0  0  -0.321931  -0.547244  0  2.284237  0
O  O34  1  0.18679716  0.49539814  0.84067449  1  0  -0.81715  0  1.790152  0  0  -0.752822  0  1.969044  0  0  -0.776829  0  1.940546  0  0  -0.575647  -0.735767  0  1.988764  0
O  O35  1  0.81320335  0.50461207  0.15932949  1  0  -0.817061  0  1.790153  0  0  -0.752669  0  1.969108  0  0  -0.776677  0  1.940614  0  0  -0.575594  -0.735614  0  1.988827  0
