# generated using pymatgen
data_ZnP2H8(CO2)3
_symmetry_space_group_name_H-M   'P 1'
_cell_length_a   5.06679777
_cell_length_b   8.46429663
_cell_length_c   18.15813926
_cell_angle_alpha   92.82315234
_cell_angle_beta   90.00007011
_cell_angle_gamma   90.00082537
_symmetry_Int_Tables_number   1
_chemical_formula_structural   ZnP2H8(CO2)3
_chemical_formula_sum   'Zn4 P8 H32 C12 O24'
_cell_volume   777.80077534
_cell_formula_units_Z   4
loop_
 _symmetry_equiv_pos_site_id
 _symmetry_equiv_pos_as_xyz
  1  'x, y, z'
loop_
 _atom_site_type_symbol
 _atom_site_label
 _atom_site_symmetry_multiplicity
 _atom_site_fract_x
 _atom_site_fract_y
 _atom_site_fract_z
 _atom_site_occupancy
 _atom_site_hle17_bader_spin_density
 _atom_site_hle17_ddec_charge
 _atom_site_hle17_ddec_spin_density
 _atom_site_hle17_ddec_sum_bond_order
 _atom_site_hle17_magmom
 _atom_site_hse06_10hf_bader_spin_density
 _atom_site_hse06_10hf_ddec_charge
 _atom_site_hse06_10hf_ddec_spin_density
 _atom_site_hse06_10hf_ddec_sum_bond_order
 _atom_site_hse06_10hf_magmom
 _atom_site_hse06_bader_spin_density
 _atom_site_hse06_ddec_charge
 _atom_site_hse06_ddec_spin_density
 _atom_site_hse06_ddec_sum_bond_order
 _atom_site_hse06_magmom
 _atom_site_pbe_bader_spin_density
 _atom_site_pbe_cm5_charge
 _atom_site_pbe_ddec_charge
 _atom_site_pbe_ddec_spin_density
 _atom_site_pbe_ddec_sum_bond_order
 _atom_site_pbe_magmom
Zn  Zn0  1  0.45141226  0.44056866  0.81132470  1  0  1.290803  0  1.734607  0  0  1.122927  0  2.220637  0  0  1.165555  0  2.156633  0  0  0.73509  1.092674  0  2.265071  0
Zn  Zn1  1  0.95141160  0.05943533  0.68867641  1  0  1.290803  0  1.734731  0  0  1.122879  0  2.220821  0  0  1.165509  0  2.156817  0  0  0.735054  1.092627  0  2.26525  0
Zn  Zn2  1  0.54857843  0.55943669  0.18866926  1  0  1.290691  0  1.734766  0  0  1.122845  0  2.220881  0  0  1.165482  0  2.156872  0  0  0.735103  1.092587  0  2.265316  0
Zn  Zn3  1  0.04858698  0.94055574  0.31132545  1  0  1.290799  0  1.734708  0  0  1.122858  0  2.220824  0  0  1.165489  0  2.156826  0  0  0.735075  1.092613  0  2.265261  0
P  P4  1  0.57769457  0.13055247  0.37500904  1  0  1.540481  0  4.724247  0  0  1.380871  0  5.224863  0  0  1.429746  0  5.187921  0  0  0.369183  1.34683  0  5.24992  0
P  P5  1  0.07766913  0.36945728  0.12499751  1  0  1.540225  0  4.724467  0  0  1.38075  0  5.224963  0  0  1.429633  0  5.188031  0  0  0.369195  1.34672  0  5.250012  0
P  P6  1  0.42230994  0.86944100  0.62499013  1  0  1.540728  0  4.723814  0  0  1.381088  0  5.22446  0  0  1.429964  0  5.187505  0  0  0.369281  1.347031  0  5.249525  0
P  P7  1  0.92232946  0.63056687  0.87500849  1  0  1.540528  0  4.723852  0  0  1.380974  0  5.224422  0  0  1.429843  0  5.187484  0  0  0.369352  1.346939  0  5.249476  0
P  P8  1  0.75493468  0.41056314  0.65704337  1  0  1.553357  0  4.690323  0  0  1.395421  0  5.186116  0  0  1.444072  0  5.14912  0  0  0.382292  1.361467  0  5.211278  0
P  P9  1  0.25494080  0.08944263  0.84296432  1  0  1.553351  0  4.690262  0  0  1.395424  0  5.18609  0  0  1.444056  0  5.149106  0  0  0.382275  1.361475  0  5.211244  0
P  P10  1  0.24508562  0.58943033  0.34295525  1  0  1.553652  0  4.689583  0  0  1.395715  0  5.185332  0  0  1.44437  0  5.148334  0  0  0.38237  1.361765  0  5.2105  0
P  P11  1  0.74506765  0.91056024  0.15704114  1  0  1.553252  0  4.690464  0  0  1.395373  0  5.186173  0  0  1.444024  0  5.149193  0  0  0.382253  1.361432  0  5.211319  0
H  H12  1  0.05122230  0.60489672  0.63707425  1  0  0.447343  0  0.845794  0  0  0.41361  0  0.911134  0  0  0.425215  0  0.894373  0  0  0.319723  0.405479  0  0.92286  0
H  H13  1  0.55121065  0.89509965  0.86292449  1  0  0.447326  0  0.845825  0  0  0.413582  0  0.911187  0  0  0.425183  0  0.894434  0  0  0.319698  0.405453  0  0.922917  0
H  H14  1  0.94879603  0.39508968  0.36292198  1  0  0.447389  0  0.845709  0  0  0.413594  0  0.911133  0  0  0.425189  0  0.894391  0  0  0.319707  0.405472  0  0.922845  0
H  H15  1  0.44879583  0.10489857  0.13707315  1  0  0.447286  0  0.845871  0  0  0.413597  0  0.91114  0  0  0.4252  0  0.894383  0  0  0.319741  0.405471  0  0.922862  0
H  H16  1  0.57352097  0.35630688  0.31354065  1  0  0.444611  0  0.855293  0  0  0.4104  0  0.922186  0  0  0.422191  0  0.905367  0  0  0.314666  0.402175  0  0.933895  0
H  H17  1  0.07351794  0.14369578  0.18646186  1  0  0.444634  0  0.855266  0  0  0.410415  0  0.922179  0  0  0.422203  0  0.905365  0  0  0.314687  0.402191  0  0.933888  0
H  H18  1  0.42649341  0.64368538  0.68646014  1  0  0.444602  0  0.855283  0  0  0.410383  0  0.922195  0  0  0.422174  0  0.905377  0  0  0.314634  0.402154  0  0.933907  0
H  H19  1  0.92647472  0.85631429  0.81353387  1  0  0.444642  0  0.855251  0  0  0.410408  0  0.922193  0  0  0.422195  0  0.905379  0  0  0.31467  0.402186  0  0.933899  0
H  H20  1  0.41877144  0.23433794  0.61574096  1  0  0.140076  0  0.959747  0  0  0.15315  0  1.017741  0  0  0.155724  0  1.017524  0  0  0.109017  0.151246  0  1.018073  0
H  H21  1  0.91874096  0.26565280  0.88425650  1  0  0.139943  0  0.959776  0  0  0.153119  0  1.017724  0  0  0.155686  0  1.017515  0  0  0.109024  0.151213  0  1.018056  0
H  H22  1  0.58122123  0.76566856  0.38425689  1  0  0.140051  0  0.959761  0  0  0.15311  0  1.017747  0  0  0.155684  0  1.017542  0  0  0.108996  0.151206  0  1.018078  0
H  H23  1  0.08124973  0.73434185  0.11574325  1  0  0.139988  0  0.959802  0  0  0.153112  0  1.017728  0  0  0.15568  0  1.017526  0  0  0.109034  0.15121  0  1.018059  0
H  H24  1  0.38779545  0.41965204  0.57736432  1  0  0.136734  0  0.941772  0  0  0.150189  0  0.997615  0  0  0.15263  0  0.997787  0  0  0.108495  0.148416  0  0.997625  0
H  H25  1  0.88777447  0.08033486  0.92263468  1  0  0.136749  0  0.941766  0  0  0.150169  0  0.997713  0  0  0.152609  0  0.997885  0  0  0.10846  0.148387  0  0.997737  0
H  H26  1  0.61222879  0.58034851  0.42263613  1  0  0.136739  0  0.941694  0  0  0.150174  0  0.99755  0  0  0.15262  0  0.997725  0  0  0.108462  0.148394  0  0.997571  0
H  H27  1  0.11223201  0.91966335  0.07736351  1  0  0.136756  0  0.941667  0  0  0.150131  0  0.997622  0  0  0.152575  0  0.997795  0  0  0.108456  0.148348  0  0.997645  0
H  H28  1  0.33953015  0.09778974  0.48653978  1  0  0.139017  0  0.948403  0  0  0.153021  0  1.005938  0  0  0.155169  0  1.006443  0  0  0.107851  0.151465  0  1.005713  0
H  H29  1  0.83949368  0.40220343  0.01345984  1  0  0.138958  0  0.948239  0  0  0.152955  0  1.005787  0  0  0.155106  0  1.006291  0  0  0.107774  0.151391  0  1.005573  0
H  H30  1  0.66047041  0.90220492  0.51345777  1  0  0.138937  0  0.948424  0  0  0.152973  0  1.005933  0  0  0.155119  0  1.006441  0  0  0.107815  0.151418  0  1.005705  0
H  H31  1  0.16046544  0.59780067  0.98654125  1  0  0.139038  0  0.94833  0  0  0.153059  0  1.00583  0  0  0.155212  0  1.006327  0  0  0.107858  0.151495  0  1.005615  0
H  H32  1  0.29869199  0.28823390  0.45320486  1  0  0.140866  0  0.958817  0  0  0.154166  0  1.01409  0  0  0.156713  0  1.014003  0  0  0.106685  0.152285  0  1.014332  0
H  H33  1  0.79868263  0.21175891  0.04679528  1  0  0.14085  0  0.958947  0  0  0.154156  0  1.014204  0  0  0.156723  0  1.014095  0  0  0.106649  0.152274  0  1.01444  0
H  H34  1  0.70130462  0.71175600  0.54679587  1  0  0.140824  0  0.958697  0  0  0.154104  0  1.014006  0  0  0.156634  0  1.013936  0  0  0.10666  0.152233  0  1.014236  0
H  H35  1  0.20130411  0.78824633  0.95320969  1  0  0.140896  0  0.958786  0  0  0.154173  0  1.014084  0  0  0.156729  0  1.013984  0  0  0.106681  0.152291  0  1.014321  0
H  H36  1  0.80209739  0.16771993  0.52850298  1  0  0.06493  0  0.932717  0  0  0.085664  0  0.993089  0  0  0.086367  0  0.9933  0  0  0.094576  0.085067  0  0.993066  0
H  H37  1  0.30205065  0.33227563  0.97150226  1  0  0.065079  0  0.933064  0  0  0.085654  0  0.993526  0  0  0.086355  0  0.993739  0  0  0.094567  0.085054  0  0.993505  0
H  H38  1  0.19789724  0.83227710  0.47149463  1  0  0.06494  0  0.932665  0  0  0.085695  0  0.993055  0  0  0.0864  0  0.993266  0  0  0.094587  0.085096  0  0.993032  0
H  H39  1  0.69791833  0.66772485  0.02850534  1  0  0.064994  0  0.932844  0  0  0.085603  0  0.993334  0  0  0.086305  0  0.993547  0  0  0.094567  0.085005  0  0.993308  0
H  H40  1  0.77150828  0.35582091  0.49248567  1  0  0.068637  0  0.939013  0  0  0.086571  0  1.001612  0  0  0.087379  0  1.001977  0  0  0.094047  0.085884  0  1.001526  0
H  H41  1  0.27149473  0.14416924  0.00752045  1  0  0.068577  0  0.939032  0  0  0.086488  0  1.001631  0  0  0.087294  0  1.001993  0  0  0.094056  0.0858  0  1.001545  0
H  H42  1  0.22849031  0.64417969  0.50751037  1  0  0.068634  0  0.939099  0  0  0.086595  0  1.001692  0  0  0.087404  0  1.002056  0  0  0.094084  0.085906  0  1.001606  0
H  H43  1  0.72848412  0.85582413  0.99248752  1  0  0.068605  0  0.939008  0  0  0.086554  0  1.00159  0  0  0.087362  0  1.001953  0  0  0.094051  0.085864  0  1.001506  0
C  C44  1  0.53139195  0.32665222  0.58897621  1  0  -0.469774  0  3.670676  0  0  -0.481637  0  3.914367  0  0  -0.492569  0  3.924017  0  0  -0.170448  -0.474061  0  3.907917  0
C  C45  1  0.03137076  0.17333032  0.91103081  1  0  -0.469671  0  3.670548  0  0  -0.481717  0  3.914416  0  0  -0.492645  0  3.924074  0  0  -0.170443  -0.47414  0  3.907966  0
C  C46  1  0.46861058  0.67335425  0.41102384  1  0  -0.469878  0  3.670599  0  0  -0.481644  0  3.914271  0  0  -0.492612  0  3.923975  0  0  -0.170362  -0.474065  0  3.907815  0
C  C47  1  0.96861599  0.82666427  0.08897445  1  0  -0.46983  0  3.670785  0  0  -0.481613  0  3.914398  0  0  -0.492568  0  3.924093  0  0  -0.170415  -0.474037  0  3.907946  0
C  C48  1  0.44685945  0.19696089  0.46345611  1  0  -0.472407  0  3.665582  0  0  -0.486394  0  3.913441  0  0  -0.497291  0  3.922957  0  0  -0.17274  -0.478875  0  3.907124  0
C  C49  1  0.94682659  0.30302374  0.03654389  1  0  -0.472364  0  3.665507  0  0  -0.486339  0  3.913281  0  0  -0.497266  0  3.922826  0  0  -0.172669  -0.478813  0  3.90695  0
C  C50  1  0.55313519  0.80303731  0.53654318  1  0  -0.472266  0  3.665425  0  0  -0.486237  0  3.913326  0  0  -0.497117  0  3.92285  0  0  -0.17264  -0.478724  0  3.907003  0
C  C51  1  0.05314436  0.69697442  0.96345926  1  0  -0.472392  0  3.665497  0  0  -0.486341  0  3.913339  0  0  -0.497247  0  3.922849  0  0  -0.172705  -0.478812  0  3.907006  0
C  C52  1  0.65863313  0.26126812  0.51738630  1  0  0.004303  0  3.689995  0  0  -0.043085  0  3.949845  0  0  -0.041269  0  3.964667  0  0  -0.156429  -0.044113  0  3.939635  0
C  C53  1  0.15861970  0.23873571  0.98261470  1  0  0.004275  0  3.690436  0  0  -0.042908  0  3.95019  0  0  -0.041075  0  3.965004  0  0  -0.156421  -0.043943  0  3.939985  0
C  C54  1  0.34136743  0.73872653  0.48261345  1  0  0.004372  0  3.690118  0  0  -0.043127  0  3.950078  0  0  -0.0413  0  3.964896  0  0  -0.156482  -0.044156  0  3.939868  0
C  C55  1  0.84136902  0.76127310  0.01738816  1  0  0.004288  0  3.690307  0  0  -0.043028  0  3.950117  0  0  -0.041208  0  3.964953  0  0  -0.156462  -0.044061  0  3.939913  0
O  O56  1  0.59139478  0.50670341  0.71566440  1  0  -0.87855  0  2.055851  0  0  -0.780725  0  2.343375  0  0  -0.808696  0  2.316553  0  0  -0.363489  -0.761108  0  2.361592  0
O  O57  1  0.09140450  0.99330037  0.78433675  1  0  -0.878574  0  2.055525  0  0  -0.780744  0  2.343088  0  0  -0.808701  0  2.31623  0  0  -0.363557  -0.761121  0  2.361299  0
O  O58  1  0.40862749  0.49329131  0.28432819  1  0  -0.878591  0  2.055428  0  0  -0.780783  0  2.342995  0  0  -0.808758  0  2.316161  0  0  -0.363466  -0.761171  0  2.36122  0
O  O59  1  0.90860790  0.00670482  0.21567208  1  0  -0.878449  0  2.055389  0  0  -0.780664  0  2.343017  0  0  -0.8086  0  2.316103  0  0  -0.363497  -0.76106  0  2.361254  0
O  O60  1  0.92076859  0.53061712  0.61138638  1  0  -0.756579  0  2.028942  0  0  -0.679626  0  2.256639  0  0  -0.701461  0  2.231889  0  0  -0.380094  -0.664247  0  2.273501  0
O  O61  1  0.42075642  0.96938952  0.88861551  1  0  -0.756606  0  2.029172  0  0  -0.679626  0  2.256853  0  0  -0.701438  0  2.23209  0  0  -0.380063  -0.664229  0  2.273664  0
O  O62  1  0.07924776  0.46937524  0.38860615  1  0  -0.756643  0  2.028778  0  0  -0.679735  0  2.256685  0  0  -0.701549  0  2.231925  0  0  -0.380161  -0.66435  0  2.273533  0
O  O63  1  0.57924809  0.03061571  0.11139001  1  0  -0.756405  0  2.029002  0  0  -0.679624  0  2.256837  0  0  -0.701462  0  2.23209  0  0  -0.380145  -0.664239  0  2.273671  0
O  O64  1  0.70367926  0.28277760  0.33857405  1  0  -0.76448  0  2.054028  0  0  -0.680007  0  2.276344  0  0  -0.703522  0  2.251325  0  0  -0.375589  -0.663658  0  2.293519  0
O  O65  1  0.20367002  0.21720850  0.16142368  1  0  -0.764446  0  2.05388  0  0  -0.679984  0  2.276106  0  0  -0.703497  0  2.251074  0  0  -0.375672  -0.663648  0  2.293281  0
O  O66  1  0.29631735  0.71721349  0.66142616  1  0  -0.764503  0  2.054037  0  0  -0.680074  0  2.276365  0  0  -0.703594  0  2.251346  0  0  -0.375587  -0.663695  0  2.293529  0
O  O67  1  0.79631672  0.78279328  0.83857239  1  0  -0.76442  0  2.053756  0  0  -0.679987  0  2.276082  0  0  -0.703502  0  2.251065  0  0  -0.375667  -0.663658  0  2.293267  0
O  O68  1  0.80580378  0.01807040  0.38917235  1  0  -0.872969  0  1.986531  0  0  -0.779574  0  2.280316  0  0  -0.807414  0  2.255298  0  0  -0.372077  -0.759859  0  2.296938  0
O  O69  1  0.30579087  0.48192366  0.11082673  1  0  -0.873064  0  1.986796  0  0  -0.779621  0  2.280447  0  0  -0.807484  0  2.255444  0  0  -0.372064  -0.759878  0  2.297005  0
O  O70  1  0.19417901  0.98193017  0.61082590  1  0  -0.873124  0  1.986204  0  0  -0.779662  0  2.279926  0  0  -0.807495  0  2.254901  0  0  -0.372078  -0.759947  0  2.296554  0
O  O71  1  0.69421166  0.51805919  0.88916941  1  0  -0.872969  0  1.986209  0  0  -0.779617  0  2.279978  0  0  -0.807455  0  2.25496  0  0  -0.372099  -0.759876  0  2.296542  0
O  O72  1  0.93173132  0.28789532  0.69061748  1  0  -0.879045  0  2.01014  0  0  -0.788528  0  2.31894  0  0  -0.815566  0  2.290969  0  0  -0.372018  -0.769418  0  2.337797  0
O  O73  1  0.43171067  0.21210838  0.80939463  1  0  -0.879014  0  2.010343  0  0  -0.788437  0  2.319077  0  0  -0.815467  0  2.291108  0  0  -0.371925  -0.769333  0  2.337937  0
O  O74  1  0.06827516  0.71210286  0.30938346  1  0  -0.879188  0  2.010145  0  0  -0.788588  0  2.318864  0  0  -0.815625  0  2.290891  0  0  -0.372005  -0.769476  0  2.337721  0
O  O75  1  0.56829778  0.78788627  0.19060457  1  0  -0.878956  0  2.010571  0  0  -0.788433  0  2.319374  0  0  -0.81546  0  2.29139  0  0  -0.371887  -0.769323  0  2.338228  0
O  O76  1  0.36293875  0.06824085  0.32319291  1  0  -0.877436  0  2.025963  0  0  -0.786383  0  2.33543  0  0  -0.812959  0  2.306811  0  0  -0.378782  -0.767633  0  2.354739  0
O  O77  1  0.86293715  0.43175255  0.17680507  1  0  -0.877013  0  2.026196  0  0  -0.786229  0  2.335887  0  0  -0.812795  0  2.307253  0  0  -0.378727  -0.767485  0  2.355196  0
O  O78  1  0.63706378  0.93177158  0.67680343  1  0  -0.877501  0  2.025981  0  0  -0.786497  0  2.335568  0  0  -0.813069  0  2.306943  0  0  -0.378832  -0.767746  0  2.354884  0
O  O79  1  0.13709696  0.56827049  0.82319540  1  0  -0.87745  0  2.026105  0  0  -0.786476  0  2.33568  0  0  -0.81304  0  2.307055  0  0  -0.378802  -0.767731  0  2.354991  0
