# generated using pymatgen
data_HgH11C11Br2N3
_symmetry_space_group_name_H-M   'P 1'
_cell_length_a   7.96806639
_cell_length_b   8.29620985
_cell_length_c   11.46783387
_cell_angle_alpha   102.78349129
_cell_angle_beta   94.13010315
_cell_angle_gamma   114.81177367
_symmetry_Int_Tables_number   1
_chemical_formula_structural   HgH11C11Br2N3
_chemical_formula_sum   'Hg2 H22 C22 Br4 N6'
_cell_volume   659.30252945
_cell_formula_units_Z   2
loop_
 _symmetry_equiv_pos_site_id
 _symmetry_equiv_pos_as_xyz
  1  'x, y, z'
loop_
 _atom_site_type_symbol
 _atom_site_label
 _atom_site_symmetry_multiplicity
 _atom_site_fract_x
 _atom_site_fract_y
 _atom_site_fract_z
 _atom_site_occupancy
 _atom_site_hle17_bader_spin_density
 _atom_site_hle17_ddec_charge
 _atom_site_hle17_ddec_spin_density
 _atom_site_hle17_ddec_sum_bond_order
 _atom_site_hle17_magmom
 _atom_site_hse06_10hf_bader_spin_density
 _atom_site_hse06_10hf_ddec_charge
 _atom_site_hse06_10hf_ddec_spin_density
 _atom_site_hse06_10hf_ddec_sum_bond_order
 _atom_site_hse06_10hf_magmom
 _atom_site_hse06_bader_spin_density
 _atom_site_hse06_ddec_charge
 _atom_site_hse06_ddec_spin_density
 _atom_site_hse06_ddec_sum_bond_order
 _atom_site_hse06_magmom
 _atom_site_pbe_bader_spin_density
 _atom_site_pbe_cm5_charge
 _atom_site_pbe_ddec_charge
 _atom_site_pbe_ddec_spin_density
 _atom_site_pbe_ddec_sum_bond_order
 _atom_site_pbe_magmom
Hg  Hg0  1  0.93735907  0.56307410  0.21433044  1  0  0.662205  0  2.085504  0  0  0.508965  0  2.579178  0  0  0.558407  0  2.546716  0  0  0.474169  0.47554  0  2.600852  0
Hg  Hg1  1  0.06264031  0.43692662  0.78567128  1  0  0.662205  0  2.085493  0  0  0.508974  0  2.579132  0  0  0.558416  0  2.546673  0  0  0.474166  0.475547  0  2.600803  0
H  H2  1  0.86587802  0.86317732  0.17862562  1  0  0.25383  0  0.975196  0  0  0.236471  0  1.049986  0  0  0.243284  0  1.044538  0  0  0.271484  0.231627  0  1.053854  0
H  H3  1  0.13412451  0.13682480  0.82137735  1  0  0.25385  0  0.975176  0  0  0.23649  0  1.049953  0  0  0.243292  0  1.044505  0  0  0.27147  0.231649  0  1.05382  0
H  H4  1  0.51573281  0.81229794  0.15737394  1  0  0.114998  0  0.955566  0  0  0.120068  0  1.023402  0  0  0.123917  0  1.021584  0  0  0.10091  0.117299  0  1.024876  0
H  H5  1  0.48426974  0.18769865  0.84262466  1  0  0.114978  0  0.955635  0  0  0.120078  0  1.023432  0  0  0.123928  0  1.021611  0  0  0.100904  0.11731  0  1.024909  0
H  H6  1  0.20880532  0.80623306  0.08904133  1  0  0.073678  0  1.00743  0  0  0.078783  0  1.084509  0  0  0.081101  0  1.082377  0  0  0.081043  0.07705  0  1.086045  0
H  H7  1  0.79120223  0.19377181  0.91095622  1  0  0.073662  0  1.007389  0  0  0.078738  0  1.084497  0  0  0.081045  0  1.082389  0  0  0.081001  0.077005  0  1.086029  0
H  H8  1  0.19906923  0.10783251  0.09379581  1  0  0.099539  0  0.963332  0  0  0.109142  0  1.025402  0  0  0.112536  0  1.024069  0  0  0.094557  0.106665  0  1.026601  0
H  H9  1  0.80093393  0.89216544  0.90619955  1  0  0.099561  0  0.963196  0  0  0.109193  0  1.025252  0  0  0.112572  0  1.023931  0  0  0.094567  0.106715  0  1.026453  0
H  H10  1  0.49924130  0.39898706  0.16034540  1  0  0.079422  0  0.949257  0  0  0.082041  0  1.024517  0  0  0.085051  0  1.021263  0  0  0.102076  0.079763  0  1.027034  0
H  H11  1  0.50076123  0.60101227  0.83965102  1  0  0.079459  0  0.949287  0  0  0.082065  0  1.024562  0  0  0.085076  0  1.021306  0  0  0.102094  0.079787  0  1.027077  0
H  H12  1  0.93499627  0.23739786  0.31853369  1  0  0.076839  0  0.946655  0  0  0.089413  0  1.017623  0  0  0.090083  0  1.017157  0  0  0.102785  0.089002  0  1.017845  0
H  H13  1  0.06500500  0.76260424  0.68146747  1  0  0.076838  0  0.946635  0  0  0.089426  0  1.017607  0  0  0.090095  0  1.017143  0  0  0.102803  0.089017  0  1.017824  0
H  H14  1  0.94728377  0.16291350  0.16591693  1  0  0.082388  0  0.924486  0  0  0.098262  0  0.990498  0  0  0.099077  0  0.989433  0  0  0.106035  0.097599  0  0.991378  0
H  H15  1  0.05271876  0.83708861  0.83408341  1  0  0.082401  0  0.924506  0  0  0.098251  0  0.990566  0  0  0.099065  0  0.989504  0  0  0.106004  0.097586  0  0.991448  0
H  H16  1  0.74979532  0.11716289  0.44435029  1  0  0.106955  0  0.977038  0  0  0.115094  0  1.042923  0  0  0.118668  0  1.041806  0  0  0.094621  0.112551  0  1.044023  0
H  H17  1  0.25020469  0.88283921  0.55565079  1  0  0.106971  0  0.977068  0  0  0.115106  0  1.042956  0  0  0.118679  0  1.041839  0  0  0.094617  0.112563  0  1.044055  0
H  H18  1  0.65533033  0.98694195  0.61451531  1  0  0.082666  0  0.966395  0  0  0.092955  0  1.03137  0  0  0.094898  0  1.030268  0  0  0.092347  0.091515  0  1.032235  0
H  H19  1  0.34466777  0.01306151  0.38548590  1  0  0.082693  0  0.966444  0  0  0.092978  0  1.03141  0  0  0.09492  0  1.030308  0  0  0.092343  0.091541  0  1.03228  0
H  H20  1  0.65643417  0.68082541  0.61579698  1  0  0.097803  0  0.978637  0  0  0.105253  0  1.046139  0  0  0.108088  0  1.046517  0  0  0.090473  0.103343  0  1.045874  0
H  H21  1  0.34356331  0.31917667  0.38420310  1  0  0.097762  0  0.978635  0  0  0.105221  0  1.046145  0  0  0.108055  0  1.046523  0  0  0.090462  0.10331  0  1.04588  0
H  H22  1  0.75427770  0.52589413  0.44192114  1  0  0.065003  0  0.959104  0  0  0.070577  0  1.032458  0  0  0.073432  0  1.028854  0  0  0.098013  0.068176  0  1.035626  0
H  H23  1  0.24571601  0.47410518  0.55807919  1  0  0.065007  0  0.95906  0  0  0.070581  0  1.032419  0  0  0.073435  0  1.028817  0  0  0.098001  0.068176  0  1.03559  0
C  C24  1  0.66946007  0.10887259  0.19531790  1  0  0.223438  0  3.706306  0  0  0.228042  0  3.945553  0  0  0.235729  0  3.967381  0  0  0.117155  0.222996  0  3.930718  0
C  C25  1  0.33054375  0.89112402  0.80468426  1  0  0.223468  0  3.706489  0  0  0.228082  0  3.945734  0  0  0.235768  0  3.967565  0  0  0.11717  0.223038  0  3.930894  0
C  C26  1  0.50764313  0.94015389  0.15774446  1  0  -0.152891  0  3.706414  0  0  -0.170729  0  3.95198  0  0  -0.17873  0  3.973951  0  0  -0.087335  -0.165616  0  3.937385  0
C  C27  1  0.49235938  0.05985095  0.84225283  1  0  -0.15284  0  3.706092  0  0  -0.170697  0  3.951649  0  0  -0.178696  0  3.973615  0  0  -0.087279  -0.165588  0  3.937059  0
C  C28  1  0.33606510  0.93718704  0.12031017  1  0  0.00406  0  3.737344  0  0  -0.011909  0  3.982474  0  0  -0.008417  0  4.002531  0  0  -0.073061  -0.013872  0  3.968837  0
C  C29  1  0.66394567  0.06280544  0.87968645  1  0  0.004047  0  3.737333  0  0  -0.011901  0  3.982481  0  0  -0.008412  0  4.002532  0  0  -0.073032  -0.013862  0  3.968842  0
C  C30  1  0.32971094  0.10304654  0.12251083  1  0  -0.118698  0  3.726493  0  0  -0.128756  0  3.970626  0  0  -0.136793  0  3.992817  0  0  -0.090189  -0.123623  0  3.955789  0
C  C31  1  0.67029156  0.89695830  0.87748471  1  0  -0.118643  0  3.726707  0  0  -0.128714  0  3.97077  0  0  -0.136732  0  3.992984  0  0  -0.090173  -0.123587  0  3.955946  0
C  C32  1  0.49662484  0.26621281  0.15988893  1  0  0.128227  0  3.712306  0  0  0.097386  0  3.965681  0  0  0.105396  0  3.984083  0  0  0.039769  0.092317  0  3.953028  0
C  C33  1  0.50337832  0.73378791  0.84010948  1  0  0.12815  0  3.71224  0  0  0.097313  0  3.965611  0  0  0.105322  0  3.984006  0  0  0.039744  0.092244  0  3.952956  0
C  C34  1  0.86165709  0.12232714  0.23521508  1  0  -0.026023  0  3.723217  0  0  -0.090658  0  3.977659  0  0  -0.086443  0  3.988431  0  0  -0.056354  -0.093287  0  3.969877  0
C  C35  1  0.13834670  0.87767498  0.76478707  1  0  -0.025993  0  3.723191  0  0  -0.090664  0  3.97768  0  0  -0.086468  0  3.988446  0  0  -0.05635  -0.093289  0  3.969897  0
C  C36  1  0.80495536  0.89040561  0.34940676  1  0  0.411897  0  3.814054  0  0  0.384956  0  4.069964  0  0  0.404436  0  4.085515  0  0  0.222214  0.372063  0  4.059077  0
C  C37  1  0.19504277  0.10959511  0.65059488  1  0  0.411826  0  3.814139  0  0  0.384933  0  4.069973  0  0  0.404393  0  4.085525  0  0  0.222221  0.372043  0  4.059085  0
C  C38  1  0.75064030  0.98651901  0.44500666  1  0  -0.223172  0  3.698525  0  0  -0.237359  0  3.948179  0  0  -0.248917  0  3.968413  0  0  -0.105879  -0.230002  0  3.934648  0
C  C39  1  0.24936035  0.01348173  0.55499773  1  0  -0.223074  0  3.698391  0  0  -0.237288  0  3.948027  0  0  -0.248848  0  3.968268  0  0  -0.105855  -0.22993  0  3.934496  0
C  C40  1  0.69702803  0.91229184  0.54086827  1  0  0.024558  0  3.748015  0  0  0.005809  0  3.997156  0  0  0.013838  0  4.012495  0  0  -0.077499  0.000888  0  3.98652  0
C  C41  1  0.30297133  0.08771161  0.45912951  1  0  0.024382  0  3.747969  0  0  0.005639  0  3.997117  0  0  0.013668  0  4.012455  0  0  -0.077544  0.000711  0  3.98649  0
C  C42  1  0.69640608  0.74370235  0.54206283  1  0  -0.159532  0  3.768417  0  0  -0.174266  0  4.022756  0  0  -0.183412  0  4.043998  0  0  -0.113926  -0.168269  0  4.008166  0
C  C43  1  0.30358890  0.25629697  0.45793844  1  0  -0.159434  0  3.768441  0  0  -0.17418  0  4.022771  0  0  -0.183327  0  4.044015  0  0  -0.113904  -0.168182  0  4.008181  0
C  C44  1  0.75097377  0.65697350  0.44517975  1  0  0.131809  0  3.764171  0  0  0.100884  0  4.019607  0  0  0.110846  0  4.037148  0  0  0.02812  0.094556  0  4.007597  0
C  C45  1  0.24902121  0.34302582  0.55482326  1  0  0.131859  0  3.76413  0  0  0.100923  0  4.019572  0  0  0.110885  0  4.037113  0  0  0.02818  0.094598  0  4.007559  0
Br  Br46  1  0.82059415  0.60639340  0.00984843  1  0  -0.461844  0  1.044788  0  0  -0.406493  0  1.353937  0  0  -0.424713  0  1.332687  0  0  -0.223694  -0.393783  0  1.368751  0
Br  Br47  1  0.17940464  0.39360044  0.99015390  1  0  -0.461868  0  1.044774  0  0  -0.406527  0  1.35392  0  0  -0.424745  0  1.332676  0  0  -0.223708  -0.393818  0  1.368734  0
Br  Br48  1  0.24158922  0.61069496  0.33533005  1  0  -0.410441  0  1.043688  0  0  -0.353177  0  1.348298  0  0  -0.372497  0  1.332596  0  0  -0.207287  -0.340456  0  1.359878  0
Br  Br49  1  0.75840198  0.38930437  0.66467627  1  0  -0.410427  0  1.043668  0  0  -0.353168  0  1.348263  0  0  -0.372486  0  1.332559  0  0  -0.207278  -0.340447  0  1.359841  0
N  N50  1  0.66260884  0.26869809  0.19517955  1  0  -0.339612  0  3.223838  0  0  -0.261465  0  3.475187  0  0  -0.283892  0  3.497554  0  0  -0.310951  -0.246294  0  3.45948  0
N  N51  1  0.33738800  0.73130536  0.80481897  1  0  -0.339693  0  3.224121  0  0  -0.261554  0  3.475469  0  0  -0.283981  0  3.497834  0  0  -0.311025  -0.246382  0  3.45976  0
N  N52  1  0.86158151  0.95566620  0.25250458  1  0  -0.420197  0  3.3715  0  0  -0.359882  0  3.612449  0  0  -0.380775  0  3.624804  0  0  -0.440931  -0.345393  0  3.60353  0
N  N53  1  0.13841914  0.04433177  0.74749676  1  0  -0.420248  0  3.371548  0  0  -0.359908  0  3.612467  0  0  -0.380748  0  3.624778  0  0  -0.440897  -0.345428  0  3.603553  0
N  N54  1  0.80402787  0.72702078  0.35128250  1  0  -0.406908  0  3.213066  0  0  -0.329404  0  3.476274  0  0  -0.354188  0  3.495197  0  0  -0.328662  -0.312347  0  3.462803  0
N  N55  1  0.19596899  0.27297992  0.64871821  1  0  -0.406896  0  3.213142  0  0  -0.329393  0  3.476322  0  0  -0.354178  0  3.495252  0  0  -0.328704  -0.312335  0  3.462847  0
