# generated using pymatgen
data_SbH6C5BrCl3
_symmetry_space_group_name_H-M   'P 1'
_cell_length_a   7.60800454
_cell_length_b   8.12784877
_cell_length_c   16.14896705
_cell_angle_alpha   90.00155158
_cell_angle_beta   89.99873366
_cell_angle_gamma   106.70085450
_symmetry_Int_Tables_number   1
_chemical_formula_structural   SbH6C5BrCl3
_chemical_formula_sum   'Sb4 H24 C20 Br4 Cl12'
_cell_volume   956.47630380
_cell_formula_units_Z   4
loop_
 _symmetry_equiv_pos_site_id
 _symmetry_equiv_pos_as_xyz
  1  'x, y, z'
loop_
 _atom_site_type_symbol
 _atom_site_label
 _atom_site_symmetry_multiplicity
 _atom_site_fract_x
 _atom_site_fract_y
 _atom_site_fract_z
 _atom_site_occupancy
 _atom_site_hle17_bader_spin_density
 _atom_site_hle17_ddec_charge
 _atom_site_hle17_ddec_spin_density
 _atom_site_hle17_ddec_sum_bond_order
 _atom_site_hle17_magmom
 _atom_site_hse06_10hf_bader_spin_density
 _atom_site_hse06_10hf_ddec_charge
 _atom_site_hse06_10hf_ddec_spin_density
 _atom_site_hse06_10hf_ddec_sum_bond_order
 _atom_site_hse06_10hf_magmom
 _atom_site_hse06_bader_spin_density
 _atom_site_hse06_ddec_charge
 _atom_site_hse06_ddec_spin_density
 _atom_site_hse06_ddec_sum_bond_order
 _atom_site_hse06_magmom
 _atom_site_pbe_bader_spin_density
 _atom_site_pbe_cm5_charge
 _atom_site_pbe_ddec_charge
 _atom_site_pbe_ddec_spin_density
 _atom_site_pbe_ddec_sum_bond_order
 _atom_site_pbe_magmom
Sb  Sb0  1  0.68159245  0.21923273  0.58035877  1  0  0.945613  0  2.848524  0  0  0.84255  0  3.34996  0  0  0.868157  0  3.336858  0  0  0.495884  0.81952  0  3.360719  0
Sb  Sb1  1  0.31841799  0.28077007  0.08036323  1  0  0.945651  0  2.848661  0  0  0.842652  0  3.349989  0  0  0.868245  0  3.336906  0  0  0.495926  0.819628  0  3.360732  0
Sb  Sb2  1  0.31842171  0.78068751  0.41964037  1  0  0.945529  0  2.848451  0  0  0.842619  0  3.349655  0  0  0.868211  0  3.336569  0  0  0.49595  0.819588  0  3.360411  0
Sb  Sb3  1  0.68158526  0.71931777  0.91963838  1  0  0.945464  0  2.848574  0  0  0.842577  0  3.349756  0  0  0.868166  0  3.336671  0  0  0.495915  0.819548  0  3.360516  0
H  H4  1  0.30566474  0.68126179  0.69462576  1  0  0.097023  0  0.955763  0  0  0.108591  0  1.023469  0  0  0.109569  0  1.023623  0  0  0.086676  0.107776  0  1.023577  0
H  H5  1  0.69431669  0.81875217  0.19463225  1  0  0.096914  0  0.955973  0  0  0.10856  0  1.023651  0  0  0.109506  0  1.023838  0  0  0.086649  0.107753  0  1.023752  0
H  H6  1  0.69436573  0.31870471  0.30537770  1  0  0.096936  0  0.955716  0  0  0.108557  0  1.023471  0  0  0.109529  0  1.023638  0  0  0.086678  0.107744  0  1.023577  0
H  H7  1  0.30563427  0.18128773  0.80538237  1  0  0.09692  0  0.955908  0  0  0.10853  0  1.023591  0  0  0.109522  0  1.023732  0  0  0.08664  0.107719  0  1.023697  0
H  H8  1  0.12619464  0.51356210  0.74207383  1  0  0.106057  0  0.928907  0  0  0.118365  0  0.991271  0  0  0.119743  0  0.990728  0  0  0.093755  0.11725  0  0.991881  0
H  H9  1  0.87378751  0.98642587  0.24207942  1  0  0.105936  0  0.928813  0  0  0.118268  0  0.991226  0  0  0.119647  0  0.990682  0  0  0.093721  0.117153  0  0.991834  0
H  H10  1  0.87382996  0.48638898  0.25791540  1  0  0.10581  0  0.928992  0  0  0.118279  0  0.991249  0  0  0.119662  0  0.990701  0  0  0.093733  0.117165  0  0.991859  0
H  H11  1  0.12618167  0.01359119  0.75792219  1  0  0.106042  0  0.928718  0  0  0.118371  0  0.991083  0  0  0.119752  0  0.990543  0  0  0.093775  0.117254  0  0.991697  0
H  H12  1  0.19588359  0.29522907  0.65177577  1  0  0.088266  0  0.952501  0  0  0.101641  0  1.019247  0  0  0.102842  0  1.019177  0  0  0.08346  0.100653  0  1.019467  0
H  H13  1  0.80410574  0.20475755  0.15179127  1  0  0.08839  0  0.952616  0  0  0.101746  0  1.0194  0  0  0.102948  0  1.019327  0  0  0.083488  0.100757  0  1.019622  0
H  H14  1  0.80411541  0.70473326  0.34820416  1  0  0.08823  0  0.952632  0  0  0.101624  0  1.019319  0  0  0.102821  0  1.019256  0  0  0.083432  0.100633  0  1.01953  0
H  H15  1  0.19590829  0.79526895  0.84820724  1  0  0.088283  0  0.952696  0  0  0.101669  0  1.019398  0  0  0.10287  0  1.019332  0  0  0.083447  0.100678  0  1.019612  0
H  H16  1  0.39459608  0.41243373  0.70649479  1  0  0.094485  0  0.949072  0  0  0.10752  0  1.019773  0  0  0.108033  0  1.020094  0  0  0.087414  0.107077  0  1.019647  0
H  H17  1  0.60540252  0.08757469  0.20650898  1  0  0.094468  0  0.949142  0  0  0.107506  0  1.019891  0  0  0.108026  0  1.020199  0  0  0.08737  0.107065  0  1.01976  0
H  H18  1  0.60542231  0.58751856  0.29348886  1  0  0.094498  0  0.94932  0  0  0.107487  0  1.020032  0  0  0.107995  0  1.020355  0  0  0.087339  0.107045  0  1.019903  0
H  H19  1  0.39460806  0.91250683  0.79350254  1  0  0.094407  0  0.949252  0  0  0.107441  0  1.019907  0  0  0.107951  0  1.020231  0  0  0.087386  0.106998  0  1.019783  0
H  H20  1  0.61607144  0.67943377  0.62393162  1  0  0.106529  0  0.973446  0  0  0.114351  0  1.04063  0  0  0.117062  0  1.03945  0  0  0.084479  0.112236  0  1.041718  0
H  H21  1  0.38390374  0.82058843  0.12394397  1  0  0.106549  0  0.973533  0  0  0.114472  0  1.040603  0  0  0.11711  0  1.039514  0  0  0.08454  0.112403  0  1.04165  0
H  H22  1  0.38395579  0.32051733  0.37605451  1  0  0.106419  0  0.973909  0  0  0.114356  0  1.040922  0  0  0.117  0  1.039824  0  0  0.08449  0.112235  0  1.04203  0
H  H23  1  0.61608059  0.17946208  0.87606197  1  0  0.106526  0  0.973576  0  0  0.114376  0  1.040694  0  0  0.117045  0  1.039568  0  0  0.084449  0.112254  0  1.041802  0
H  H24  1  0.21789963  0.25437249  0.50877676  1  0  0.100138  0  0.977368  0  0  0.105144  0  1.05005  0  0  0.107994  0  1.048571  0  0  0.08297  0.102907  0  1.051409  0
H  H25  1  0.78212844  0.24560804  0.00878810  1  0  0.100157  0  0.977349  0  0  0.105129  0  1.05004  0  0  0.107981  0  1.048563  0  0  0.082915  0.102893  0  1.051397  0
H  H26  1  0.78212291  0.74558497  0.49120876  1  0  0.100145  0  0.977533  0  0  0.105119  0  1.050196  0  0  0.107975  0  1.048724  0  0  0.082932  0.10288  0  1.051559  0
H  H27  1  0.21787453  0.75443883  0.99122156  1  0  0.100229  0  0.97771  0  0  0.105204  0  1.050338  0  0  0.108057  0  1.048861  0  0  0.08302  0.102969  0  1.051694  0
C  C28  1  0.20781540  0.55432399  0.68590722  1  0  -0.04287  0  3.478551  0  0  -0.086966  0  3.748222  0  0  -0.081421  0  3.755051  0  0  -0.143935  -0.090753  0  3.743635  0
C  C29  1  0.79213122  0.94566872  0.18591996  1  0  -0.042398  0  3.478119  0  0  -0.086729  0  3.748101  0  0  -0.081162  0  3.754971  0  0  -0.143831  -0.090523  0  3.743495  0
C  C30  1  0.79218703  0.44564990  0.31407891  1  0  -0.042372  0  3.477938  0  0  -0.086837  0  3.74787  0  0  -0.081294  0  3.754725  0  0  -0.143959  -0.090628  0  3.74328  0
C  C31  1  0.20783270  0.05435724  0.81409094  1  0  -0.042598  0  3.478122  0  0  -0.086851  0  3.747859  0  0  -0.081323  0  3.754707  0  0  -0.143907  -0.090641  0  3.743274  0
C  C32  1  0.29847536  0.42122320  0.65661168  1  0  -0.162929  0  3.724914  0  0  -0.203859  0  3.967615  0  0  -0.205583  0  3.981532  0  0  -0.1737  -0.202402  0  3.957858  0
C  C33  1  0.70152292  0.07878550  0.15662657  1  0  -0.162925  0  3.725154  0  0  -0.203918  0  3.96808  0  0  -0.205635  0  3.981992  0  0  -0.173634  -0.202465  0  3.958322  0
C  C34  1  0.70153234  0.57875074  0.34337568  1  0  -0.162724  0  3.725581  0  0  -0.203542  0  3.968166  0  0  -0.205257  0  3.982088  0  0  -0.17348  -0.202074  0  3.958387  0
C  C35  1  0.29847437  0.92125107  0.84338681  1  0  -0.16287  0  3.725332  0  0  -0.203776  0  3.967896  0  0  -0.205497  0  3.981818  0  0  -0.17367  -0.20231  0  3.958131  0
C  C36  1  0.40281807  0.46264488  0.57625023  1  0  0.072284  0  3.773084  0  0  0.097676  0  4.00238  0  0  0.096956  0  4.027767  0  0  -0.025269  0.098313  0  3.984656  0
C  C37  1  0.59716047  0.03735612  0.07627311  1  0  0.072256  0  3.77298  0  0  0.09766  0  4.002349  0  0  0.09694  0  4.027718  0  0  -0.025431  0.098298  0  3.984637  0
C  C38  1  0.59718281  0.53731491  0.42373281  1  0  0.071958  0  3.773424  0  0  0.097324  0  4.002727  0  0  0.096605  0  4.028096  0  0  -0.02535  0.097965  0  3.984992  0
C  C39  1  0.40281387  0.96269172  0.92375080  1  0  0.072223  0  3.773378  0  0  0.097662  0  4.002573  0  0  0.096947  0  4.027943  0  0  -0.02531  0.098299  0  3.984846  0
C  C40  1  0.56368824  0.60035105  0.56986413  1  0  -0.126752  0  3.750165  0  0  -0.145113  0  3.998236  0  0  -0.148373  0  4.021117  0  0  -0.104956  -0.14264  0  3.982461  0
C  C41  1  0.43630179  0.89965990  0.06987885  1  0  -0.126915  0  3.750023  0  0  -0.145257  0  3.997895  0  0  -0.148465  0  4.020812  0  0  -0.105015  -0.142822  0  3.982094  0
C  C42  1  0.43632071  0.39959602  0.43011828  1  0  -0.126381  0  3.750526  0  0  -0.1448  0  3.998486  0  0  -0.148006  0  4.021399  0  0  -0.10482  -0.142329  0  3.982702  0
C  C43  1  0.56368216  0.10038933  0.93013329  1  0  -0.126639  0  3.750213  0  0  -0.145042  0  3.998247  0  0  -0.148269  0  4.021149  0  0  -0.104843  -0.142568  0  3.982471  0
C  C44  1  0.34117543  0.36319779  0.50508619  1  0  -0.143366  0  3.783036  0  0  -0.160539  0  4.030838  0  0  -0.163427  0  4.053014  0  0  -0.11032  -0.158248  0  4.015422  0
C  C45  1  0.65882808  0.13678359  0.00510605  1  0  -0.143333  0  3.782764  0  0  -0.160447  0  4.030521  0  0  -0.163339  0  4.052712  0  0  -0.110107  -0.158159  0  4.01511  0
C  C46  1  0.65885035  0.63677507  0.49490117  1  0  -0.143192  0  3.782627  0  0  -0.160311  0  4.030376  0  0  -0.163218  0  4.052595  0  0  -0.110191  -0.158022  0  4.014967  0
C  C47  1  0.34115442  0.86321184  0.99490609  1  0  -0.143211  0  3.782685  0  0  -0.160361  0  4.030469  0  0  -0.163253  0  4.052647  0  0  -0.110196  -0.158072  0  4.015075  0
Br  Br48  1  0.03142894  0.59475970  0.60374902  1  0  -0.119804  0  1.39413  0  0  -0.091103  0  1.701085  0  0  -0.103329  0  1.693958  0  0  0.014328  -0.081855  0  1.706163  0
Br  Br49  1  0.96854770  0.90521551  0.10375000  1  0  -0.120032  0  1.393508  0  0  -0.091308  0  1.700559  0  0  -0.103531  0  1.693417  0  0  0.014228  -0.082055  0  1.705641  0
Br  Br50  1  0.96859589  0.40521443  0.39625135  1  0  -0.120059  0  1.393706  0  0  -0.091337  0  1.700819  0  0  -0.103565  0  1.693685  0  0  0.01425  -0.082075  0  1.705897  0
Br  Br51  1  0.03139904  0.09479234  0.89625285  1  0  -0.120019  0  1.393814  0  0  -0.091317  0  1.700802  0  0  -0.103548  0  1.693681  0  0  0.014258  -0.082059  0  1.705882  0
Cl  Cl52  1  0.69099242  0.28898291  0.72506628  1  0  -0.337234  0  1.118085  0  0  -0.305637  0  1.38197  0  0  -0.311684  0  1.370482  0  0  -0.157778  -0.300044  0  1.390135  0
Cl  Cl53  1  0.30898565  0.21102997  0.22506556  1  0  -0.337257  0  1.118246  0  0  -0.305657  0  1.382069  0  0  -0.311708  0  1.370593  0  0  -0.157791  -0.300057  0  1.39023  0
Cl  Cl54  1  0.30903302  0.71100659  0.27492666  1  0  -0.337245  0  1.1183  0  0  -0.305718  0  1.382175  0  0  -0.311678  0  1.370529  0  0  -0.157784  -0.300173  0  1.390445  0
Cl  Cl55  1  0.69099089  0.78898973  0.77492676  1  0  -0.337221  0  1.118286  0  0  -0.305718  0  1.38219  0  0  -0.311695  0  1.37058  0  0  -0.157784  -0.300126  0  1.390356  0
Cl  Cl56  1  0.88908084  0.04812980  0.59487009  1  0  -0.320881  0  1.096065  0  0  -0.286975  0  1.359988  0  0  -0.292786  0  1.347235  0  0  -0.151809  -0.281509  0  1.369238  0
Cl  Cl57  1  0.11092010  0.45186973  0.09487048  1  0  -0.320966  0  1.09601  0  0  -0.287089  0  1.359927  0  0  -0.292898  0  1.347169  0  0  -0.151867  -0.281617  0  1.369183  0
Cl  Cl58  1  0.11092264  0.95181209  0.40513400  1  0  -0.320973  0  1.095807  0  0  -0.287079  0  1.359585  0  0  -0.292887  0  1.346827  0  0  -0.15191  -0.281603  0  1.36883  0
Cl  Cl59  1  0.88908083  0.54819249  0.90513361  1  0  -0.320978  0  1.095822  0  0  -0.28708  0  1.359585  0  0  -0.29289  0  1.346835  0  0  -0.151911  -0.281605  0  1.368833  0
Cl  Cl60  1  0.40144112  0.98345970  0.60106963  1  0  -0.356573  0  1.127967  0  0  -0.315687  0  1.395229  0  0  -0.32381  0  1.385388  0  0  -0.161227  -0.308295  0  1.402275  0
Cl  Cl61  1  0.59855149  0.51654245  0.10107425  1  0  -0.356532  0  1.128028  0  0  -0.315658  0  1.395277  0  0  -0.323775  0  1.385429  0  0  -0.16121  -0.308273  0  1.402347  0
Cl  Cl62  1  0.59855638  0.01650646  0.39894003  1  0  -0.356578  0  1.127893  0  0  -0.315683  0  1.395031  0  0  -0.323806  0  1.385185  0  0  -0.161268  -0.308345  0  1.402199  0
Cl  Cl63  1  0.40145429  0.48350061  0.89893975  1  0  -0.356512  0  1.127855  0  0  -0.315634  0  1.394991  0  0  -0.323753  0  1.385146  0  0  -0.161236  -0.308307  0  1.402178  0
