# generated using pymatgen
data_ErH27C22(NO5)2
_symmetry_space_group_name_H-M   'P 1'
_cell_length_a   9.12522333
_cell_length_b   11.86842536
_cell_length_c   12.72210000
_cell_angle_alpha   85.66763788
_cell_angle_beta   71.07852098
_cell_angle_gamma   68.91564239
_symmetry_Int_Tables_number   1
_chemical_formula_structural   ErH27C22(NO5)2
_chemical_formula_sum   'Er2 H54 C44 N4 O20'
_cell_volume   1214.79798765
_cell_formula_units_Z   2
loop_
 _symmetry_equiv_pos_site_id
 _symmetry_equiv_pos_as_xyz
  1  'x, y, z'
loop_
 _atom_site_type_symbol
 _atom_site_label
 _atom_site_symmetry_multiplicity
 _atom_site_fract_x
 _atom_site_fract_y
 _atom_site_fract_z
 _atom_site_occupancy
 _atom_site_hle17_bader_spin_density
 _atom_site_hle17_ddec_charge
 _atom_site_hle17_ddec_spin_density
 _atom_site_hle17_ddec_sum_bond_order
 _atom_site_hle17_magmom
 _atom_site_hse06_10hf_bader_spin_density
 _atom_site_hse06_10hf_ddec_charge
 _atom_site_hse06_10hf_ddec_spin_density
 _atom_site_hse06_10hf_ddec_sum_bond_order
 _atom_site_hse06_10hf_magmom
 _atom_site_hse06_bader_spin_density
 _atom_site_hse06_ddec_charge
 _atom_site_hse06_ddec_spin_density
 _atom_site_hse06_ddec_sum_bond_order
 _atom_site_hse06_magmom
 _atom_site_pbe_bader_charge
 _atom_site_pbe_bader_spin_density
 _atom_site_pbe_cm5_charge
 _atom_site_pbe_ddec_charge
 _atom_site_pbe_ddec_spin_density
 _atom_site_pbe_ddec_sum_bond_order
 _atom_site_pbe_magmom
Er  Er0  1  0.84621680  0.89649405  0.52272216  1  0  2.258643  0  1.569589  0  0  2.109808  0  2.038874  0  0  2.249288  0  1.8326  0  2.178427  0  1.471618  2.070852  0  2.069865  0
Er  Er1  1  0.15377960  0.10350723  0.47727709  1  0  2.258601  0  1.569616  0  0  2.109772  0  2.038925  0  0  2.249253  0  1.832631  0  2.178428  0  1.471597  2.070808  0  2.069906  0
H  H2  1  0.88183323  0.26925729  0.32984811  1  0  0.130179  0  0.965042  0  0  0.135943  0  1.03062  0  0  0.13964  0  1.030385  0  0.111967  0  0.107536  0.133068  0  1.0314  0
H  H3  1  0.11816417  0.73074669  0.67014994  1  0  0.130215  0  0.965038  0  0  0.135975  0  1.030618  0  0  0.13967  0  1.03038  0  0.111944  0  0.107555  0.1331  0  1.031396  0
H  H4  1  0.63898827  0.19157760  0.25691096  1  0  0.080546  0  0.963169  0  0  0.091873  0  1.025127  0  0  0.094276  0  1.023711  0  0.111952  0  0.103221  0.089937  0  1.026233  0
H  H5  1  0.36101536  0.80842548  0.74307941  1  0  0.08047  0  0.963319  0  0  0.091844  0  1.025229  0  0  0.094248  0  1.023814  0  0.11189  0  0.103224  0.089913  0  1.026332  0
H  H6  1  0.78461139  0.39554736  0.18559422  1  0  0.102761  0  0.969425  0  0  0.124942  0  1.02858  0  0  0.125776  0  1.02956  0  0.025821  0  0.090223  0.124234  0  1.028104  0
H  H7  1  0.21539384  0.60445482  0.81440056  1  0  0.102774  0  0.969455  0  0  0.124962  0  1.028598  0  0  0.125801  0  1.029572  0  0.025819  0  0.090244  0.124257  0  1.02812  0
H  H8  1  0.58542105  0.40186367  0.18556609  1  0  0.10603  0  0.946844  0  0  0.128834  0  1.006301  0  0  0.129783  0  1.00654  0  0.046393  0  0.09417  0.127917  0  1.006676  0
H  H9  1  0.41458562  0.59814032  0.81442822  1  0  0.106093  0  0.946764  0  0  0.128835  0  1.006282  0  0  0.129783  0  1.006524  0  0.046445  0  0.09415  0.127923  0  1.006657  0
H  H10  1  0.76617180  0.30256460  0.09026552  1  0  0.11074  0  0.935465  0  0  0.135467  0  0.990298  0  0  0.136155  0  0.99107  0  0.047108  0  0.097149  0.135239  0  0.98931  0
H  H11  1  0.23383343  0.69743758  0.90972926  1  0  0.110696  0  0.935568  0  0  0.135443  0  0.990368  0  0  0.136137  0  0.991134  0  0.047193  0  0.097141  0.135219  0  0.989377  0
H  H12  1  0.27867356  0.57955570  0.25197419  1  0  0.111084  0  0.959606  0  0  0.12116  0  1.019843  0  0  0.123978  0  1.020795  0  0.059251  0  0.099224  0.118822  0  1.019978  0
H  H13  1  0.72132605  0.42044377  0.74802838  1  0  0.111079  0  0.959611  0  0  0.121125  0  1.019879  0  0  0.123939  0  1.020841  0  0.05924  0  0.099199  0.118785  0  1.02002  0
H  H14  1  0.27321247  0.82253254  0.14608486  1  0  0.074711  0  0.957889  0  0  0.087652  0  1.019973  0  0  0.0898  0  1.018314  0  0.054681  0  0.103304  0.086164  0  1.020965  0
H  H15  1  0.72677974  0.17746783  0.85391307  1  0  0.074723  0  0.957885  0  0  0.087651  0  1.019966  0  0  0.089813  0  1.018299  0  0.091056  0  0.103294  0.086162  0  1.020958  0
H  H16  1  0.57163866  0.67745265  0.06687340  1  0  0.121573  0  0.945896  0  0  0.139682  0  1.009811  0  0  0.141996  0  1.008619  0  0.074847  0  0.096843  0.138403  0  1.00997  0
H  H17  1  0.42835499  0.32254953  0.93312564  1  0  0.121577  0  0.94585  0  0  0.139655  0  1.00981  0  0  0.14197  0  1.008624  0  0.074946  0  0.096846  0.138383  0  1.009963  0
H  H18  1  0.45616102  0.68436832  0.97865639  1  0  0.115005  0  0.954141  0  0  0.134062  0  1.018793  0  0  0.135604  0  1.018293  0  0.068015  0  0.095304  0.132712  0  1.019501  0
H  H19  1  0.54383307  0.31563296  0.02134340  1  0  0.114936  0  0.954217  0  0  0.134006  0  1.01886  0  0  0.135546  0  1.018365  0  0.068047  0  0.095276  0.13265  0  1.019573  0
H  H20  1  0.49660511  0.55739663  0.06548341  1  0  0.096798  0  0.971988  0  0  0.119208  0  1.031954  0  0  0.120171  0  1.03257  0  0.036786  0  0.088032  0.118475  0  1.031692  0
H  H21  1  0.50339450  0.44260284  0.93451366  1  0  0.096721  0  0.971982  0  0  0.119125  0  1.031969  0  0  0.120093  0  1.032581  0  0.036821  0  0.087997  0.118392  0  1.031708  0
H  H22  1  0.74270364  0.62443342  0.89209757  1  0  0.106129  0  0.984251  0  0  0.116459  0  1.046527  0  0  0.119701  0  1.046142  0  0.089222  0  0.096086  0.114054  0  1.047064  0
H  H23  1  0.25728973  0.37556695  0.10790402  1  0  0.106125  0  0.984186  0  0  0.11646  0  1.046456  0  0  0.119703  0  1.046072  0  0.089146  0  0.096082  0.114057  0  1.046993  0
H  H24  1  0.04794080  0.54929399  0.68253695  1  0  0.073266  0  0.959556  0  0  0.085767  0  1.021653  0  0  0.087785  0  1.020594  0  0.083211  0  0.098296  0.084405  0  1.022227  0
H  H25  1  0.95205252  0.45071361  0.31746257  1  0  0.073257  0  0.959511  0  0  0.085786  0  1.021585  0  0  0.087796  0  1.020544  0  0.083214  0  0.098296  0.084421  0  1.022164  0
H  H26  1  0.95543895  0.43026673  0.91024217  1  0  0.104664  0  0.94143  0  0  0.129445  0  0.99439  0  0  0.131  0  0.994403  0  0.050679  0  0.091313  0.128371  0  0.99426  0
H  H27  1  0.04456352  0.56973635  0.08975554  1  0  0.104606  0  0.941497  0  0  0.129406  0  0.994442  0  0  0.130962  0  0.994452  0  0.051052  0  0.091279  0.128325  0  0.994321  0
H  H28  1  0.16088090  0.42326970  0.83275058  1  0  0.103133  0  0.945036  0  0  0.124259  0  1.006033  0  0  0.125724  0  1.005869  0  0.041199  0  0.090966  0.123544  0  1.005608  0
H  H29  1  0.83911866  0.57673700  0.16724441  1  0  0.103194  0  0.944982  0  0  0.124278  0  1.00603  0  0  0.125745  0  1.005863  0  0.03911  0  0.090962  0.123563  0  1.005605  0
H  H30  1  0.06330679  0.34816553  0.77967466  1  0  0.115717  0  0.950136  0  0  0.135616  0  1.012741  0  0  0.136762  0  1.013832  0  0.073127  0  0.093941  0.134925  0  1.011695  0
H  H31  1  0.93669409  0.65183845  0.22032100  1  0  0.115684  0  0.950209  0  0  0.135599  0  1.012798  0  0  0.136748  0  1.013884  0  0.073414  0  0.093929  0.134913  0  1.011745  0
H  H32  1  0.49829187  0.81888667  0.36300474  1  0  0.126693  0  0.943795  0  0  0.128956  0  1.015063  0  0  0.134384  0  1.008324  0  0.176324  0  0.137411  0.124842  0  1.020206  0
H  H33  1  0.50171236  0.18111279  0.63699596  1  0  0.126754  0  0.943761  0  0  0.128991  0  1.015061  0  0  0.13441  0  1.008339  0  0.176274  0  0.13742  0.124878  0  1.020202  0
H  H34  1  0.36741434  0.66273628  0.40277040  1  0  0.114223  0  0.976794  0  0  0.12378  0  1.036207  0  0  0.126574  0  1.03587  0  0.117495  0  0.112964  0.122586  0  1.03529  0
H  H35  1  0.63258918  0.33726228  0.59722975  1  0  0.114169  0  0.976806  0  0  0.1237  0  1.03627  0  0  0.12653  0  1.035872  0  0.117453  0  0.112952  0.122512  0  1.03535  0
H  H36  1  0.74460920  0.45836153  0.55226653  1  0  0.127154  0  0.984445  0  0  0.134046  0  1.046036  0  0  0.138795  0  1.042727  0  0.156803  0  0.111391  0.13059  0  1.048397  0
H  H37  1  0.25538241  0.54164246  0.44774937  1  0  0.127081  0  0.9845  0  0  0.133941  0  1.046147  0  0  0.138692  0  1.042836  0  0.156754  0  0.111354  0.130492  0  1.048498  0
H  H38  1  0.85307974  0.62594763  0.51005950  1  0  0.134296  0  0.949977  0  0  0.141625  0  1.009478  0  0  0.145288  0  1.006761  0  0.186896  0  0.139895  0.13864  0  1.012161  0
H  H39  1  0.14691578  0.37405545  0.48994926  1  0  0.134293  0  0.949979  0  0  0.141644  0  1.009475  0  0  0.145288  0  1.006784  0  0.186687  0  0.139881  0.138659  0  1.012156  0
H  H40  1  0.47177111  0.93476075  0.60137167  1  0  0.45128  0  0.839982  0  0  0.421596  0  0.900723  0  0  0.433164  0  0.883935  0  0.653164  0  0.302476  0.413135  0  0.913114  0
H  H41  1  0.52822558  0.06524233  0.39862503  1  0  0.451314  0  0.839951  0  0  0.42162  0  0.900701  0  0  0.433185  0  0.883919  0  0.653186  0  0.30249  0.41316  0  0.913091  0
H  H42  1  0.56570683  0.89162234  0.69397158  1  0  0.412669  0  0.90781  0  0  0.379727  0  0.976385  0  0  0.391482  0  0.959777  0  0.640154  0  0.284913  0.370883  0  0.989215  0
H  H43  1  0.43428191  0.10837803  0.30602873  1  0  0.412607  0  0.907901  0  0  0.379677  0  0.976444  0  0  0.391432  0  0.959837  0  0.64018  0  0.284873  0.370835  0  0.989269  0
H  H44  1  0.83521303  0.06125385  0.68772771  1  0  0.430249  0  0.880393  0  0  0.399154  0  0.945199  0  0  0.40979  0  0.930051  0  0.649677  0  0.29553  0.391836  0  0.955796  0
H  H45  1  0.16478602  0.93874201  0.31227367  1  0  0.430209  0  0.880443  0  0  0.399114  0  0.945253  0  0  0.409746  0  0.930112  0  0.649646  0  0.295513  0.391796  0  0.955851  0
H  H46  1  0.65465382  0.04748127  0.74165298  1  0  0.435288  0  0.864547  0  0  0.404994  0  0.928373  0  0  0.416014  0  0.912538  0  0.651984  0  0.296023  0.397722  0  0.938768  0
H  H47  1  0.34534274  0.95251730  0.25835193  1  0  0.435279  0  0.864555  0  0  0.404974  0  0.928394  0  0  0.415991  0  0.912564  0  0.652024  0  0.296001  0.397703  0  0.938787  0
H  H48  1  0.69666601  0.89568857  0.26362667  1  0  0.12358  0  0.97627  0  0  0.127304  0  1.044905  0  0  0.132829  0  1.038681  0  0.202164  0  0.129318  0.123349  0  1.049293  0
H  H49  1  0.30334390  0.10430637  0.73636910  1  0  0.123578  0  0.976271  0  0  0.127276  0  1.044938  0  0  0.132808  0  1.038713  0  0.20212  0  0.129301  0.123323  0  1.049321  0
H  H50  1  0.93720266  0.95767105  0.19350205  1  0  0.124768  0  0.971708  0  0  0.13032  0  1.036841  0  0  0.134396  0  1.034651  0  0.133228  0  0.111894  0.127318  0  1.038631  0
H  H51  1  0.06280713  0.04231938  0.80649721  1  0  0.124828  0  0.971683  0  0  0.130388  0  1.036808  0  0  0.134468  0  1.034612  0  0.133321  0  0.111871  0.127377  0  1.038603  0
H  H52  1  0.87995245  0.97189111  0.86580436  1  0  0.116842  0  0.954654  0  0  0.126355  0  1.015734  0  0  0.130239  0  1.013119  0  0.077198  0  0.113454  0.123676  0  1.017555  0
H  H53  1  0.12006138  0.02810293  0.13419606  1  0  0.116839  0  0.954612  0  0  0.126369  0  1.015673  0  0  0.130253  0  1.013057  0  0.077164  0  0.113466  0.123685  0  1.017493  0
H  H54  1  0.63877712  0.90806446  0.95109812  1  0  0.124546  0  0.937083  0  0  0.127666  0  1.006514  0  0  0.131893  0  1.002565  0  0.164132  0  0.129891  0.124341  0  1.009443  0
H  H55  1  0.36123423  0.09193230  0.04889954  1  0  0.124457  0  0.937118  0  0  0.127605  0  1.00651  0  0  0.131825  0  1.00257  0  0.164063  0  0.129794  0.124276  0  1.009449  0
C  C56  1  0.80377959  0.12194811  0.40682574  1  0  0.724581  0  3.891638  0  0  0.679615  0  4.179337  0  0  0.715016  0  4.178389  0  1.49033  0  0.208364  0.65503  0  4.186181  0
C  C57  1  0.19621957  0.87805226  0.59317294  1  0  0.724397  0  3.891934  0  0  0.679406  0  4.179664  0  0  0.714802  0  4.178717  0  1.490206  0  0.208253  0.654816  0  4.186513  0
C  C58  1  0.80194130  0.21976461  0.32863352  1  0  -0.288567  0  3.682722  0  0  -0.303776  0  3.939951  0  0  -0.317734  0  3.957833  0  0.012403  0  -0.109605  -0.293953  0  3.927029  0
C  C59  1  0.19805538  0.78023848  0.67136475  1  0  -0.288555  0  3.682799  0  0  -0.303756  0  3.940033  0  0  -0.317701  0  3.957905  0  0.01207  0  -0.109613  -0.293928  0  3.927105  0
C  C60  1  0.71468179  0.24482464  0.25731415  1  0  0.092995  0  3.66559  0  0  0.081102  0  3.919617  0  0  0.086374  0  3.938122  0  -0.135031  0  -0.06278  0.078486  0  3.905548  0
C  C61  1  0.28532273  0.75517664  0.74268165  1  0  0.09305  0  3.665693  0  0  0.081117  0  3.919715  0  0  0.086388  0  3.938212  0  -0.134533  0  -0.062769  0.078495  0  3.905644  0
C  C62  1  0.71357785  0.34179498  0.17607807  1  0  -0.305752  0  3.762355  0  0  -0.378842  0  3.995515  0  0  -0.381427  0  4.005802  0  -0.047361  0  -0.236  -0.376452  0  3.987747  0
C  C63  1  0.28642550  0.65820629  0.82391721  1  0  -0.305726  0  3.762431  0  0  -0.378799  0  3.995587  0  0  -0.381394  0  4.005882  0  -0.047521  0  -0.235965  -0.37641  0  3.987795  0
C  C64  1  0.10468503  0.75182638  0.33748523  1  0  0.68185  0  3.944401  0  0  0.634516  0  4.239122  0  0  0.669488  0  4.236629  0  1.511827  0  0.189695  0.610383  0  4.244264  0
C  C65  1  0.89531066  0.24817399  0.66251583  1  0  0.682001  0  3.944162  0  0  0.634676  0  4.238866  0  0  0.669652  0  4.236374  0  1.511833  0  0.189749  0.610549  0  4.244012  0
C  C66  1  0.23885665  0.67715975  0.24221418  1  0  -0.298018  0  3.719479  0  0  -0.308636  0  3.973532  0  0  -0.323173  0  3.991869  0  -0.104761  0  -0.117397  -0.298952  0  3.960467  0
C  C67  1  0.76113700  0.32284243  0.75778801  1  0  -0.298044  0  3.71939  0  0  -0.308629  0  3.973423  0  0  -0.323173  0  3.991783  0  -0.104922  0  -0.117389  -0.298956  0  3.960372  0
C  C68  1  0.31707710  0.72444575  0.15191591  1  0  0.111613  0  3.665088  0  0  0.097243  0  3.917129  0  0  0.105031  0  3.933518  0  0.011952  0  -0.062084  0.092617  0  3.905446  0
C  C69  1  0.68291511  0.27555462  0.84808359  1  0  0.111553  0  3.665116  0  0  0.097209  0  3.917126  0  0  0.10498  0  3.93353  0  -0.024324  0  -0.062071  0.092582  0  3.90545  0
C  C70  1  0.46713387  0.65529900  0.06076416  1  0  -0.324249  0  3.764876  0  0  -0.398168  0  4.004203  0  0  -0.401369  0  4.012348  0  -0.075673  0  -0.242395  -0.395918  0  3.998542  0
C  C71  1  0.53286181  0.34470137  0.93923611  1  0  -0.324072  0  3.764802  0  0  -0.397965  0  4.004121  0  0  -0.40117  0  4.012281  0  -0.075796  0  -0.242333  -0.395713  0  3.998454  0
C  C72  1  0.75709489  0.73492774  0.74590475  1  0  0.712128  0  3.898573  0  0  0.67053  0  4.186216  0  0  0.705854  0  4.179431  0  1.565214  0  0.207564  0.646498  0  4.191713  0
C  C73  1  0.24289572  0.26507354  0.25409664  1  0  0.712547  0  3.897951  0  0  0.670799  0  4.185824  0  0  0.706128  0  4.179034  0  1.565262  0  0.207686  0.646772  0  4.191315  0
C  C74  1  0.82436349  0.62870848  0.80870577  1  0  -0.289452  0  3.706006  0  0  -0.303917  0  3.955116  0  0  -0.316333  0  3.972247  0  -0.075522  0  -0.116873  -0.29542  0  3.943459  0
C  C75  1  0.17563203  0.37129461  0.19129513  1  0  -0.289584  0  3.705906  0  0  -0.304011  0  3.955083  0  0  -0.316429  0  3.972212  0  -0.075523  0  -0.116869  -0.295519  0  3.943432  0
C  C76  1  0.97228599  0.54052601  0.76710025  1  0  0.065838  0  3.709022  0  0  0.054898  0  3.965857  0  0  0.059944  0  3.984284  0  -0.081979  0  -0.076286  0.051771  0  3.952987  0
C  C77  1  0.02771141  0.45947798  0.23289858  1  0  0.065859  0  3.708876  0  0  0.054916  0  3.965684  0  0  0.059957  0  3.984115  0  -0.081937  0  -0.076298  0.051788  0  3.952821  0
C  C78  1  0.04019689  0.43065184  0.82627225  1  0  -0.310221  0  3.770164  0  0  -0.383324  0  4.008361  0  0  -0.386786  0  4.018813  0  -0.107528  0  -0.240546  -0.380806  0  4.000588  0
C  C79  1  0.95980122  0.56935305  0.17372399  1  0  -0.310191  0  3.77014  0  0  -0.383304  0  4.008341  0  0  -0.386765  0  4.018785  0  -0.106111  0  -0.240494  -0.380779  0  4.00057  0
C  C80  1  0.54411798  0.73697351  0.40512581  1  0  0.023477  0  3.576496  0  0  -0.018778  0  3.839744  0  0  -0.010464  0  3.847751  0  0.382253  0  0.046238  -0.023778  0  3.834062  0
C  C81  1  0.45588394  0.26302596  0.59487858  1  0  0.023391  0  3.576461  0  0  -0.018888  0  3.8398  0  0  -0.010576  0  3.847807  0  0.382247  0  0.046214  -0.023891  0  3.834122  0
C  C82  1  0.47500958  0.64853882  0.42842801  1  0  -0.126364  0  3.723247  0  0  -0.143737  0  3.970999  0  0  -0.148825  0  3.989375  0  0.006082  0  -0.074076  -0.140875  0  3.95799  0
C  C83  1  0.52498974  0.35145884  0.57157632  1  0  -0.126282  0  3.723129  0  0  -0.14362  0  3.9709  0  0  -0.148717  0  3.989265  0  0.00623  0  -0.074033  -0.140761  0  3.957897  0
C  C84  1  0.53840472  0.54605131  0.48569347  1  0  0.072952  0  3.782892  0  0  0.080189  0  4.020693  0  0  0.084023  0  4.04133  0  -0.051199  0  0.002722  0.077943  0  4.006729  0
C  C85  1  0.46159488  0.45394816  0.51431067  1  0  0.073069  0  3.782724  0  0  0.080308  0  4.020519  0  0  0.084136  0  4.041167  0  -0.008046  0  0.002746  0.078055  0  4.006563  0
C  C86  1  0.67889360  0.53718841  0.51395939  1  0  -0.130301  0  3.701454  0  0  -0.146604  0  3.95176  0  0  -0.151655  0  3.968071  0  -0.040053  0  -0.076072  -0.143405  0  3.940758  0
C  C87  1  0.32110308  0.46281468  0.48604832  1  0  -0.130223  0  3.701429  0  0  -0.146514  0  3.951777  0  0  -0.151563  0  3.968083  0  -0.039875  0  -0.076027  -0.143317  0  3.940774  0
C  C88  1  0.74505936  0.62745643  0.49026682  1  0  0.00543  0  3.581323  0  0  -0.037688  0  3.84286  0  0  -0.030922  0  3.854725  0  0.368691  0  0.046384  -0.041983  0  3.835336  0
C  C89  1  0.25493660  0.37254575  0.50974426  1  0  0.005478  0  3.581283  0  0  -0.037662  0  3.842821  0  0  -0.03088  0  3.854694  0  0.368991  0  0.046444  -0.041961  0  3.835301  0
C  C90  1  0.74105448  0.91621410  0.17689725  1  0  0.011861  0  3.583773  0  0  -0.028883  0  3.843828  0  0  -0.021702  0  3.852747  0  0.320266  0  0.035859  -0.033297  0  3.837135  0
C  C91  1  0.25895587  0.08377994  0.82310006  1  0  0.011884  0  3.583837  0  0  -0.028786  0  3.843784  0  0  -0.021623  0  3.852718  0  0.320209  0  0.035875  -0.033223  0  3.837131  0
C  C92  1  0.87551599  0.95251368  0.13472073  1  0  -0.128985  0  3.718328  0  0  -0.149068  0  3.975489  0  0  -0.153774  0  3.993319  0  -0.030343  0  -0.077955  -0.144846  0  3.962395  0
C  C93  1  0.12450004  0.04747584  0.86527636  1  0  -0.129114  0  3.718333  0  0  -0.149219  0  3.975486  0  0  -0.153926  0  3.993315  0  -0.030283  0  -0.077952  -0.144985  0  3.962378  0
C  C94  1  0.93023960  0.97857536  0.02208868  1  0  0.061784  0  3.786243  0  0  0.070301  0  4.023439  0  0  0.073113  0  4.045281  0  0.050627  0  -0.003622  0.067934  0  4.009516  0
C  C95  1  0.06977076  0.02141869  0.97791255  1  0  0.061671  0  3.786166  0  0  0.070169  0  4.023396  0  0  0.072987  0  4.045229  0  0.010827  0  -0.003631  0.0678  0  4.009465  0
C  C96  1  0.84382721  0.95964179  0.95506784  1  0  -0.128407  0  3.720905  0  0  -0.145492  0  3.971048  0  0  -0.1499  0  3.989055  0  0.040796  0  -0.077007  -0.14368  0  3.959794  0
C  C97  1  0.15618474  0.04035135  0.04493308  1  0  -0.128289  0  3.720743  0  0  -0.14541  0  3.970895  0  0  -0.149813  0  3.988887  0  0.040734  0  -0.077043  -0.143592  0  3.959634  0
C  C98  1  0.70898339  0.92362517  0.99964157  1  0  -2.2e-05  0  3.595847  0  0  -0.040902  0  3.857021  0  0  -0.03448  0  3.868388  0  0.327455  0  0.035143  -0.044703  0  3.84923  0
C  C99  1  0.29102597  0.07636617  0.00035615  1  0  2.4e-05  0  3.59577  0  0  -0.040832  0  3.856863  0  0  -0.034407  0  3.86823  0  0.327413  0  0.035264  -0.044637  0  3.849078  0
N  N100  1  0.67629590  0.72722648  0.43773891  1  0  0.294168  0  3.710489  0  0  0.348032  0  3.972262  0  0  0.349212  0  3.996331  0  -0.638346  0  -0.108138  0.346785  0  3.957855  0
N  N101  1  0.32370646  0.27277208  0.56226465  1  0  0.294089  0  3.710489  0  0  0.347965  0  3.97228  0  0  0.349149  0  3.996342  0  -0.638735  0  -0.108211  0.346717  0  3.95788  0
N  N102  1  0.65496950  0.90474674  0.11082886  1  0  0.276711  0  3.73966  0  0  0.331452  0  3.998412  0  0  0.332335  0  4.020721  0  -0.62968  0  -0.109946  0.33071  0  3.983465  0
N  N103  1  0.34504129  0.09524640  0.88916840  1  0  0.276619  0  3.739738  0  0  0.331359  0  3.998472  0  0  0.332245  0  4.020783  0  -0.629837  0  -0.109951  0.330615  0  3.983529  0
O  O104  1  0.70914953  0.06039956  0.42213514  1  0  -0.708793  0  2.015263  0  0  -0.64826  0  2.252172  0  0  -0.683278  0  2.241631  0  -1.198134  0  -0.35966  -0.630255  0  2.259072  0
O  O105  1  0.29084688  0.93960172  0.57786411  1  0  -0.708736  0  2.015359  0  0  -0.648189  0  2.252268  0  0  -0.683209  0  2.241733  0  -1.198101  0  -0.359634  -0.630183  0  2.259167  0
O  O106  1  0.90691821  0.09532595  0.46170784  1  0  -0.798836  0  2.124408  0  0  -0.738189  0  2.383067  0  0  -0.784767  0  2.374161  0  -1.19424  0  -0.408503  -0.718688  0  2.38853  0
O  O107  1  0.09307748  0.90467442  0.53829164  1  0  -0.798776  0  2.124428  0  0  -0.738127  0  2.383095  0  0  -0.784697  0  2.374182  0  -1.194673  0  -0.408477  -0.718625  0  2.388569  0
O  O108  1  0.03548997  0.86703239  0.33114605  1  0  -0.726353  0  2.066934  0  0  -0.66251  0  2.300482  0  0  -0.697127  0  2.290678  0  -1.200013  0  -0.368613  -0.644225  0  2.306326  0
O  O109  1  0.96450847  0.13296708  0.66885443  1  0  -0.726419  0  2.066886  0  0  -0.662579  0  2.300429  0  0  -0.697201  0  2.290624  0  -1.199986  0  -0.368613  -0.644268  0  2.306211  0
O  O110  1  0.06053313  0.70248285  0.42895971  1  0  -0.683381  0  1.989037  0  0  -0.635935  0  2.230665  0  0  -0.668967  0  2.220541  0  -1.180416  0  -0.354972  -0.61852  0  2.235737  0
O  O111  1  0.93946416  0.29751662  0.57104025  1  0  -0.683442  0  1.98898  0  0  -0.636026  0  2.230628  0  0  -0.66905  0  2.220502  0  -1.180396  0  -0.355016  -0.618612  0  2.235698  0
O  O112  1  0.85172225  0.74908904  0.64982045  1  0  -0.774639  0  2.05846  0  0  -0.720191  0  2.315682  0  0  -0.759699  0  2.30074  0  -1.213312  0  -0.41895  -0.701249  0  2.322401  0
O  O113  1  0.14826428  0.25091585  0.35018242  1  0  -0.774696  0  2.058239  0  0  -0.720225  0  2.315564  0  0  -0.759725  0  2.300614  0  -1.213491  0  -0.418961  -0.701278  0  2.322267  0
O  O114  1  0.60789741  0.80472176  0.79079190  1  0  -0.625255  0  1.89325  0  0  -0.572386  0  2.102721  0  0  -0.59662  0  2.092986  0  -1.19154  0  -0.323041  -0.555425  0  2.109327  0
O  O115  1  0.39209105  0.19527681  0.20920861  1  0  -0.625476  0  1.893013  0  0  -0.572555  0  2.102569  0  0  -0.596795  0  2.092842  0  -1.191361  0  -0.323152  -0.555598  0  2.109175  0
O  O116  1  0.73733494  0.81416232  0.41537928  1  0  -0.602501  0  1.881037  0  0  -0.566431  0  2.13342  0  0  -0.603703  0  2.133198  0  -0.641378  0  -0.284784  -0.548285  0  2.130763  0
O  O117  1  0.26266742  0.18583624  0.58462271  1  0  -0.602513  0  1.881084  0  0  -0.566403  0  2.133423  0  0  -0.603678  0  2.133199  0  -0.64107  0  -0.284777  -0.54824  0  2.130718  0
O  O118  1  0.56473264  0.93812818  0.62342326  1  0  -0.947288  0  1.916164  0  0  -0.899082  0  2.129993  0  0  -0.930684  0  2.091086  0  -1.293813  0  -0.657668  -0.883264  0  2.15386  0
O  O119  1  0.43526393  0.06187038  0.37657693  1  0  -0.947262  0  1.916162  0  0  -0.899045  0  2.130045  0  0  -0.930658  0  2.091139  0  -1.293839  0  -0.657635  -0.883232  0  2.153904  0
O  O120  1  0.76743788  0.01167709  0.68669165  1  0  -0.928277  0  1.899614  0  0  -0.877985  0  2.101503  0  0  -0.910074  0  2.064598  0  -1.299886  0  -0.654534  -0.862431  0  2.121427  0
O  O121  1  0.23255532  0.98832600  0.31330508  1  0  -0.928201  0  1.899628  0  0  -0.877922  0  2.10154  0  0  -0.909997  0  2.064618  0  -1.299887  0  -0.654482  -0.86236  0  2.12146  0
O  O122  1  0.52469258  0.87326824  0.15252002  1  0  -0.542278  0  1.745182  0  0  -0.504733  0  1.964001  0  0  -0.529167  0  1.965657  0  -0.621053  0  -0.232823  -0.487742  0  1.961855  0
O  O123  1  0.47531761  0.12672851  0.84747635  1  0  -0.542205  0  1.745216  0  0  -0.50474  0  1.964082  0  0  -0.529157  0  1.965733  0  -0.620946  0  -0.232846  -0.487734  0  1.961945  0
