# generated using pymatgen
data_ZnH14C19N2O7
_symmetry_space_group_name_H-M   'P 1'
_cell_length_a   9.54225748
_cell_length_b   13.84022655
_cell_length_c   16.84592328
_cell_angle_alpha   92.14840493
_cell_angle_beta   106.48038277
_cell_angle_gamma   90.01317473
_symmetry_Int_Tables_number   1
_chemical_formula_structural   ZnH14C19N2O7
_chemical_formula_sum   'Zn4 H56 C76 N8 O28'
_cell_volume   2131.75275096
_cell_formula_units_Z   4
loop_
 _symmetry_equiv_pos_site_id
 _symmetry_equiv_pos_as_xyz
  1  'x, y, z'
loop_
 _atom_site_type_symbol
 _atom_site_label
 _atom_site_symmetry_multiplicity
 _atom_site_fract_x
 _atom_site_fract_y
 _atom_site_fract_z
 _atom_site_occupancy
 _atom_site_pbe_bader_charge
 _atom_site_pbe_bader_spin_density
 _atom_site_pbe_cm5_charge
 _atom_site_pbe_ddec_charge
 _atom_site_pbe_ddec_spin_density
 _atom_site_pbe_ddec_sum_bond_order
 _atom_site_pbe_magmom
Zn  Zn0  1  0.95483115  0.37250702  0.51177515  1  1.278017  0  0.696557  0.861693  0  2.290846  0
Zn  Zn1  1  0.44300164  0.12741659  0.48842650  1  1.277434  0  0.696553  0.86127  0  2.291092  0
Zn  Zn2  1  0.04516586  0.62749330  0.48822472  1  1.278016  0  0.69657  0.861665  0  2.290881  0
Zn  Zn3  1  0.55700081  0.87258301  0.51157442  1  1.277431  0  0.696528  0.861256  0  2.291148  0
H  H4  1  0.06058982  0.34373784  0.36220838  1  0.161151  0  0.123296  0.104292  0  1.004409  0
H  H5  1  0.69877802  0.15625014  0.63784551  1  0.149326  0  0.122855  0.103969  0  1.003982  0
H  H6  1  0.93941054  0.65626321  0.63779157  1  0.161161  0  0.123299  0.104298  0  1.00443  0
H  H7  1  0.30122653  0.84374947  0.36215642  1  0.149005  0  0.122876  0.103962  0  1.004018  0
H  H8  1  0.95786345  0.27401880  0.21886299  1  0.084297  0  0.116369  0.12468  0  0.987071  0
H  H9  1  0.73995280  0.22611705  0.78118753  1  0.115151  0  0.116794  0.125199  0  0.986231  0
H  H10  1  0.04214150  0.72598297  0.78113610  1  0.084428  0  0.116349  0.124689  0  0.987007  0
H  H11  1  0.26005003  0.77388689  0.21881276  1  0.115099  0  0.11681  0.125199  0  0.98629  0
H  H12  1  0.88811322  0.15280791  0.13316183  1  0.123086  0  0.115497  0.123205  0  0.99345  0
H  H13  1  0.75591589  0.34756839  0.86715446  1  0.097078  0  0.115496  0.123218  0  0.9937  0
H  H14  1  0.11189078  0.84718880  0.86683514  1  0.123042  0  0.11551  0.123204  0  0.993428  0
H  H15  1  0.24408205  0.65243627  0.13284750  1  0.096809  0  0.115546  0.123326  0  0.993784  0
H  H16  1  0.77090883  0.08222297  0.99185417  1  0.085362  0  0.124175  0.093756  0  0.956606  0
H  H17  1  0.77960972  0.41827901  0.00837741  1  0.063129  0  0.12435  0.094186  0  0.95771  0
H  H18  1  0.22909068  0.91777662  0.00814165  1  0.085451  0  0.124203  0.093808  0  0.956566  0
H  H19  1  0.22038335  0.58172421  0.99162402  1  0.063422  0  0.124366  0.094186  0  0.957646  0
H  H20  1  0.35652158  0.14483196  0.00778986  1  0.152203  0  0.119819  0.09597  0  0.997123  0
H  H21  1  0.34923991  0.35501068  0.99202331  1  0.134403  0  0.119757  0.095834  0  0.997281  0
H  H22  1  0.64348153  0.85516909  0.99220957  1  0.152165  0  0.119847  0.095999  0  0.997162  0
H  H23  1  0.65075405  0.64498892  0.00797570  1  0.134504  0  0.119729  0.09577  0  0.997239  0
H  H24  1  0.45413177  0.22285625  0.14909725  1  0.097443  0  0.115249  0.127378  0  0.995017  0
H  H25  1  0.30595200  0.27700417  0.85079656  1  0.091949  0  0.114978  0.126845  0  0.995595  0
H  H26  1  0.54587499  0.77714408  0.85090144  1  0.097356  0  0.115295  0.127467  0  0.995016  0
H  H27  1  0.69404414  0.72299687  0.14920137  1  0.091996  0  0.114985  0.126855  0  0.995579  0
H  H28  1  0.55328802  0.22365569  0.28079434  1  0.098318  0  0.119003  0.132903  0  0.978861  0
H  H29  1  0.27329781  0.27630887  0.71950591  1  0.091114  0  0.119106  0.132821  0  0.978889  0
H  H30  1  0.44671444  0.77633957  0.71920217  1  0.098292  0  0.11898  0.132833  0  0.978918  0
H  H31  1  0.72670165  0.72369072  0.28049203  1  0.090991  0  0.11908  0.132809  0  0.978882  0
H  H32  1  0.66950065  0.30014696  0.41814243  1  0.160005  0  0.12221  0.102506  0  1.009046  0
H  H33  1  0.25165728  0.19980389  0.58215385  1  0.15209  0  0.121906  0.102457  0  1.008235  0
H  H34  1  0.33049596  0.69984614  0.58185584  1  0.159921  0  0.122249  0.102556  0  1.008877  0
H  H35  1  0.74834822  0.80019499  0.41784574  1  0.152042  0  0.121895  0.102435  0  1.008201  0
H  H36  1  0.29049619  0.50757306  0.69582746  1  0.100139  0  0.108713  0.120509  0  1.005679  0
H  H37  1  0.59424006  0.99224314  0.30437128  1  0.108073  0  0.109121  0.121123  0  1.005686  0
H  H38  1  0.70950474  0.49242655  0.30417304  1  0.100088  0  0.108707  0.12051  0  1.005665  0
H  H39  1  0.40576114  0.00775647  0.69563059  1  0.108128  0  0.109104  0.121088  0  1.005717  0
H  H40  1  0.76101964  0.50239480  0.76904342  1  0.115252  0  0.108013  0.112969  0  0.998767  0
H  H41  1  0.99146791  0.99753817  0.23122901  1  0.101022  0  0.108257  0.113077  0  0.999126  0
H  H42  1  0.23897702  0.49760408  0.23095717  1  0.11524  0  0.108017  0.112951  0  0.998755  0
H  H43  1  0.00853180  0.00246216  0.76877246  1  0.101  0  0.108248  0.113031  0  0.999159  0
H  H44  1  0.51800793  0.39475842  0.52612605  1  0.118634  0  0.110011  0.115395  0  1.01422  0
H  H45  1  0.99167354  0.10517469  0.47409888  1  0.131424  0  0.110207  0.115706  0  1.014834  0
H  H46  1  0.48199335  0.60524336  0.47387375  1  0.118594  0  0.110016  0.115403  0  1.014215  0
H  H47  1  0.00832551  0.89482420  0.52590408  1  0.131474  0  0.110195  0.11566  0  1.014922  0
H  H48  1  0.42123403  0.57754429  0.90399050  1  0.625435  0  0.284611  0.292339  0  1.058446  0
H  H49  1  0.51719400  0.92223547  0.09599771  1  0.626368  0  0.284518  0.292928  0  1.058851  0
H  H50  1  0.57876114  0.42245604  0.09600972  1  0.62545  0  0.284615  0.292355  0  1.058424  0
H  H51  1  0.48280581  0.07776847  0.90400174  1  0.626362  0  0.28453  0.292905  0  1.058854  0
H  H52  1  0.91453174  0.20340857  0.56057544  1  0.664493  0  0.288109  0.385523  0  0.95407  0
H  H53  1  0.35393985  0.29657772  0.43956001  1  0.658936  0  0.287868  0.385622  0  0.954123  0
H  H54  1  0.08546705  0.79659175  0.43942620  1  0.664492  0  0.288112  0.385587  0  0.953998  0
H  H55  1  0.64606076  0.70342188  0.56044126  1  0.658928  0  0.287858  0.385588  0  0.954179  0
H  H56  1  0.96700848  0.28559192  0.63271551  1  0.649379  0  0.286855  0.379016  0  0.958839  0
H  H57  1  0.33403266  0.21433073  0.36747457  1  0.61952  0  0.286791  0.378881  0  0.959063  0
H  H58  1  0.03299248  0.71440913  0.36728504  1  0.649342  0  0.286803  0.378957  0  0.958926  0
H  H59  1  0.66596703  0.78566815  0.63252686  1  0.619455  0  0.286801  0.378922  0  0.959012  0
C  C60  1  0.94820531  0.31712726  0.34002045  1  0.527043  0  0.056026  0.10663  0  3.917662  0
C  C61  1  0.60870043  0.18284504  0.66011013  1  0.459986  0  0.056203  0.106629  0  3.915676  0
C  C62  1  0.05179504  0.68287306  0.65997947  1  0.527026  0  0.055996  0.10656  0  3.917825  0
C  C63  1  0.39130143  0.81715529  0.33989022  1  0.460251  0  0.056161  0.106586  0  3.915739  0
C  C64  1  0.88958365  0.27725425  0.26078272  1  -0.096147  0  -0.070639  -0.153358  0  3.919341  0
C  C65  1  0.62961590  0.22280738  0.73932833  1  -0.056105  0  -0.071013  -0.155204  0  3.918771  0
C  C66  1  0.11042125  0.72274463  0.73921628  1  -0.096157  0  -0.070634  -0.153404  0  3.919282  0
C  C67  1  0.37038601  0.77719584  0.26067211  1  -0.056096  0  -0.070992  -0.155106  0  3.918814  0
C  C68  1  0.74546774  0.24133710  0.23662604  1  0.010555  0  0.021973  0.1111  0  3.960357  0
C  C69  1  0.50975899  0.25869586  0.76353719  1  0.058542  0  0.021523  0.112551  0  3.959873  0
C  C70  1  0.25453803  0.75865889  0.76337269  1  0.010481  0  0.021929  0.111191  0  3.960428  0
C  C71  1  0.49024198  0.74130591  0.23646338  1  0.05864  0  0.021489  0.112497  0  3.959881  0
C  C72  1  0.68111545  0.19557480  0.15369891  1  0.0235  0  0.015629  0.102202  0  3.967209  0
C  C73  1  0.52839344  0.30454315  0.84642436  1  -0.061171  0  0.014702  0.101358  0  3.968538  0
C  C74  1  0.31888914  0.80442191  0.84629866  1  0.023544  0  0.015578  0.10217  0  3.967406  0
C  C75  1  0.47160484  0.69546007  0.15357465  1  -0.061153  0  0.014711  0.101338  0  3.968628  0
C  C76  1  0.76977557  0.15499937  0.10763909  1  0.018075  0  -0.077558  -0.174346  0  3.945893  0
C  C77  1  0.66304043  0.34527141  0.89258298  1  0.00368  0  -0.077374  -0.174013  0  3.947718  0
C  C78  1  0.23022725  0.84499806  0.89235672  1  0.018138  0  -0.07757  -0.174349  0  3.945904  0
C  C79  1  0.33695513  0.65473326  0.10741661  1  0.003821  0  -0.077437  -0.174179  0  3.948039  0
C  C80  1  0.70489082  0.11451698  0.02901507  1  0.4799  0  0.052237  0.094486  0  3.968657  0
C  C81  1  0.67653374  0.38580358  0.97115969  1  0.516005  0  0.05215  0.093776  0  3.971174  0
C  C82  1  0.29511020  0.88548261  0.97098116  1  0.479909  0  0.052249  0.094515  0  3.968574  0
C  C83  1  0.32346300  0.61420037  0.02884106  1  0.516222  0  0.052148  0.093793  0  3.971317  0
C  C84  1  0.47363068  0.14869861  0.03901203  1  0.430683  0  0.05223  0.092603  0  3.953179  0
C  C85  1  0.43526322  0.35127570  0.96092965  1  0.504538  0  0.052197  0.092574  0  3.953668  0
C  C86  1  0.52637274  0.85130171  0.96098660  1  0.430688  0  0.052224  0.092691  0  3.952913  0
C  C87  1  0.56473050  0.64872607  0.03906806  1  0.504477  0  0.052191  0.092566  0  3.95361  0
C  C88  1  0.52933771  0.19088421  0.11786525  1  -0.007754  0  -0.072962  -0.15393  0  3.912507  0
C  C89  1  0.41232672  0.30911969  0.88210623  1  -0.016488  0  -0.072933  -0.154538  0  3.913766  0
C  C90  1  0.47066542  0.80911539  0.88213200  1  -0.007764  0  -0.073023  -0.154143  0  3.912448  0
C  C91  1  0.58766944  0.69088280  0.11789175  1  -0.016508  0  -0.07291  -0.154457  0  3.913801  0
C  C92  1  0.66515299  0.25051635  0.29446814  1  -0.001765  0  -0.071112  -0.154218  0  3.906981  0
C  C93  1  0.37141442  0.24944196  0.70578151  1  -0.004202  0  -0.070052  -0.153485  0  3.907512  0
C  C94  1  0.33485005  0.74947819  0.70552894  1  -0.001797  0  -0.071009  -0.154143  0  3.906998  0
C  C95  1  0.62858805  0.75055909  0.29421945  1  -0.00432  0  -0.06999  -0.153457  0  3.907537  0
C  C96  1  0.72984925  0.29243214  0.37230117  1  0.45155  0  0.053939  0.101951  0  3.927525  0
C  C97  1  0.35800249  0.20752975  0.62793897  1  0.450466  0  0.053367  0.100258  0  3.928215  0
C  C98  1  0.27015104  0.70756168  0.62769641  1  0.451622  0  0.053859  0.101863  0  3.927235  0
C  C99  1  0.64200146  0.79246913  0.37206234  1  0.450627  0  0.053365  0.100296  0  3.928184  0
C  C100  1  0.24629471  0.41813490  0.54422845  1  1.575859  0  0.212635  0.589352  0  4.191593  0
C  C101  1  0.70197713  0.08179496  0.45600786  1  1.557194  0  0.21223  0.588886  0  4.191438  0
C  C102  1  0.75370563  0.58186543  0.45577148  1  1.575878  0  0.212631  0.589439  0  4.191441  0
C  C103  1  0.29802405  0.91820320  0.54399396  1  1.557205  0  0.212228  0.588952  0  4.19139  0
C  C104  1  0.53375590  0.55895782  0.82275548  1  1.525748  0  0.215952  0.567329  0  4.164207  0
C  C105  1  0.71071954  0.94085700  0.17748081  1  1.584568  0  0.215363  0.567218  0  4.162698  0
C  C106  1  0.46624137  0.44104178  0.17724573  1  1.525817  0  0.215943  0.567341  0  4.164004  0
C  C107  1  0.28927748  0.05914477  0.82251910  1  1.584612  0  0.215338  0.567113  0  4.1627  0
C  C108  1  0.78842163  0.40752291  0.62680332  1  1.575368  0  0.210505  0.58472  0  4.197196  0
C  C109  1  0.16131476  0.09243179  0.37349165  1  1.560726  0  0.209241  0.583373  0  4.200116  0
C  C110  1  0.21157903  0.59247959  0.37319805  1  1.575283  0  0.210521  0.58474  0  4.197135  0
C  C111  1  0.83868584  0.90756709  0.62650960  1  1.560473  0  0.209218  0.583301  0  4.200093  0
C  C112  1  0.38843141  0.44991550  0.60372231  1  -0.001199  0  -0.019083  -0.04205  0  3.98813  0
C  C113  1  0.78443583  0.04993281  0.39651364  1  -0.08564  0  -0.018143  -0.040831  0  3.987457  0
C  C114  1  0.61156771  0.55008555  0.39627859  1  -0.001255  0  -0.019092  -0.042108  0  3.988189  0
C  C115  1  0.21556415  0.95006462  0.60348696  1  -0.085335  0  -0.018133  -0.040834  0  3.987482  0
C  C116  1  0.39235821  0.49295764  0.68089208  1  0.003407  0  -0.073349  -0.096571  0  3.913025  0
C  C117  1  0.71106227  0.00686817  0.31933900  1  0.027634  0  -0.074475  -0.098789  0  3.915177  0
C  C118  1  0.60764216  0.50704413  0.31910790  1  0.003481  0  -0.073337  -0.096547  0  3.913035  0
C  C119  1  0.28893832  0.99312999  0.68066222  1  0.027619  0  -0.074475  -0.098756  0  3.9151  0
C  C120  1  0.52650822  0.51438228  0.73941671  1  -0.065514  0  -0.021895  -0.053416  0  4.000443  0
C  C121  1  0.78667473  0.98543913  0.26085016  1  -0.044223  0  -0.021973  -0.05307  0  4.002045  0
C  C122  1  0.47349147  0.48561732  0.26058474  1  -0.065531  0  -0.021889  -0.053538  0  4.000624  0
C  C123  1  0.21332437  0.01456047  0.73915069  1  -0.044236  0  -0.021985  -0.053094  0  4.001966  0
C  C124  1  0.65714089  0.48901941  0.72200073  1  -0.074771  0  -0.070241  -0.098961  0  3.924065  0
C  C125  1  0.93471733  0.01089182  0.27827434  1  -0.026975  0  -0.070565  -0.099388  0  3.925506  0
C  C126  1  0.34285730  0.51098092  0.27800032  1  -0.074926  0  -0.070233  -0.098863  0  3.923902  0
C  C127  1  0.06528203  0.98910706  0.72172785  1  -0.027034  0  -0.070453  -0.099206  0  3.925294  0
C  C128  1  0.65338945  0.44484375  0.64554503  1  0.047518  0  -0.015676  -0.027852  0  3.9779  0
C  C129  1  0.00752572  0.05506774  0.35473318  1  -0.043167  0  -0.015137  -0.026713  0  3.977142  0
C  C130  1  0.34661030  0.55515947  0.35445653  1  0.047629  0  -0.015732  -0.027877  0  3.977809  0
C  C131  1  0.99247421  0.94492970  0.64526956  1  -0.043084  0  -0.015148  -0.026653  0  3.977065  0
C  C132  1  0.51934223  0.42803090  0.58587297  1  -0.057544  0  -0.069668  -0.091596  0  3.909438  0
C  C133  1  0.93319662  0.07185117  0.41437793  1  0.021922  0  -0.070372  -0.092723  0  3.910022  0
C  C134  1  0.48065904  0.57196943  0.41412678  1  -0.057381  0  -0.069655  -0.091599  0  3.909607  0
C  C135  1  0.06680332  0.92814627  0.58562481  1  0.021927  0  -0.070425  -0.092803  0  3.910143  0
N  N136  1  0.87000740  0.32363561  0.39523055  1  -1.268042  0  -0.334907  -0.242461  0  3.608904  0
N  N137  1  0.47513126  0.17632401  0.60495897  1  -1.248684  0  -0.334289  -0.240151  0  3.607682  0
N  N138  1  0.12999138  0.67636109  0.60476884  1  -1.268111  0  -0.334845  -0.24234  0  3.608957  0
N  N139  1  0.52487208  0.82367487  0.39504175  1  -1.248584  0  -0.334297  -0.240167  0  3.607698  0
N  N140  1  0.55955946  0.11208600  0.99477847  1  -1.269476  0  -0.303481  -0.220858  0  3.45745  0
N  N141  1  0.56533284  0.38807452  0.00526824  1  -1.23932  0  -0.303424  -0.220026  0  3.456312  0
N  N142  1  0.44044034  0.88791432  0.00521873  1  -1.269385  0  -0.303503  -0.22099  0  3.45744  0
N  N143  1  0.43466024  0.61192725  0.99473101  1  -1.239738  0  -0.303423  -0.219969  0  3.456341  0
O  O144  1  0.13014987  0.44927933  0.56215173  1  -1.162797  0  -0.326158  -0.563224  0  2.367767  0
O  O145  1  0.56789721  0.05059702  0.43814877  1  -1.164172  0  -0.326035  -0.563057  0  2.367345  0
O  O146  1  0.86985046  0.55071954  0.43784816  1  -1.16283  0  -0.326126  -0.563186  0  2.367739  0
O  O147  1  0.43210185  0.94940042  0.56185201  1  -1.164258  0  -0.326043  -0.563092  0  2.367425  0
O  O148  1  0.24181401  0.36027026  0.48410044  1  -1.197563  0  -0.307045  -0.56346  0  2.218271  0
O  O149  1  0.75774099  0.13978229  0.51604435  1  -1.198027  0  -0.30684  -0.563054  0  2.218064  0
O  O150  1  0.75818937  0.63973079  0.51590034  1  -1.197577  0  -0.307069  -0.563528  0  2.218232  0
O  O151  1  0.24225810  0.86021731  0.48395650  1  -1.198213  0  -0.306852  -0.563106  0  2.217961  0
O  O152  1  0.64694685  0.59665917  0.86862527  1  -1.161492  0  -0.320421  -0.535046  0  2.085998  0
O  O153  1  0.77822202  0.90327740  0.13170304  1  -1.167075  0  -0.320028  -0.534561  0  2.085098  0
O  O154  1  0.35305161  0.40334043  0.13137713  1  -1.16158  0  -0.320424  -0.535009  0  2.085946  0
O  O155  1  0.22177527  0.09672366  0.86829821  1  -1.167171  0  -0.32  -0.534515  0  2.085101  0
O  O156  1  0.40838523  0.55233163  0.84220841  1  -1.170854  0  -0.340711  -0.488898  0  2.353248  0
O  O157  1  0.56586683  0.94738626  0.15785694  1  -1.196748  0  -0.340439  -0.489611  0  2.353317  0
O  O158  1  0.59161144  0.44766798  0.15779220  1  -1.170794  0  -0.340713  -0.488917  0  2.35316  0
O  O159  1  0.43412996  0.05261840  0.84214170  1  -1.196693  0  -0.340454  -0.489563  0  2.353288  0
O  O160  1  0.88760693  0.37011263  0.68294981  1  -1.184027  0  -0.333008  -0.561517  0  2.087434  0
O  O161  1  0.20430324  0.12982298  0.31734323  1  -1.176817  0  -0.331988  -0.560894  0  2.089698  0
O  O162  1  0.11239525  0.62989059  0.31705199  1  -1.183991  0  -0.332999  -0.56152  0  2.08741  0
O  O163  1  0.79569609  0.87017664  0.68266111  1  -1.17667  0  -0.332011  -0.5609  0  2.089502  0
O  O164  1  0.78674667  0.41355662  0.55022850  1  -1.171566  0  -0.327724  -0.558754  0  2.364989  0
O  O165  1  0.23631953  0.08645923  0.45007037  1  -1.1768  0  -0.327467  -0.55822  0  2.366143  0
O  O166  1  0.21325395  0.58644371  0.44977280  1  -1.171535  0  -0.327728  -0.558748  0  2.36498  0
O  O167  1  0.76368222  0.91353677  0.54993197  1  -1.176772  0  -0.327392  -0.558162  0  2.366308  0
O  O168  1  0.99584365  0.25072021  0.58621056  1  -1.291406  0  -0.573638  -0.741658  0  2.084901  0
O  O169  1  0.40950198  0.24921191  0.41395691  1  -1.257193  0  -0.57331  -0.741741  0  2.084966  0
O  O170  1  0.00415546  0.74928012  0.41379031  1  -1.29139  0  -0.573588  -0.741653  0  2.084939  0
O  O171  1  0.59049803  0.75078769  0.58604377  1  -1.257168  0  -0.57333  -0.741769  0  2.084955  0
