# generated using pymatgen
data_SnH12C8O3
_symmetry_space_group_name_H-M   'P 1'
_cell_length_a   9.76473167
_cell_length_b   10.17390808
_cell_length_c   10.69034261
_cell_angle_alpha   89.99996262
_cell_angle_beta   108.09294103
_cell_angle_gamma   90.00004684
_symmetry_Int_Tables_number   1
_chemical_formula_structural   SnH12C8O3
_chemical_formula_sum   'Sn4 H48 C32 O12'
_cell_volume   1009.52375082
_cell_formula_units_Z   4
loop_
 _symmetry_equiv_pos_site_id
 _symmetry_equiv_pos_as_xyz
  1  'x, y, z'
loop_
 _atom_site_type_symbol
 _atom_site_label
 _atom_site_symmetry_multiplicity
 _atom_site_fract_x
 _atom_site_fract_y
 _atom_site_fract_z
 _atom_site_occupancy
 _atom_site_hle17_bader_spin_density
 _atom_site_hle17_ddec_charge
 _atom_site_hle17_ddec_spin_density
 _atom_site_hle17_ddec_sum_bond_order
 _atom_site_hle17_magmom
 _atom_site_hse06_10hf_bader_spin_density
 _atom_site_hse06_10hf_ddec_charge
 _atom_site_hse06_10hf_ddec_spin_density
 _atom_site_hse06_10hf_ddec_sum_bond_order
 _atom_site_hse06_10hf_magmom
 _atom_site_hse06_bader_spin_density
 _atom_site_hse06_ddec_charge
 _atom_site_hse06_ddec_spin_density
 _atom_site_hse06_ddec_sum_bond_order
 _atom_site_hse06_magmom
 _atom_site_pbe_bader_spin_density
 _atom_site_pbe_cm5_charge
 _atom_site_pbe_ddec_charge
 _atom_site_pbe_ddec_spin_density
 _atom_site_pbe_ddec_sum_bond_order
 _atom_site_pbe_magmom
Sn  Sn0  1  0.27577761  0.09733333  0.19554944  1  0  1.384464  0  2.869874  0  0  1.253886  0  3.360992  0  0  1.293026  0  3.343323  0  0  0.521148  1.227706  0  3.371759  0
Sn  Sn1  1  0.22422275  0.59733681  0.30445123  1  0  1.384507  0  2.86983  0  0  1.253952  0  3.360912  0  0  1.293091  0  3.343241  0  0  0.521148  1.227741  0  3.37174  0
Sn  Sn2  1  0.72422298  0.90266491  0.80445291  1  0  1.384444  0  2.869802  0  0  1.253873  0  3.360884  0  0  1.293015  0  3.343208  0  0  0.521148  1.227698  0  3.37166  0
Sn  Sn3  1  0.77577885  0.40266635  0.69554672  1  0  1.384461  0  2.869853  0  0  1.253896  0  3.360941  0  0  1.293045  0  3.343272  0  0  0.521145  1.227722  0  3.371716  0
H  H4  1  0.31532886  0.76835252  0.90461972  1  0  0.098524  0  0.970692  0  0  0.106704  0  1.033527  0  0  0.108813  0  1.031684  0  0  0.122086  0.104943  0  1.035131  0
H  H5  1  0.18466872  0.26835396  0.59538388  1  0  0.098521  0  0.97068  0  0  0.106725  0  1.033492  0  0  0.108812  0  1.031676  0  0  0.122058  0.104958  0  1.035099  0
H  H6  1  0.68467062  0.23165162  0.09538046  1  0  0.098463  0  0.970845  0  0  0.106672  0  1.033655  0  0  0.10874  0  1.031864  0  0  0.122065  0.104945  0  1.035216  0
H  H7  1  0.81532761  0.73165017  0.40462012  1  0  0.098523  0  0.970782  0  0  0.10673  0  1.033577  0  0  0.108813  0  1.031766  0  0  0.122088  0.104963  0  1.035183  0
H  H8  1  0.33825191  0.60046333  0.70957700  1  0  0.130329  0  0.952848  0  0  0.14252  0  1.006248  0  0  0.145831  0  1.005515  0  0  0.113882  0.140092  0  1.007004  0
H  H9  1  0.16174767  0.10046658  0.79042538  1  0  0.130292  0  0.952865  0  0  0.142458  0  1.006304  0  0  0.145794  0  1.005539  0  0  0.113869  0.140028  0  1.007063  0
H  H10  1  0.66174764  0.39953589  0.29042694  1  0  0.130193  0  0.952843  0  0  0.142419  0  1.006213  0  0  0.145751  0  1.005452  0  0  0.113831  0.139987  0  1.00697  0
H  H11  1  0.83824966  0.89953461  0.20957422  1  0  0.130324  0  0.952805  0  0  0.142484  0  1.006264  0  0  0.145807  0  1.005514  0  0  0.113873  0.140054  0  1.007019  0
H  H12  1  0.33259933  0.35267060  0.81489082  1  0  0.126019  0  0.950465  0  0  0.136569  0  1.01113  0  0  0.139433  0  1.009157  0  0  0.114056  0.134549  0  1.012398  0
H  H13  1  0.16739937  0.85267412  0.68511117  1  0  0.126025  0  0.95046  0  0  0.13656  0  1.011137  0  0  0.139423  0  1.009164  0  0  0.114061  0.134539  0  1.012404  0
H  H14  1  0.66739904  0.64732862  0.18510625  1  0  0.126077  0  0.950612  0  0  0.136611  0  1.01126  0  0  0.139472  0  1.009291  0  0  0.11409  0.134589  0  1.012526  0
H  H15  1  0.83260018  0.14732805  0.31489277  1  0  0.126062  0  0.950515  0  0  0.136605  0  1.011176  0  0  0.13947  0  1.009201  0  0  0.114057  0.134582  0  1.012443  0
H  H16  1  0.31970030  0.85404161  0.11262343  1  0  0.158671  0  1.001714  0  0  0.176445  0  1.059298  0  0  0.179335  0  1.059527  0  0  0.088443  0.174635  0  1.058823  0
H  H17  1  0.18029915  0.35403891  0.38737497  1  0  0.158693  0  1.001706  0  0  0.176478  0  1.059264  0  0  0.179369  0  1.05949  0  0  0.088466  0.174667  0  1.05879  0
H  H18  1  0.68030242  0.14596056  0.88737762  1  0  0.158665  0  1.001702  0  0  0.17643  0  1.059292  0  0  0.17932  0  1.059521  0  0  0.088426  0.174615  0  1.058833  0
H  H19  1  0.81969812  0.64596425  0.61262087  1  0  0.158673  0  1.00175  0  0  0.17646  0  1.059301  0  0  0.17935  0  1.059531  0  0  0.08844  0.174647  0  1.058836  0
H  H20  1  0.44013094  0.96716044  0.07190240  1  0  0.153463  0  0.992111  0  0  0.174145  0  1.044885  0  0  0.176663  0  1.045544  0  0  0.085234  0.17212  0  1.045056  0
H  H21  1  0.05986532  0.46716057  0.42809226  1  0  0.153477  0  0.992097  0  0  0.174153  0  1.044879  0  0  0.176671  0  1.045538  0  0  0.085237  0.17213  0  1.045047  0
H  H22  1  0.55986635  0.03283977  0.92809438  1  0  0.153462  0  0.992106  0  0  0.17413  0  1.044897  0  0  0.176649  0  1.045554  0  0  0.08523  0.172107  0  1.045066  0
H  H23  1  0.94013410  0.53284259  0.57190416  1  0  0.153465  0  0.992085  0  0  0.174133  0  1.044881  0  0  0.176652  0  1.04554  0  0  0.085225  0.172109  0  1.045053  0
H  H24  1  0.25516235  0.96086453  0.97296548  1  0  0.141372  0  1.01096  0  0  0.160215  0  1.071075  0  0  0.162228  0  1.072293  0  0  0.080578  0.158603  0  1.070636  0
H  H25  1  0.24483647  0.46086410  0.52703929  1  0  0.141419  0  1.010922  0  0  0.16023  0  1.071075  0  0  0.162245  0  1.07229  0  0  0.080564  0.158622  0  1.070632  0
H  H26  1  0.74483824  0.03913567  0.02703687  1  0  0.141383  0  1.010945  0  0  0.16021  0  1.071078  0  0  0.162227  0  1.072286  0  0  0.080577  0.158603  0  1.070632  0
H  H27  1  0.75516298  0.53913610  0.47295902  1  0  0.141395  0  1.010868  0  0  0.160225  0  1.07101  0  0  0.162239  0  1.072223  0  0  0.080569  0.158618  0  1.070563  0
H  H28  1  0.46573760  0.10623943  0.44321069  1  0  0.160163  0  0.987993  0  0  0.176468  0  1.046566  0  0  0.179519  0  1.046609  0  0  0.086187  0.174255  0  1.046712  0
H  H29  1  0.03426385  0.60623606  0.05679026  1  0  0.160163  0  0.987945  0  0  0.176479  0  1.046513  0  0  0.179531  0  1.046555  0  0  0.086184  0.174268  0  1.046659  0
H  H30  1  0.53426295  0.89376471  0.55678884  1  0  0.160188  0  0.987976  0  0  0.176497  0  1.046539  0  0  0.179548  0  1.046582  0  0  0.086179  0.174284  0  1.046685  0
H  H31  1  0.96573886  0.39376415  0.94320985  1  0  0.160186  0  0.987956  0  0  0.176489  0  1.046543  0  0  0.179543  0  1.046582  0  0  0.086192  0.174278  0  1.046692  0
H  H32  1  0.42712231  0.26902054  0.37764369  1  0  0.155471  0  1.003555  0  0  0.174538  0  1.059266  0  0  0.177313  0  1.059737  0  0  0.086103  0.172436  0  1.059334  0
H  H33  1  0.07287602  0.76901912  0.12235539  1  0  0.155406  0  1.003599  0  0  0.17451  0  1.059271  0  0  0.177284  0  1.059742  0  0  0.086093  0.172408  0  1.059336  0
H  H34  1  0.57287715  0.73098065  0.62235462  1  0  0.155391  0  1.003585  0  0  0.174478  0  1.059286  0  0  0.177252  0  1.059759  0  0  0.086074  0.172375  0  1.059355  0
H  H35  1  0.92712243  0.23098109  0.87764637  1  0  0.155391  0  1.003549  0  0  0.174485  0  1.059244  0  0  0.177259  0  1.059716  0  0  0.086076  0.172386  0  1.059313  0
H  H36  1  0.54880535  0.16658897  0.32701748  1  0  0.146156  0  1.009877  0  0  0.164402  0  1.068633  0  0  0.166044  0  1.071097  0  0  0.081728  0.163213  0  1.06703  0
H  H37  1  0.95119391  0.66658780  0.17298341  1  0  0.146148  0  1.009815  0  0  0.164395  0  1.068585  0  0  0.166039  0  1.071049  0  0  0.081723  0.163209  0  1.066982  0
H  H38  1  0.45119306  0.83341123  0.67298241  1  0  0.146135  0  1.009806  0  0  0.16438  0  1.068578  0  0  0.166023  0  1.071041  0  0  0.081715  0.163193  0  1.066978  0
H  H39  1  0.04880664  0.33341339  0.82701612  1  0  0.146171  0  1.009771  0  0  0.16442  0  1.068534  0  0  0.166062  0  1.071  0  0  0.08175  0.163237  0  1.066933  0
H  H40  1  0.01515951  0.08274590  0.23028068  1  0  0.150388  0  1.025417  0  0  0.166105  0  1.08887  0  0  0.168563  0  1.089724  0  0  0.081328  0.164204  0  1.088526  0
H  H41  1  0.48484193  0.58274272  0.26972123  1  0  0.150399  0  1.025404  0  0  0.166118  0  1.088853  0  0  0.168577  0  1.089704  0  0  0.081337  0.164216  0  1.088511  0
H  H42  1  0.98484108  0.91725627  0.76972168  1  0  0.150401  0  1.025406  0  0  0.166118  0  1.088856  0  0  0.168576  0  1.08971  0  0  0.081337  0.164214  0  1.088516  0
H  H43  1  0.51515540  0.41725650  0.73027837  1  0  0.150385  0  1.025407  0  0  0.166121  0  1.088828  0  0  0.168581  0  1.089679  0  0  0.081341  0.164219  0  1.08849  0
H  H44  1  0.99201643  0.11662711  0.06028140  1  0  0.147683  0  1.00609  0  0  0.168744  0  1.060208  0  0  0.170763  0  1.062046  0  0  0.083952  0.167098  0  1.059397  0
H  H45  1  0.50798601  0.61662444  0.43971945  1  0  0.147663  0  1.006123  0  0  0.168722  0  1.060245  0  0  0.170745  0  1.062079  0  0  0.083938  0.167078  0  1.05943  0
H  H46  1  0.00798518  0.88337309  0.93971749  1  0  0.1477  0  1.006098  0  0  0.168756  0  1.060214  0  0  0.170777  0  1.062049  0  0  0.083964  0.167112  0  1.0594  0
H  H47  1  0.49201347  0.38337675  0.56027979  1  0  0.147685  0  1.006081  0  0  0.168744  0  1.060202  0  0  0.170768  0  1.062034  0  0  0.083944  0.167102  0  1.059386  0
H  H48  1  0.04057533  0.24640772  0.17844507  1  0  0.162604  0  0.98807  0  0  0.180868  0  1.043066  0  0  0.183834  0  1.043443  0  0  0.087461  0.178683  0  1.042939  0
H  H49  1  0.45942730  0.74640448  0.32155613  1  0  0.162511  0  0.988036  0  0  0.180794  0  1.043035  0  0  0.183765  0  1.043406  0  0  0.087429  0.178611  0  1.042898  0
H  H50  1  0.95942623  0.75359445  0.82155100  1  0  0.162604  0  0.988022  0  0  0.180865  0  1.043031  0  0  0.18383  0  1.04341  0  0  0.087458  0.178683  0  1.0429  0
H  H51  1  0.54057757  0.25359474  0.67844551  1  0  0.162519  0  0.988022  0  0  0.1808  0  1.043024  0  0  0.183768  0  1.043401  0  0  0.087432  0.178617  0  1.042896  0
C  C52  1  0.28918519  0.37122419  0.07884947  1  0  0.619697  0  3.962803  0  0  0.564799  0  4.26152  0  0  0.59966  0  4.252543  0  0  0.220613  0.541195  0  4.26713  0
C  C53  1  0.21081531  0.87122168  0.42114640  1  0  0.619734  0  3.962954  0  0  0.564771  0  4.261711  0  0  0.599629  0  4.252733  0  0  0.220592  0.541174  0  4.26731  0
C  C54  1  0.71081311  0.62879469  0.92114384  1  0  0.619833  0  3.963423  0  0  0.564867  0  4.262204  0  0  0.599713  0  4.253231  0  0  0.220578  0.541276  0  4.267803  0
C  C55  1  0.78918638  0.12878934  0.57885719  1  0  0.619882  0  3.963306  0  0  0.564952  0  4.262029  0  0  0.599804  0  4.253059  0  0  0.220641  0.541359  0  4.26763  0
C  C56  1  0.30673031  0.46472580  0.98043941  1  0  0.047997  0  3.705795  0  0  0.043428  0  3.972771  0  0  0.042593  0  3.987977  0  0  0.058517  0.043754  0  3.962996  0
C  C57  1  0.19326632  0.96473044  0.51956195  1  0  0.047844  0  3.705733  0  0  0.043388  0  3.972575  0  0  0.042557  0  3.987784  0  0  0.058453  0.04371  0  3.9628  0
C  C58  1  0.69326699  0.53526850  0.01955830  1  0  0.047988  0  3.705232  0  0  0.043473  0  3.972215  0  0  0.042644  0  3.987395  0  0  0.058536  0.043793  0  3.962439  0
C  C59  1  0.80673322  0.03527074  0.48044106  1  0  0.048006  0  3.705376  0  0  0.043463  0  3.972371  0  0  0.042624  0  3.987563  0  0  0.058536  0.043785  0  3.962589  0
C  C60  1  0.31422379  0.66214653  0.89775739  1  0  0.101549  0  3.610539  0  0  0.060887  0  3.87829  0  0  0.070903  0  3.89113  0  0  0.003678  0.054678  0  3.869247  0
C  C61  1  0.18577688  0.16214797  0.60224337  1  0  0.101508  0  3.610498  0  0  0.060815  0  3.878249  0  0  0.070847  0  3.891113  0  0  0.003711  0.054617  0  3.869201  0
C  C62  1  0.68577785  0.33784876  0.10224338  1  0  0.101605  0  3.610504  0  0  0.060949  0  3.878263  0  0  0.070967  0  3.891131  0  0  0.003741  0.054717  0  3.8692  0
C  C63  1  0.81422368  0.83785027  0.39775710  1  0  0.10149  0  3.61049  0  0  0.060846  0  3.878221  0  0  0.070857  0  3.891074  0  0  0.003698  0.054645  0  3.869174  0
C  C64  1  0.32726661  0.57480354  0.80456458  1  0  -0.176562  0  3.789606  0  0  -0.197515  0  4.057171  0  0  -0.204613  0  4.076536  0  0  -0.11819  -0.192491  0  4.043284  0
C  C65  1  0.17273511  0.07480195  0.69543839  1  0  -0.176561  0  3.789648  0  0  -0.197505  0  4.057229  0  0  -0.204623  0  4.076582  0  0  -0.118227  -0.192485  0  4.043344  0
C  C66  1  0.67273496  0.42520158  0.19543148  1  0  -0.176488  0  3.789677  0  0  -0.19747  0  4.057231  0  0  -0.204586  0  4.07659  0  0  -0.118203  -0.192449  0  4.043347  0
C  C67  1  0.82726661  0.92520121  0.30456708  1  0  -0.176508  0  3.789655  0  0  -0.197445  0  4.057223  0  0  -0.204554  0  4.076587  0  0  -0.118205  -0.192425  0  4.04333  0
C  C68  1  0.32332347  0.44717016  0.85843275  1  0  -0.130436  0  3.746351  0  0  -0.166782  0  4.011331  0  0  -0.163903  0  4.027034  0  0  -0.101535  -0.168179  0  4.000069  0
C  C69  1  0.17667419  0.94717077  0.64156703  1  0  -0.130428  0  3.746513  0  0  -0.166785  0  4.011455  0  0  -0.163908  0  4.027168  0  0  -0.101556  -0.168184  0  4.000192  0
C  C70  1  0.67667508  0.55283594  0.14157560  1  0  -0.130681  0  3.746433  0  0  -0.167  0  4.011413  0  0  -0.164136  0  4.027127  0  0  -0.10169  -0.168391  0  4.000142  0
C  C71  1  0.82332523  0.05283337  0.35842939  1  0  -0.130682  0  3.746487  0  0  -0.167006  0  4.01145  0  0  -0.164139  0  4.027163  0  0  -0.101653  -0.168398  0  4.000177  0
C  C72  1  0.32947351  0.95164030  0.07322877  1  0  -0.722075  0  3.51929  0  0  -0.759861  0  3.742219  0  0  -0.773201  0  3.747844  0  0  -0.340472  -0.750691  0  3.738687  0
C  C73  1  0.17052711  0.45163953  0.42677082  1  0  -0.722188  0  3.519241  0  0  -0.759961  0  3.742208  0  0  -0.773293  0  3.747827  0  0  -0.340494  -0.750787  0  3.738673  0
C  C74  1  0.67052813  0.04836285  0.92677199  1  0  -0.722044  0  3.519197  0  0  -0.759805  0  3.742172  0  0  -0.77314  0  3.747791  0  0  -0.34042  -0.750643  0  3.738645  0
C  C75  1  0.82947346  0.54836264  0.57322965  1  0  -0.722106  0  3.519211  0  0  -0.75989  0  3.742181  0  0  -0.773228  0  3.747804  0  0  -0.340441  -0.75072  0  3.738648  0
C  C76  1  0.45090967  0.16808884  0.35632383  1  0  -0.709571  0  3.521922  0  0  -0.753201  0  3.755397  0  0  -0.766322  0  3.761329  0  0  -0.336958  -0.744537  0  3.751558  0
C  C77  1  0.04909399  0.66808640  0.14367863  1  0  -0.709524  0  3.521856  0  0  -0.753192  0  3.755295  0  0  -0.766314  0  3.761222  0  0  -0.336935  -0.744526  0  3.751456  0
C  C78  1  0.54909414  0.83191530  0.64367846  1  0  -0.709494  0  3.521797  0  0  -0.753139  0  3.755252  0  0  -0.766264  0  3.761185  0  0  -0.336895  -0.744478  0  3.751416  0
C  C79  1  0.95090765  0.33191380  0.85632213  1  0  -0.709504  0  3.521763  0  0  -0.75316  0  3.755183  0  0  -0.766283  0  3.761119  0  0  -0.336919  -0.744501  0  3.751352  0
C  C80  1  0.05275786  0.14150409  0.16201322  1  0  -0.713891  0  3.514764  0  0  -0.758331  0  3.746421  0  0  -0.771631  0  3.752311  0  0  -0.336928  -0.749122  0  3.742673  0
C  C81  1  0.44724147  0.64149985  0.33798808  1  0  -0.713776  0  3.514718  0  0  -0.758245  0  3.746384  0  0  -0.771554  0  3.752257  0  0  -0.336889  -0.749031  0  3.742625  0
C  C82  1  0.94724161  0.85849808  0.83798603  1  0  -0.713875  0  3.51472  0  0  -0.758319  0  3.746396  0  0  -0.771621  0  3.752284  0  0  -0.336926  -0.74911  0  3.742643  0
C  C83  1  0.55275911  0.35850036  0.66201333  1  0  -0.713761  0  3.51465  0  0  -0.758245  0  3.7463  0  0  -0.771558  0  3.752182  0  0  -0.336871  -0.749035  0  3.742552  0
O  O84  1  0.30437008  0.24932513  0.05288219  1  0  -0.610908  0  1.998367  0  0  -0.542053  0  2.233912  0  0  -0.568691  0  2.227377  0  0  -0.286472  -0.523776  0  2.238149  0
O  O85  1  0.19562826  0.74933143  0.44711878  1  0  -0.61087  0  1.998459  0  0  -0.542019  0  2.234042  0  0  -0.568656  0  2.227506  0  0  -0.286413  -0.52374  0  2.238277  0
O  O86  1  0.69562831  0.75066033  0.94711676  1  0  -0.610713  0  1.999188  0  0  -0.541883  0  2.234812  0  0  -0.568515  0  2.228276  0  0  -0.286298  -0.523612  0  2.239041  0
O  O87  1  0.80437017  0.25066287  0.55288205  1  0  -0.610786  0  1.998971  0  0  -0.541949  0  2.234539  0  0  -0.568584  0  2.228005  0  0  -0.286362  -0.523677  0  2.238772  0
O  O88  1  0.24066951  0.90942239  0.31979808  1  0  -0.64336  0  2.068149  0  0  -0.574448  0  2.308429  0  0  -0.600275  0  2.301501  0  0  -0.282027  -0.556375  0  2.312293  0
O  O89  1  0.25933008  0.40942087  0.18020594  1  0  -0.643378  0  2.06787  0  0  -0.574471  0  2.308099  0  0  -0.600306  0  2.301187  0  0  -0.282047  -0.556389  0  2.311968  0
O  O90  1  0.75933206  0.09057782  0.68019799  1  0  -0.643548  0  2.068288  0  0  -0.574605  0  2.308514  0  0  -0.600429  0  2.301581  0  0  -0.282092  -0.556537  0  2.312389  0
O  O91  1  0.74066633  0.59058031  0.81980276  1  0  -0.643567  0  2.068191  0  0  -0.574602  0  2.308413  0  0  -0.600434  0  2.301495  0  0  -0.282092  -0.556531  0  2.312278  0
O  O92  1  0.30072838  0.59736544  0.00503239  1  0  -0.17773  0  2.433662  0  0  -0.098506  0  2.652397  0  0  -0.115859  0  2.662544  0  0  -0.112393  -0.08697  0  2.645395  0
O  O93  1  0.19927197  0.09736760  0.49496734  1  0  -0.177612  0  2.433639  0  0  -0.098395  0  2.652335  0  0  -0.115754  0  2.662475  0  0  -0.112336  -0.086861  0  2.64533  0
O  O94  1  0.69927116  0.40263673  0.99497061  1  0  -0.177685  0  2.433814  0  0  -0.098527  0  2.652598  0  0  -0.115829  0  2.662692  0  0  -0.112429  -0.086998  0  2.645613  0
O  O95  1  0.80073178  0.90263654  0.50503119  1  0  -0.177697  0  2.433822  0  0  -0.098538  0  2.652616  0  0  -0.115843  0  2.66272  0  0  -0.112448  -0.087007  0  2.645616  0
