# generated using pymatgen
data_AgH6C6SNO3
_symmetry_space_group_name_H-M   'P 1'
_cell_length_a   8.76826055
_cell_length_b   9.22519032
_cell_length_c   9.42625574
_cell_angle_alpha   99.83552831
_cell_angle_beta   90.00025209
_cell_angle_gamma   90.00010156
_symmetry_Int_Tables_number   1
_chemical_formula_structural   AgH6C6SNO3
_chemical_formula_sum   'Ag4 H24 C24 S4 N4 O12'
_cell_volume   751.27240324
_cell_formula_units_Z   4
loop_
 _symmetry_equiv_pos_site_id
 _symmetry_equiv_pos_as_xyz
  1  'x, y, z'
loop_
 _atom_site_type_symbol
 _atom_site_label
 _atom_site_symmetry_multiplicity
 _atom_site_fract_x
 _atom_site_fract_y
 _atom_site_fract_z
 _atom_site_occupancy
 _atom_site_pbe_bader_spin_density
 _atom_site_pbe_cm5_charge
 _atom_site_pbe_ddec_charge
 _atom_site_pbe_ddec_spin_density
 _atom_site_pbe_ddec_sum_bond_order
 _atom_site_pbe_magmom
Ag  Ag0  1  0.28723859  0.03673854  0.60553408  1  0  0.450648  0.52183  0  1.613042  0
Ag  Ag1  1  0.78723783  0.96326061  0.89446230  1  0  0.450635  0.521791  0  1.613041  0
Ag  Ag2  1  0.71276236  0.96326421  0.39446465  1  0  0.450651  0.521849  0  1.613017  0
Ag  Ag3  1  0.21276198  0.03673663  0.10553656  1  0  0.450657  0.521845  0  1.612999  0
H  H4  1  0.99517728  0.57278882  0.92239510  1  0  0.104239  0.105787  0  1.043227  0
H  H5  1  0.49517523  0.42721414  0.57760490  1  0  0.104238  0.105762  0  1.043272  0
H  H6  1  0.00482138  0.42721393  0.07760256  1  0  0.104232  0.105756  0  1.043271  0
H  H7  1  0.50482230  0.57278751  0.42239788  1  0  0.10422  0.10576  0  1.043259  0
H  H8  1  0.98206474  0.30391657  0.82505323  1  0  0.108165  0.135149  0  1.015507  0
H  H9  1  0.48206365  0.69608416  0.67494846  1  0  0.10817  0.135165  0  1.01547  0
H  H10  1  0.01793393  0.69608288  0.17494918  1  0  0.108176  0.135139  0  1.015502  0
H  H11  1  0.51793616  0.30391859  0.32505239  1  0  0.108161  0.13511  0  1.015556  0
H  H12  1  0.21395945  0.37974456  0.44091082  1  0  0.103226  0.116055  0  1.011687  0
H  H13  1  0.71395761  0.62025409  0.05909002  1  0  0.103226  0.116045  0  1.011696  0
H  H14  1  0.78604264  0.62025488  0.55908947  1  0  0.103222  0.11605  0  1.011699  0
H  H15  1  0.28604334  0.37974426  0.94091008  1  0  0.103234  0.116059  0  1.0117  0
H  H16  1  0.23231364  0.64588535  0.54113053  1  0  0.103967  0.110009  0  1.021551  0
H  H17  1  0.73231203  0.35411367  0.95886773  1  0  0.103986  0.110031  0  1.021521  0
H  H18  1  0.76768845  0.35411410  0.45886764  1  0  0.103985  0.110049  0  1.021488  0
H  H19  1  0.26768664  0.64588358  0.04113220  1  0  0.103985  0.110041  0  1.021503  0
H  H20  1  0.06390444  0.15527950  0.46073754  1  0  0.290906  0.301862  0  0.988913  0
H  H21  1  0.56390521  0.84472099  0.03926299  1  0  0.290902  0.30185  0  0.98892  0
H  H22  1  0.93609651  0.84472215  0.53926099  1  0  0.290895  0.301865  0  0.988932  0
H  H23  1  0.43609574  0.15527846  0.96073943  1  0  0.290898  0.301864  0  0.988924  0
H  H24  1  0.99561410  0.12799966  0.61943733  1  0  0.298353  0.307963  0  0.953426  0
H  H25  1  0.49561316  0.87200110  0.88056443  1  0  0.298338  0.307934  0  0.953414  0
H  H26  1  0.00438685  0.87200089  0.38056209  1  0  0.29834  0.307962  0  0.953428  0
H  H27  1  0.50438779  0.12799835  0.11943799  1  0  0.29835  0.307983  0  0.953388  0
C  C28  1  0.11556002  0.62429893  0.73889761  1  0  -0.033516  -0.117829  0  4.006261  0
C  C29  1  0.61555753  0.37569870  0.76110524  1  0  -0.033516  -0.117834  0  4.006453  0
C  C30  1  0.88444207  0.37569832  0.26110232  1  0  -0.033495  -0.117828  0  4.006329  0
C  C31  1  0.38443886  0.62430185  0.23889630  1  0  -0.03357  -0.117903  0  4.006423  0
C  C32  1  0.04489160  0.52873870  0.81830608  1  0  -0.086968  -0.075773  0  4.018807  0
C  C33  1  0.54489119  0.47126205  0.68169382  1  0  -0.086957  -0.075735  0  4.018729  0
C  C34  1  0.95511163  0.47126405  0.18169053  1  0  -0.086952  -0.075714  0  4.018741  0
C  C35  1  0.45511090  0.52873849  0.31830984  1  0  -0.086956  -0.07578  0  4.018794  0
C  C36  1  0.03718170  0.37914822  0.76364948  1  0  -0.09963  -0.190578  0  3.941184  0
C  C37  1  0.53718184  0.62085252  0.73635144  1  0  -0.099628  -0.190583  0  3.941172  0
C  C38  1  0.96282039  0.62085233  0.23635100  1  0  -0.099666  -0.190599  0  3.941212  0
C  C39  1  0.46282253  0.37914913  0.26365028  1  0  -0.099623  -0.1905  0  3.941204  0
C  C40  1  0.09687960  0.32500887  0.62701480  1  0  0.088293  0.280987  0  4.019657  0
C  C41  1  0.59687706  0.67498981  0.87298602  1  0  0.088288  0.280957  0  4.019749  0
C  C42  1  0.90312249  0.67499058  0.37298443  1  0  0.088322  0.281054  0  4.019609  0
C  C43  1  0.40312161  0.32500854  0.12701621  1  0  0.088312  0.281025  0  4.019635  0
C  C44  1  0.16756399  0.42160542  0.54737321  1  0  -0.095096  -0.175409  0  3.942624  0
C  C45  1  0.66756278  0.57839563  0.95262724  1  0  -0.095094  -0.175385  0  3.942651  0
C  C46  1  0.83243809  0.57839623  0.45262639  1  0  -0.09509  -0.175405  0  3.942788  0
C  C47  1  0.33243703  0.42160381  0.04737411  1  0  -0.095099  -0.175411  0  3.942798  0
C  C48  1  0.17713515  0.57095173  0.60291195  1  0  -0.084843  -0.066077  0  3.986614  0
C  C49  1  0.67713339  0.42904825  0.89708729  1  0  -0.084853  -0.066096  0  3.986816  0
C  C50  1  0.82286580  0.42904991  0.39708659  1  0  -0.084877  -0.066147  0  3.986788  0
C  C51  1  0.32286527  0.57095010  0.10291388  1  0  -0.084828  -0.066069  0  3.986878  0
S  S52  1  0.12041994  0.81436487  0.81007509  1  0  0.496648  1.147205  0  6.156916  0
S  S53  1  0.62041561  0.18563717  0.68992427  1  0  0.496634  1.147217  0  6.156808  0
S  S54  1  0.87958101  0.18563567  0.18992432  1  0  0.496669  1.14724  0  6.156894  0
S  S55  1  0.37957849  0.81436558  0.31007764  1  0  0.496697  1.147334  0  6.156956  0
N  N56  1  0.08411967  0.17270528  0.57015436  1  0  -0.616564  -0.595106  0  3.458378  0
N  N57  1  0.58411996  0.82729447  0.92984765  1  0  -0.616544  -0.595042  0  3.458368  0
N  N58  1  0.91587900  0.82729527  0.42984506  1  0  -0.616562  -0.595153  0  3.458397  0
N  N59  1  0.41587985  0.17270387  0.07015458  1  0  -0.616584  -0.595168  0  3.458351  0
O  O60  1  0.00340459  0.88587239  0.73097392  1  0  -0.344891  -0.607424  0  2.336407  0
O  O61  1  0.50340392  0.11412826  0.76902579  1  0  -0.34486  -0.607417  0  2.33644  0
O  O62  1  0.99659635  0.11412926  0.26902462  1  0  -0.344845  -0.607413  0  2.336462  0
O  O63  1  0.49659360  0.88587118  0.23097556  1  0  -0.344902  -0.607466  0  2.336503  0
O  O64  1  0.27501274  0.86806161  0.78558291  1  0  -0.339558  -0.598179  0  2.347032  0
O  O65  1  0.77501185  0.13193971  0.71441379  1  0  -0.339558  -0.598163  0  2.346896  0
O  O66  1  0.72498707  0.13193894  0.21441545  1  0  -0.339609  -0.598216  0  2.346943  0
O  O67  1  0.22498568  0.86805974  0.28558545  1  0  -0.339565  -0.598198  0  2.347061  0
O  O68  1  0.08145706  0.82792100  0.96446343  1  0  -0.343377  -0.600474  0  2.336887  0
O  O69  1  0.58145198  0.17207985  0.53553557  1  0  -0.343402  -0.600517  0  2.33682  0
O  O70  1  0.91854275  0.17207735  0.03553456  1  0  -0.3434  -0.600482  0  2.336854  0
O  O71  1  0.41854327  0.82792180  0.46446615  1  0  -0.343389  -0.600512  0  2.336836  0
